MODEL 1
REMARK VINA RESULT:      -7.8      0.000      0.000
REMARK  Name = 
REMARK  7 active torsions:
REMARK  status: ('A' for Active; 'I' for Inactive)
REMARK    1  A    between atoms: C_1  and  C_2
REMARK    2  A    between atoms: N_5  and  C_6
REMARK    3  A    between atoms: C_6  and  C_7
REMARK    4  A    between atoms: C_6  and  C_10
REMARK    5  A    between atoms: C_15  and  C_16
REMARK    6  A    between atoms: N_17  and  C_18
REMARK    7  A    between atoms: C_21  and  C_22
REMARK                            x       y       z     vdW  Elec       q    Type
REMARK                         _______ _______ _______ _____ _____    ______ ____
ROOT
ATOM      1  C   UNL     1       1.851   4.119  21.427  0.00  0.00    +0.000 C 
ATOM      2  C   UNL     1       2.170   5.189  20.425  0.00  0.00    +0.000 A 
ATOM      3  N   UNL     1       2.931   4.807  19.372  0.00  0.00    +0.000 NA
ATOM      4  C   UNL     1       3.254   5.717  18.426  0.00  0.00    +0.000 A 
ATOM      5  N   UNL     1       4.105   5.420  17.378  0.00  0.00    +0.000 N 
ATOM      6  C   UNL     1       2.737   7.021  18.574  0.00  0.00    +0.000 A 
ATOM      7  N   UNL     1       2.852   8.112  17.757  0.00  0.00    +0.000 NA
ATOM      8  C   UNL     1       2.152   9.067  18.337  0.00  0.00    +0.000 A 
ATOM      9  C   UNL     1       2.131  10.453  17.793  0.00  0.00    +0.000 C 
ATOM     10  N   UNL     1       1.563   8.635  19.536  0.00  0.00    +0.000 N 
ATOM     11  C   UNL     1       1.971   7.304  19.692  0.00  0.00    +0.000 A 
ATOM     12  N   UNL     1       1.656   6.421  20.664  0.00  0.00    +0.000 NA
ATOM     13  H   UNL     1       4.216   6.201  16.738  0.00  0.00    +0.000 HD
ENDROOT
BRANCH  10  14
ATOM     14  C   UNL     1       0.718   9.384  20.423  0.00  0.00    +0.000 A 
ATOM     15  C   UNL     1      -0.250  10.268  19.924  0.00  0.00    +0.000 A 
ATOM     16  C   UNL     1      -1.064  11.017  20.788  0.00  0.00    +0.000 A 
ATOM     17  C   UNL     1      -0.933  10.888  22.171  0.00  0.00    +0.000 A 
ATOM     18  C   UNL     1       0.019   9.994  22.679  0.00  0.00    +0.000 A 
ATOM     19  C   UNL     1       0.828   9.241  21.814  0.00  0.00    +0.000 A 
BRANCH  17  20
ATOM     20  C   UNL     1      -1.768  11.655  23.055  0.00  0.00    +0.000 C 
ATOM     21  N   UNL     1      -2.435  12.284  23.761  0.00  0.00    +0.000 NA
ENDBRANCH  17  20
ENDBRANCH  10  14
BRANCH   5  22
ATOM     22  C   UNL     1       4.171   4.100  16.785  0.00  0.00    +0.000 C 
BRANCH  22  23
ATOM     23  C   UNL     1       5.598   3.793  16.379  0.00  0.00    +0.000 C 
ATOM     24  C   UNL     1       6.033   3.906  14.933  0.00  0.00    +0.000 C 
ATOM     25  C   UNL     1       6.549   4.885  15.947  0.00  0.00    +0.000 C 
ENDBRANCH  22  23
BRANCH  22  26
ATOM     26  C   UNL     1       3.730   3.144  17.879  0.00  0.00    +0.000 C 
ATOM     27  C   UNL     1       2.612   2.167  17.597  0.00  0.00    +0.000 C 
ATOM     28  C   UNL     1       4.007   1.660  17.820  0.00  0.00    +0.000 C 
ENDBRANCH  22  26
ENDBRANCH   5  22
TORSDOF 5
ENDMDL
MODEL 2
REMARK VINA RESULT:      -7.7      4.026      9.840
REMARK  Name = 
REMARK  7 active torsions:
REMARK  status: ('A' for Active; 'I' for Inactive)
REMARK    1  A    between atoms: C_1  and  C_2
REMARK    2  A    between atoms: N_5  and  C_6
REMARK    3  A    between atoms: C_6  and  C_7
REMARK    4  A    between atoms: C_6  and  C_10
REMARK    5  A    between atoms: C_15  and  C_16
REMARK    6  A    between atoms: N_17  and  C_18
REMARK    7  A    between atoms: C_21  and  C_22
REMARK                            x       y       z     vdW  Elec       q    Type
REMARK                         _______ _______ _______ _____ _____    ______ ____
ROOT
ATOM      1  C   UNL     1      -3.451   9.687  15.551  0.00  0.00    +0.000 C 
ATOM      2  C   UNL     1      -2.975  10.284  16.842  0.00  0.00    +0.000 A 
ATOM      3  N   UNL     1      -3.822  11.156  17.440  0.00  0.00    +0.000 NA
ATOM      4  C   UNL     1      -3.463  11.728  18.611  0.00  0.00    +0.000 A 
ATOM      5  N   UNL     1      -4.234  12.697  19.224  0.00  0.00    +0.000 N 
ATOM      6  C   UNL     1      -2.225  11.346  19.168  0.00  0.00    +0.000 A 
ATOM      7  N   UNL     1      -1.640  11.715  20.349  0.00  0.00    +0.000 NA
ATOM      8  C   UNL     1      -0.506  11.045  20.410  0.00  0.00    +0.000 A 
ATOM      9  C   UNL     1       0.470  11.271  21.511  0.00  0.00    +0.000 C 
ATOM     10  N   UNL     1      -0.318  10.225  19.286  0.00  0.00    +0.000 N 
ATOM     11  C   UNL     1      -1.435  10.448  18.471  0.00  0.00    +0.000 A 
ATOM     12  N   UNL     1      -1.759   9.882  17.289  0.00  0.00    +0.000 NA
ATOM     13  H   UNL     1      -3.842  12.998  20.111  0.00  0.00    +0.000 HD
ENDROOT
BRANCH  10  14
ATOM     14  C   UNL     1       0.780   9.339  19.014  0.00  0.00    +0.000 A 
ATOM     15  C   UNL     1       1.521   9.451  17.828  0.00  0.00    +0.000 A 
ATOM     16  C   UNL     1       2.581   8.575  17.548  0.00  0.00    +0.000 A 
ATOM     17  C   UNL     1       2.927   7.573  18.455  0.00  0.00    +0.000 A 
ATOM     18  C   UNL     1       2.203   7.464  19.651  0.00  0.00    +0.000 A 
ATOM     19  C   UNL     1       1.148   8.345  19.932  0.00  0.00    +0.000 A 
BRANCH  17  20
ATOM     20  C   UNL     1       4.013   6.676  18.168  0.00  0.00    +0.000 C 
ATOM     21  N   UNL     1       4.878   5.944  17.937  0.00  0.00    +0.000 NA
ENDBRANCH  17  20
ENDBRANCH  10  14
BRANCH   5  22
ATOM     22  C   UNL     1      -5.680  12.706  19.134  0.00  0.00    +0.000 C 
BRANCH  22  23
ATOM     23  C   UNL     1      -6.269  13.207  20.437  0.00  0.00    +0.000 C 
ATOM     24  C   UNL     1      -7.143  12.309  21.288  0.00  0.00    +0.000 C 
ATOM     25  C   UNL     1      -5.778  12.701  21.773  0.00  0.00    +0.000 C 
ENDBRANCH  22  23
BRANCH  22  26
ATOM     26  C   UNL     1      -6.008  13.678  18.015  0.00  0.00    +0.000 C 
ATOM     27  C   UNL     1      -6.944  13.241  16.911  0.00  0.00    +0.000 C 
ATOM     28  C   UNL     1      -7.369  14.317  17.867  0.00  0.00    +0.000 C 
ENDBRANCH  22  26
ENDBRANCH   5  22
TORSDOF 5
ENDMDL
MODEL 3
REMARK VINA RESULT:      -7.4      3.878      9.864
REMARK  Name = 
REMARK  7 active torsions:
REMARK  status: ('A' for Active; 'I' for Inactive)
REMARK    1  A    between atoms: C_1  and  C_2
REMARK    2  A    between atoms: N_5  and  C_6
REMARK    3  A    between atoms: C_6  and  C_7
REMARK    4  A    between atoms: C_6  and  C_10
REMARK    5  A    between atoms: C_15  and  C_16
REMARK    6  A    between atoms: N_17  and  C_18
REMARK    7  A    between atoms: C_21  and  C_22
REMARK                            x       y       z     vdW  Elec       q    Type
REMARK                         _______ _______ _______ _____ _____    ______ ____
ROOT
ATOM      1  C   UNL     1      -3.137  10.357  15.571  0.00  0.00    +0.000 C 
ATOM      2  C   UNL     1      -2.693  10.731  16.954  0.00  0.00    +0.000 A 
ATOM      3  N   UNL     1      -3.509  11.576  17.630  0.00  0.00    +0.000 NA
ATOM      4  C   UNL     1      -3.176  11.953  18.885  0.00  0.00    +0.000 A 
ATOM      5  N   UNL     1      -3.910  12.885  19.592  0.00  0.00    +0.000 N 
ATOM      6  C   UNL     1      -2.002  11.403  19.438  0.00  0.00    +0.000 A 
ATOM      7  N   UNL     1      -1.459  11.560  20.685  0.00  0.00    +0.000 NA
ATOM      8  C   UNL     1      -0.380  10.802  20.702  0.00  0.00    +0.000 A 
ATOM      9  C   UNL     1       0.547  10.798  21.867  0.00  0.00    +0.000 C 
ATOM     10  N   UNL     1      -0.187  10.132  19.483  0.00  0.00    +0.000 N 
ATOM     11  C   UNL     1      -1.240  10.551  18.658  0.00  0.00    +0.000 A 
ATOM     12  N   UNL     1      -1.536  10.179  17.395  0.00  0.00    +0.000 NA
ATOM     13  H   UNL     1      -3.548  13.031  20.530  0.00  0.00    +0.000 HD
ENDROOT
BRANCH  10  14
ATOM     14  C   UNL     1       0.858   9.209  19.139  0.00  0.00    +0.000 A 
ATOM     15  C   UNL     1       1.248   8.196  20.027  0.00  0.00    +0.000 A 
ATOM     16  C   UNL     1       2.283   7.305  19.704  0.00  0.00    +0.000 A 
ATOM     17  C   UNL     1       2.943   7.404  18.478  0.00  0.00    +0.000 A 
ATOM     18  C   UNL     1       2.548   8.402  17.577  0.00  0.00    +0.000 A 
ATOM     19  C   UNL     1       1.509   9.289  17.899  0.00  0.00    +0.000 A 
BRANCH  17  20
ATOM     20  C   UNL     1       4.002   6.490  18.148  0.00  0.00    +0.000 C 
ATOM     21  N   UNL     1       4.863   5.760  17.892  0.00  0.00    +0.000 NA
ENDBRANCH  17  20
ENDBRANCH  10  14
BRANCH   5  22
ATOM     22  C   UNL     1      -5.345  13.019  19.440  0.00  0.00    +0.000 C 
BRANCH  22  23
ATOM     23  C   UNL     1      -6.041  11.854  20.111  0.00  0.00    +0.000 C 
ATOM     24  C   UNL     1      -7.493  11.543  19.812  0.00  0.00    +0.000 C 
ATOM     25  C   UNL     1      -6.416  10.608  19.342  0.00  0.00    +0.000 C 
ENDBRANCH  22  23
BRANCH  22  26
ATOM     26  C   UNL     1      -5.707  14.312  20.149  0.00  0.00    +0.000 C 
ATOM     27  C   UNL     1      -6.187  15.490  19.333  0.00  0.00    +0.000 C 
ATOM     28  C   UNL     1      -7.131  14.799  20.272  0.00  0.00    +0.000 C 
ENDBRANCH  22  26
ENDBRANCH   5  22
TORSDOF 5
ENDMDL
MODEL 4
REMARK VINA RESULT:      -7.4      2.606      9.828
REMARK  Name = 
REMARK  7 active torsions:
REMARK  status: ('A' for Active; 'I' for Inactive)
REMARK    1  A    between atoms: C_1  and  C_2
REMARK    2  A    between atoms: N_5  and  C_6
REMARK    3  A    between atoms: C_6  and  C_7
REMARK    4  A    between atoms: C_6  and  C_10
REMARK    5  A    between atoms: C_15  and  C_16
REMARK    6  A    between atoms: N_17  and  C_18
REMARK    7  A    between atoms: C_21  and  C_22
REMARK                            x       y       z     vdW  Elec       q    Type
REMARK                         _______ _______ _______ _____ _____    ______ ____
ROOT
ATOM      1  C   UNL     1      -2.445  11.423  17.178  0.00  0.00    +0.000 C 
ATOM      2  C   UNL     1      -1.794  11.323  18.526  0.00  0.00    +0.000 A 
ATOM      3  N   UNL     1      -2.302  12.127  19.491  0.00  0.00    +0.000 NA
ATOM      4  C   UNL     1      -1.769  12.086  20.732  0.00  0.00    +0.000 A 
ATOM      5  N   UNL     1      -2.173  12.946  21.735  0.00  0.00    +0.000 N 
ATOM      6  C   UNL     1      -0.727  11.165  20.962  0.00  0.00    +0.000 A 
ATOM      7  N   UNL     1      -0.049  10.873  22.114  0.00  0.00    +0.000 NA
ATOM      8  C   UNL     1       0.799   9.913  21.796  0.00  0.00    +0.000 A 
ATOM      9  C   UNL     1       1.798   9.405  22.775  0.00  0.00    +0.000 C 
ATOM     10  N   UNL     1       0.701   9.552  20.443  0.00  0.00    +0.000 N 
ATOM     11  C   UNL     1      -0.282  10.392  19.904  0.00  0.00    +0.000 A 
ATOM     12  N   UNL     1      -0.780  10.432  18.649  0.00  0.00    +0.000 NA
ATOM     13  H   UNL     1      -1.701  12.762  22.616  0.00  0.00    +0.000 HD
ENDROOT
BRANCH  10  14
ATOM     14  C   UNL     1       1.441   8.539  19.744  0.00  0.00    +0.000 A 
ATOM     15  C   UNL     1       1.644   7.272  20.312  0.00  0.00    +0.000 A 
ATOM     16  C   UNL     1       2.384   6.286  19.643  0.00  0.00    +0.000 A 
ATOM     17  C   UNL     1       2.928   6.543  18.384  0.00  0.00    +0.000 A 
ATOM     18  C   UNL     1       2.715   7.800  17.801  0.00  0.00    +0.000 A 
ATOM     19  C   UNL     1       1.970   8.783  18.469  0.00  0.00    +0.000 A 
BRANCH  17  20
ATOM     20  C   UNL     1       3.685   5.532  17.699  0.00  0.00    +0.000 C 
ATOM     21  N   UNL     1       4.300   4.714  17.159  0.00  0.00    +0.000 NA
ENDBRANCH  17  20
ENDBRANCH  10  14
BRANCH   5  22
ATOM     22  C   UNL     1      -3.535  13.432  21.837  0.00  0.00    +0.000 C 
BRANCH  22  23
ATOM     23  C   UNL     1      -3.924  13.559  23.296  0.00  0.00    +0.000 C 
ATOM     24  C   UNL     1      -5.207  12.941  23.811  0.00  0.00    +0.000 C 
ATOM     25  C   UNL     1      -3.883  12.372  24.231  0.00  0.00    +0.000 C 
ENDBRANCH  22  23
BRANCH  22  26
ATOM     26  C   UNL     1      -3.523  14.804  21.187  0.00  0.00    +0.000 C 
ATOM     27  C   UNL     1      -4.789  15.329  20.551  0.00  0.00    +0.000 C 
ATOM     28  C   UNL     1      -4.243  15.991  21.782  0.00  0.00    +0.000 C 
ENDBRANCH  22  26
ENDBRANCH   5  22
TORSDOF 5
ENDMDL
MODEL 5
REMARK VINA RESULT:      -7.4      5.251      9.339
REMARK  Name = 
REMARK  7 active torsions:
REMARK  status: ('A' for Active; 'I' for Inactive)
REMARK    1  A    between atoms: C_1  and  C_2
REMARK    2  A    between atoms: N_5  and  C_6
REMARK    3  A    between atoms: C_6  and  C_7
REMARK    4  A    between atoms: C_6  and  C_10
REMARK    5  A    between atoms: C_15  and  C_16
REMARK    6  A    between atoms: N_17  and  C_18
REMARK    7  A    between atoms: C_21  and  C_22
REMARK                            x       y       z     vdW  Elec       q    Type
REMARK                         _______ _______ _______ _____ _____    ______ ____
ROOT
ATOM      1  C   UNL     1       1.814   9.746  18.244  0.00  0.00    +0.000 C 
ATOM      2  C   UNL     1       1.381  11.169  18.440  0.00  0.00    +0.000 A 
ATOM      3  N   UNL     1       0.045  11.377  18.520  0.00  0.00    +0.000 NA
ATOM      4  C   UNL     1      -0.418  12.633  18.703  0.00  0.00    +0.000 A 
ATOM      5  N   UNL     1      -1.768  12.928  18.697  0.00  0.00    +0.000 N 
ATOM      6  C   UNL     1       0.534  13.663  18.842  0.00  0.00    +0.000 A 
ATOM      7  N   UNL     1       0.358  14.998  19.088  0.00  0.00    +0.000 NA
ATOM      8  C   UNL     1       1.571  15.510  19.163  0.00  0.00    +0.000 A 
ATOM      9  C   UNL     1       1.786  16.976  19.311  0.00  0.00    +0.000 C 
ATOM     10  N   UNL     1       2.566  14.538  18.973  0.00  0.00    +0.000 N 
ATOM     11  C   UNL     1       1.876  13.340  18.741  0.00  0.00    +0.000 A 
ATOM     12  N   UNL     1       2.364  12.099  18.534  0.00  0.00    +0.000 NA
ATOM     13  H   UNL     1      -1.950  13.910  18.882  0.00  0.00    +0.000 HD
ENDROOT
BRANCH  10  14
ATOM     14  C   UNL     1       3.990  14.715  19.008  0.00  0.00    +0.000 A 
ATOM     15  C   UNL     1       4.746  14.722  17.826  0.00  0.00    +0.000 A 
ATOM     16  C   UNL     1       6.141  14.873  17.856  0.00  0.00    +0.000 A 
ATOM     17  C   UNL     1       6.808  15.032  19.071  0.00  0.00    +0.000 A 
ATOM     18  C   UNL     1       6.059  15.044  20.256  0.00  0.00    +0.000 A 
ATOM     19  C   UNL     1       4.664  14.898  20.224  0.00  0.00    +0.000 A 
BRANCH  17  20
ATOM     20  C   UNL     1       8.237  15.188  19.101  0.00  0.00    +0.000 C 
ATOM     21  N   UNL     1       9.387  15.309  19.112  0.00  0.00    +0.000 NA
ENDBRANCH  17  20
ENDBRANCH  10  14
BRANCH   5  22
ATOM     22  C   UNL     1      -2.767  11.997  19.181  0.00  0.00    +0.000 C 
BRANCH  22  23
ATOM     23  C   UNL     1      -3.742  12.719  20.089  0.00  0.00    +0.000 C 
ATOM     24  C   UNL     1      -3.611  12.628  21.595  0.00  0.00    +0.000 C 
ATOM     25  C   UNL     1      -3.324  13.925  20.897  0.00  0.00    +0.000 C 
ENDBRANCH  22  23
BRANCH  22  26
ATOM     26  C   UNL     1      -3.490  11.500  17.942  0.00  0.00    +0.000 C 
ATOM     27  C   UNL     1      -3.539  10.016  17.664  0.00  0.00    +0.000 C 
ATOM     28  C   UNL     1      -4.800  10.751  18.012  0.00  0.00    +0.000 C 
ENDBRANCH  22  26
ENDBRANCH   5  22
TORSDOF 5
ENDMDL
MODEL 6
REMARK VINA RESULT:      -7.3      4.135     10.201
REMARK  Name = 
REMARK  7 active torsions:
REMARK  status: ('A' for Active; 'I' for Inactive)
REMARK    1  A    between atoms: C_1  and  C_2
REMARK    2  A    between atoms: N_5  and  C_6
REMARK    3  A    between atoms: C_6  and  C_7
REMARK    4  A    between atoms: C_6  and  C_10
REMARK    5  A    between atoms: C_15  and  C_16
REMARK    6  A    between atoms: N_17  and  C_18
REMARK    7  A    between atoms: C_21  and  C_22
REMARK                            x       y       z     vdW  Elec       q    Type
REMARK                         _______ _______ _______ _____ _____    ______ ____
ROOT
ATOM      1  C   UNL     1      -3.900  10.302  15.808  0.00  0.00    +0.000 C 
ATOM      2  C   UNL     1      -3.386  10.837  17.113  0.00  0.00    +0.000 A 
ATOM      3  N   UNL     1      -4.195  11.715  17.752  0.00  0.00    +0.000 NA
ATOM      4  C   UNL     1      -3.800  12.234  18.937  0.00  0.00    +0.000 A 
ATOM      5  N   UNL     1      -4.530  13.207  19.594  0.00  0.00    +0.000 N 
ATOM      6  C   UNL     1      -2.569  11.792  19.462  0.00  0.00    +0.000 A 
ATOM      7  N   UNL     1      -1.956  12.100  20.646  0.00  0.00    +0.000 NA
ATOM      8  C   UNL     1      -0.844  11.390  20.667  0.00  0.00    +0.000 A 
ATOM      9  C   UNL     1       0.154  11.544  21.761  0.00  0.00    +0.000 C 
ATOM     10  N   UNL     1      -0.699  10.604  19.513  0.00  0.00    +0.000 N 
ATOM     11  C   UNL     1      -1.820  10.893  18.723  0.00  0.00    +0.000 A 
ATOM     12  N   UNL     1      -2.179  10.379  17.527  0.00  0.00    +0.000 NA
ATOM     13  H   UNL     1      -4.116  13.464  20.485  0.00  0.00    +0.000 HD
ENDROOT
BRANCH  10  14
ATOM     14  C   UNL     1       0.363   9.692  19.195  0.00  0.00    +0.000 A 
ATOM     15  C   UNL     1       0.809   8.747  20.131  0.00  0.00    +0.000 A 
ATOM     16  C   UNL     1       1.860   7.868  19.832  0.00  0.00    +0.000 A 
ATOM     17  C   UNL     1       2.482   7.909  18.583  0.00  0.00    +0.000 A 
ATOM     18  C   UNL     1       2.032   8.838  17.635  0.00  0.00    +0.000 A 
ATOM     19  C   UNL     1       0.976   9.712  17.933  0.00  0.00    +0.000 A 
BRANCH  17  20
ATOM     20  C   UNL     1       3.559   7.007  18.277  0.00  0.00    +0.000 C 
ATOM     21  N   UNL     1       4.426   6.277  18.044  0.00  0.00    +0.000 NA
ENDBRANCH  17  20
ENDBRANCH  10  14
BRANCH   5  22
ATOM     22  C   UNL     1      -5.976  13.268  19.526  0.00  0.00    +0.000 C 
BRANCH  22  23
ATOM     23  C   UNL     1      -6.546  13.439  20.919  0.00  0.00    +0.000 C 
ATOM     24  C   UNL     1      -7.253  12.293  21.613  0.00  0.00    +0.000 C 
ATOM     25  C   UNL     1      -5.920  12.765  22.118  0.00  0.00    +0.000 C 
ENDBRANCH  22  23
BRANCH  22  26
ATOM     26  C   UNL     1      -6.288  14.495  18.688  0.00  0.00    +0.000 C 
ATOM     27  C   UNL     1      -7.026  14.325  17.380  0.00  0.00    +0.000 C 
ATOM     28  C   UNL     1      -7.691  15.031  18.525  0.00  0.00    +0.000 C 
ENDBRANCH  22  26
ENDBRANCH   5  22
TORSDOF 5
ENDMDL
MODEL 7
REMARK VINA RESULT:      -7.3      4.188     10.072
REMARK  Name = 
REMARK  7 active torsions:
REMARK  status: ('A' for Active; 'I' for Inactive)
REMARK    1  A    between atoms: C_1  and  C_2
REMARK    2  A    between atoms: N_5  and  C_6
REMARK    3  A    between atoms: C_6  and  C_7
REMARK    4  A    between atoms: C_6  and  C_10
REMARK    5  A    between atoms: C_15  and  C_16
REMARK    6  A    between atoms: N_17  and  C_18
REMARK    7  A    between atoms: C_21  and  C_22
REMARK                            x       y       z     vdW  Elec       q    Type
REMARK                         _______ _______ _______ _____ _____    ______ ____
ROOT
ATOM      1  C   UNL     1       2.877  14.276  21.434  0.00  0.00    +0.000 C 
ATOM      2  C   UNL     1       1.626  13.784  20.768  0.00  0.00    +0.000 A 
ATOM      3  N   UNL     1       0.647  14.704  20.593  0.00  0.00    +0.000 NA
ATOM      4  C   UNL     1      -0.507  14.335  19.994  0.00  0.00    +0.000 A 
ATOM      5  N   UNL     1      -1.581  15.195  19.871  0.00  0.00    +0.000 N 
ATOM      6  C   UNL     1      -0.608  13.002  19.544  0.00  0.00    +0.000 A 
ATOM      7  N   UNL     1      -1.619  12.376  18.867  0.00  0.00    +0.000 NA
ATOM      8  C   UNL     1      -1.197  11.145  18.655  0.00  0.00    +0.000 A 
ATOM      9  C   UNL     1      -2.079  10.118  18.035  0.00  0.00    +0.000 C 
ATOM     10  N   UNL     1       0.088  10.931  19.179  0.00  0.00    +0.000 N 
ATOM     11  C   UNL     1       0.452  12.144  19.777  0.00  0.00    +0.000 A 
ATOM     12  N   UNL     1       1.604  12.481  20.395  0.00  0.00    +0.000 NA
ATOM     13  H   UNL     1      -2.357  14.775  19.367  0.00  0.00    +0.000 HD
ENDROOT
BRANCH  10  14
ATOM     14  C   UNL     1       0.876   9.732  19.120  0.00  0.00    +0.000 A 
ATOM     15  C   UNL     1       1.030   8.913  20.249  0.00  0.00    +0.000 A 
ATOM     16  C   UNL     1       1.816   7.751  20.203  0.00  0.00    +0.000 A 
ATOM     17  C   UNL     1       2.457   7.379  19.021  0.00  0.00    +0.000 A 
ATOM     18  C   UNL     1       2.295   8.181  17.883  0.00  0.00    +0.000 A 
ATOM     19  C   UNL     1       1.504   9.339  17.929  0.00  0.00    +0.000 A 
BRANCH  17  20
ATOM     20  C   UNL     1       3.261   6.189  18.975  0.00  0.00    +0.000 C 
ATOM     21  N   UNL     1       3.919   5.238  18.931  0.00  0.00    +0.000 NA
ENDBRANCH  17  20
ENDBRANCH  10  14
BRANCH   5  22
ATOM     22  C   UNL     1      -1.413  16.624  19.699  0.00  0.00    +0.000 C 
BRANCH  22  23
ATOM     23  C   UNL     1      -0.991  17.251  21.011  0.00  0.00    +0.000 C 
ATOM     24  C   UNL     1      -1.806  18.364  21.636  0.00  0.00    +0.000 C 
ATOM     25  C   UNL     1      -1.764  17.012  22.287  0.00  0.00    +0.000 C 
ENDBRANCH  22  23
BRANCH  22  26
ATOM     26  C   UNL     1      -0.304  16.779  18.674  0.00  0.00    +0.000 C 
ATOM     27  C   UNL     1      -0.509  17.709  17.501  0.00  0.00    +0.000 C 
ATOM     28  C   UNL     1       0.514  18.043  18.547  0.00  0.00    +0.000 C 
ENDBRANCH  22  26
ENDBRANCH   5  22
TORSDOF 5
ENDMDL
MODEL 8
REMARK VINA RESULT:      -7.2      2.677      9.747
REMARK  Name = 
REMARK  7 active torsions:
REMARK  status: ('A' for Active; 'I' for Inactive)
REMARK    1  A    between atoms: C_1  and  C_2
REMARK    2  A    between atoms: N_5  and  C_6
REMARK    3  A    between atoms: C_6  and  C_7
REMARK    4  A    between atoms: C_6  and  C_10
REMARK    5  A    between atoms: C_15  and  C_16
REMARK    6  A    between atoms: N_17  and  C_18
REMARK    7  A    between atoms: C_21  and  C_22
REMARK                            x       y       z     vdW  Elec       q    Type
REMARK                         _______ _______ _______ _____ _____    ______ ____
ROOT
ATOM      1  C   UNL     1      -2.679  11.176  17.061  0.00  0.00    +0.000 C 
ATOM      2  C   UNL     1      -2.028  11.126  18.411  0.00  0.00    +0.000 A 
ATOM      3  N   UNL     1      -2.622  11.858  19.384  0.00  0.00    +0.000 NA
ATOM      4  C   UNL     1      -2.094  11.856  20.628  0.00  0.00    +0.000 A 
ATOM      5  N   UNL     1      -2.592  12.655  21.640  0.00  0.00    +0.000 N 
ATOM      6  C   UNL     1      -0.962  11.047  20.852  0.00  0.00    +0.000 A 
ATOM      7  N   UNL     1      -0.263  10.811  22.005  0.00  0.00    +0.000 NA
ATOM      8  C   UNL     1       0.683   9.951  21.679  0.00  0.00    +0.000 A 
ATOM      9  C   UNL     1       1.725   9.536  22.657  0.00  0.00    +0.000 C 
ATOM     10  N   UNL     1       0.630   9.601  20.320  0.00  0.00    +0.000 N 
ATOM     11  C   UNL     1      -0.433  10.340  19.786  0.00  0.00    +0.000 A 
ATOM     12  N   UNL     1      -0.926  10.345  18.529  0.00  0.00    +0.000 NA
ATOM     13  H   UNL     1      -2.107  12.509  22.521  0.00  0.00    +0.000 HD
ENDROOT
BRANCH  10  14
ATOM     14  C   UNL     1       1.476   8.681  19.613  0.00  0.00    +0.000 A 
ATOM     15  C   UNL     1       2.034   9.021  18.372  0.00  0.00    +0.000 A 
ATOM     16  C   UNL     1       2.844   8.117  17.667  0.00  0.00    +0.000 A 
ATOM     17  C   UNL     1       3.122   6.857  18.196  0.00  0.00    +0.000 A 
ATOM     18  C   UNL     1       2.583   6.514  19.444  0.00  0.00    +0.000 A 
ATOM     19  C   UNL     1       1.778   7.421  20.150  0.00  0.00    +0.000 A 
BRANCH  17  20
ATOM     20  C   UNL     1       3.952   5.932  17.474  0.00  0.00    +0.000 C 
ATOM     21  N   UNL     1       4.610   5.183  16.886  0.00  0.00    +0.000 NA
ENDBRANCH  17  20
ENDBRANCH  10  14
BRANCH   5  22
ATOM     22  C   UNL     1      -3.997  12.994  21.740  0.00  0.00    +0.000 C 
BRANCH  22  23
ATOM     23  C   UNL     1      -4.315  13.446  23.150  0.00  0.00    +0.000 C 
ATOM     24  C   UNL     1      -5.238  12.633  24.034  0.00  0.00    +0.000 C 
ATOM     25  C   UNL     1      -3.774  12.714  24.356  0.00  0.00    +0.000 C 
ENDBRANCH  22  23
BRANCH  22  26
ATOM     26  C   UNL     1      -4.204  14.144  20.771  0.00  0.00    +0.000 C 
ATOM     27  C   UNL     1      -5.556  14.326  20.121  0.00  0.00    +0.000 C 
ATOM     28  C   UNL     1      -5.059  15.344  21.106  0.00  0.00    +0.000 C 
ENDBRANCH  22  26
ENDBRANCH   5  22
TORSDOF 5
ENDMDL
MODEL 9
REMARK VINA RESULT:      -7.1      2.323      7.992
REMARK  Name = 
REMARK  7 active torsions:
REMARK  status: ('A' for Active; 'I' for Inactive)
REMARK    1  A    between atoms: C_1  and  C_2
REMARK    2  A    between atoms: N_5  and  C_6
REMARK    3  A    between atoms: C_6  and  C_7
REMARK    4  A    between atoms: C_6  and  C_10
REMARK    5  A    between atoms: C_15  and  C_16
REMARK    6  A    between atoms: N_17  and  C_18
REMARK    7  A    between atoms: C_21  and  C_22
REMARK                            x       y       z     vdW  Elec       q    Type
REMARK                         _______ _______ _______ _____ _____    ______ ____
ROOT
ATOM      1  C   UNL     1       0.019   8.575  22.432  0.00  0.00    +0.000 C 
ATOM      2  C   UNL     1       0.668   8.702  21.085  0.00  0.00    +0.000 A 
ATOM      3  N   UNL     1       0.460   9.873  20.436  0.00  0.00    +0.000 NA
ATOM      4  C   UNL     1       1.019  10.061  19.219  0.00  0.00    +0.000 A 
ATOM      5  N   UNL     1       0.770  11.190  18.461  0.00  0.00    +0.000 N 
ATOM      6  C   UNL     1       1.830   9.027  18.709  0.00  0.00    +0.000 A 
ATOM      7  N   UNL     1       2.553   8.966  17.549  0.00  0.00    +0.000 NA
ATOM      8  C   UNL     1       3.162   7.796  17.569  0.00  0.00    +0.000 A 
ATOM      9  C   UNL     1       3.963   7.318  16.409  0.00  0.00    +0.000 C 
ATOM     10  N   UNL     1       2.861   7.066  18.730  0.00  0.00    +0.000 N 
ATOM     11  C   UNL     1       1.972   7.870  19.455  0.00  0.00    +0.000 A 
ATOM     12  N   UNL     1       1.405   7.646  20.660  0.00  0.00    +0.000 NA
ATOM     13  H   UNL     1       1.293  11.193  17.590  0.00  0.00    +0.000 HD
ENDROOT
BRANCH  10  14
ATOM     14  C   UNL     1       3.352   5.771  19.110  0.00  0.00    +0.000 A 
ATOM     15  C   UNL     1       2.470   4.736  19.454  0.00  0.00    +0.000 A 
ATOM     16  C   UNL     1       2.946   3.475  19.846  0.00  0.00    +0.000 A 
ATOM     17  C   UNL     1       4.317   3.221  19.891  0.00  0.00    +0.000 A 
ATOM     18  C   UNL     1       5.206   4.243  19.533  0.00  0.00    +0.000 A 
ATOM     19  C   UNL     1       4.729   5.502  19.135  0.00  0.00    +0.000 A 
BRANCH  17  20
ATOM     20  C   UNL     1       4.803   1.929  20.293  0.00  0.00    +0.000 C 
ATOM     21  N   UNL     1       5.184   0.884  20.610  0.00  0.00    +0.000 NA
ENDBRANCH  17  20
ENDBRANCH  10  14
BRANCH   5  22
ATOM     22  C   UNL     1       0.529  12.487  19.060  0.00  0.00    +0.000 C 
BRANCH  22  23
ATOM     23  C   UNL     1       1.344  13.541  18.341  0.00  0.00    +0.000 C 
ATOM     24  C   UNL     1       2.121  14.583  19.118  0.00  0.00    +0.000 C 
ATOM     25  C   UNL     1       2.855  13.519  18.356  0.00  0.00    +0.000 C 
ENDBRANCH  22  23
BRANCH  22  26
ATOM     26  C   UNL     1      -0.952  12.755  18.858  0.00  0.00    +0.000 C 
ATOM     27  C   UNL     1      -1.923  12.395  19.958  0.00  0.00    +0.000 C 
ATOM     28  C   UNL     1      -1.691  13.836  19.610  0.00  0.00    +0.000 C 
ENDBRANCH  22  26
ENDBRANCH   5  22
TORSDOF 5
ENDMDL
