MODEL 1
REMARK VINA RESULT:      -7.9      0.000      0.000
REMARK  Name = 
REMARK  5 active torsions:
REMARK  status: ('A' for Active; 'I' for Inactive)
REMARK    1  A    between atoms: C_2  and  O_3
REMARK    2  A    between atoms: C_2  and  C_4
REMARK    3  A    between atoms: C_8  and  N_9
REMARK    4  A    between atoms: C_13  and  C_14
REMARK    5  A    between atoms: C_19  and  C_20
REMARK                            x       y       z     vdW  Elec       q    Type
REMARK                         _______ _______ _______ _____ _____    ______ ____
ROOT
ATOM      1  N   UNL     1       4.322   3.615  18.244  0.00  0.00    +0.000 N 
ATOM      2  C   UNL     1       4.267   3.783  19.694  0.00  0.00    +0.000 C 
ATOM      3  C   UNL     1       2.900   4.402  19.977  0.00  0.00    +0.000 C 
ATOM      4  C   UNL     1       2.948   5.917  20.186  0.00  0.00    +0.000 C 
ATOM      5  C   UNL     1       1.695   6.449  19.480  0.00  0.00    +0.000 C 
ATOM      6  C   UNL     1       1.615   5.560  18.234  0.00  0.00    +0.000 C 
ATOM      7  C   UNL     1       2.056   4.171  18.711  0.00  0.00    +0.000 C 
ATOM      8  C   UNL     1       2.962   3.426  17.722  0.00  0.00    +0.000 C 
ENDROOT
BRANCH   1  13
ATOM      9  C   UNL     1       6.920   6.007  17.126  0.00  0.00    +0.000 A 
ATOM     10  C   UNL     1       7.159   5.587  15.815  0.00  0.00    +0.000 A 
ATOM     11  C   UNL     1       6.438   4.515  15.303  0.00  0.00    +0.000 A 
ATOM     12  C   UNL     1       5.489   3.864  16.100  0.00  0.00    +0.000 A 
ATOM     13  C   UNL     1       5.257   4.234  17.432  0.00  0.00    +0.000 A 
ATOM     14  C   UNL     1       6.000   5.315  17.929  0.00  0.00    +0.000 A 
BRANCH   9  16
ATOM     15  O   UNL     1       7.677   8.263  17.177  0.00  0.00    +0.000 OA
ATOM     16  C   UNL     1       7.635   7.167  17.712  0.00  0.00    +0.000 C 
BRANCH  16  17
ATOM     17  O   UNL     1       8.268   6.886  18.872  0.00  0.00    +0.000 OA
ATOM     18  H   UNL     1       8.800   7.617  19.237  0.00  0.00    +0.000 HD
ENDBRANCH  16  17
ENDBRANCH   9  16
ENDBRANCH   1  13
BRANCH   5  19
ATOM     19  C   UNL     1       1.668   7.934  19.155  0.00  0.00    +0.000 A 
ATOM     20  C   UNL     1       2.175   8.389  17.918  0.00  0.00    +0.000 A 
ATOM     21  C   UNL     1       2.222   9.744  17.587  0.00  0.00    +0.000 A 
ATOM     22  C   UNL     1       1.737  10.687  18.475  0.00  0.00    +0.000 A 
ATOM     23  C   UNL     1       1.183  10.268  19.681  0.00  0.00    +0.000 A 
ATOM     24  C   UNL     1       1.123   8.898  20.038  0.00  0.00    +0.000 A 
BRANCH  24  25
ATOM     25  C   UNL     1       0.458   8.604  21.370  0.00  0.00    +0.000 C 
ATOM     26  F   UNL     1      -0.521   7.661  21.359  0.00  0.00    +0.000 F 
ATOM     27  F   UNL     1       1.357   8.188  22.308  0.00  0.00    +0.000 F 
ATOM     28  F   UNL     1      -0.131   9.718  21.901  0.00  0.00    +0.000 F 
ENDBRANCH  24  25
ENDBRANCH   5  19
TORSDOF 5
ENDMDL
MODEL 2
REMARK VINA RESULT:      -7.6      2.060      2.605
REMARK  Name = 
REMARK  5 active torsions:
REMARK  status: ('A' for Active; 'I' for Inactive)
REMARK    1  A    between atoms: C_2  and  O_3
REMARK    2  A    between atoms: C_2  and  C_4
REMARK    3  A    between atoms: C_8  and  N_9
REMARK    4  A    between atoms: C_13  and  C_14
REMARK    5  A    between atoms: C_19  and  C_20
REMARK                            x       y       z     vdW  Elec       q    Type
REMARK                         _______ _______ _______ _____ _____    ______ ____
ROOT
ATOM      1  N   UNL     1       4.089   2.821  18.658  0.00  0.00    +0.000 N 
ATOM      2  C   UNL     1       4.041   2.676  20.111  0.00  0.00    +0.000 C 
ATOM      3  C   UNL     1       2.646   3.148  20.518  0.00  0.00    +0.000 C 
ATOM      4  C   UNL     1       2.619   4.584  21.043  0.00  0.00    +0.000 C 
ATOM      5  C   UNL     1       1.332   5.186  20.465  0.00  0.00    +0.000 C 
ATOM      6  C   UNL     1       1.284   4.578  19.060  0.00  0.00    +0.000 C 
ATOM      7  C   UNL     1       1.803   3.145  19.231  0.00  0.00    +0.000 C 
ATOM      8  C   UNL     1       2.735   2.675  18.107  0.00  0.00    +0.000 C 
ENDROOT
BRANCH   1  13
ATOM      9  C   UNL     1       6.804   5.280  18.108  0.00  0.00    +0.000 A 
ATOM     10  C   UNL     1       6.814   5.398  16.716  0.00  0.00    +0.000 A 
ATOM     11  C   UNL     1       5.901   4.666  15.966  0.00  0.00    +0.000 A 
ATOM     12  C   UNL     1       4.988   3.818  16.605  0.00  0.00    +0.000 A 
ATOM     13  C   UNL     1       4.981   3.647  17.996  0.00  0.00    +0.000 A 
ATOM     14  C   UNL     1       5.916   4.390  18.732  0.00  0.00    +0.000 A 
BRANCH   9  16
ATOM     15  O   UNL     1       8.264   7.098  18.590  0.00  0.00    +0.000 OA
ATOM     16  C   UNL     1       7.733   6.063  18.960  0.00  0.00    +0.000 C 
BRANCH  16  17
ATOM     17  O   UNL     1       7.966   5.503  20.167  0.00  0.00    +0.000 OA
ATOM     18  H   UNL     1       8.799   5.001  20.233  0.00  0.00    +0.000 HD
ENDBRANCH  16  17
ENDBRANCH   9  16
ENDBRANCH   1  13
BRANCH   5  19
ATOM     19  C   UNL     1       1.224   6.703  20.461  0.00  0.00    +0.000 A 
ATOM     20  C   UNL     1       0.387   7.348  21.398  0.00  0.00    +0.000 A 
ATOM     21  C   UNL     1       0.209   8.731  21.408  0.00  0.00    +0.000 A 
ATOM     22  C   UNL     1       0.887   9.520  20.494  0.00  0.00    +0.000 A 
ATOM     23  C   UNL     1       1.759   8.919  19.591  0.00  0.00    +0.000 A 
ATOM     24  C   UNL     1       1.956   7.516  19.562  0.00  0.00    +0.000 A 
BRANCH  24  25
ATOM     25  C   UNL     1       2.966   7.024  18.542  0.00  0.00    +0.000 C 
ATOM     26  F   UNL     1       2.516   6.104  17.647  0.00  0.00    +0.000 F 
ATOM     27  F   UNL     1       3.474   8.045  17.795  0.00  0.00    +0.000 F 
ATOM     28  F   UNL     1       4.047   6.438  19.138  0.00  0.00    +0.000 F 
ENDBRANCH  24  25
ENDBRANCH   5  19
TORSDOF 5
ENDMDL
MODEL 3
REMARK VINA RESULT:      -7.5      2.120      2.584
REMARK  Name = 
REMARK  5 active torsions:
REMARK  status: ('A' for Active; 'I' for Inactive)
REMARK    1  A    between atoms: C_2  and  O_3
REMARK    2  A    between atoms: C_2  and  C_4
REMARK    3  A    between atoms: C_8  and  N_9
REMARK    4  A    between atoms: C_13  and  C_14
REMARK    5  A    between atoms: C_19  and  C_20
REMARK                            x       y       z     vdW  Elec       q    Type
REMARK                         _______ _______ _______ _____ _____    ______ ____
ROOT
ATOM      1  N   UNL     1       4.533   3.418  17.781  0.00  0.00    +0.000 N 
ATOM      2  C   UNL     1       4.755   3.645  19.206  0.00  0.00    +0.000 C 
ATOM      3  C   UNL     1       3.450   4.245  19.727  0.00  0.00    +0.000 C 
ATOM      4  C   UNL     1       3.493   5.767  19.868  0.00  0.00    +0.000 C 
ATOM      5  C   UNL     1       2.111   6.241  19.401  0.00  0.00    +0.000 C 
ATOM      6  C   UNL     1       1.818   5.300  18.227  0.00  0.00    +0.000 C 
ATOM      7  C   UNL     1       2.385   3.942  18.659  0.00  0.00    +0.000 C 
ATOM      8  C   UNL     1       3.104   3.177  17.540  0.00  0.00    +0.000 C 
ENDROOT
BRANCH   1  13
ATOM      9  C   UNL     1       5.891   4.147  14.412  0.00  0.00    +0.000 A 
ATOM     10  C   UNL     1       6.788   5.184  14.677  0.00  0.00    +0.000 A 
ATOM     11  C   UNL     1       6.949   5.626  15.985  0.00  0.00    +0.000 A 
ATOM     12  C   UNL     1       6.212   5.037  17.020  0.00  0.00    +0.000 A 
ATOM     13  C   UNL     1       5.273   4.024  16.780  0.00  0.00    +0.000 A 
ATOM     14  C   UNL     1       5.124   3.599  15.452  0.00  0.00    +0.000 A 
BRANCH   9  16
ATOM     15  O   UNL     1       4.650   3.689  12.433  0.00  0.00    +0.000 OA
ATOM     16  C   UNL     1       5.706   3.612  13.041  0.00  0.00    +0.000 C 
BRANCH  16  17
ATOM     17  O   UNL     1       6.801   2.996  12.544  0.00  0.00    +0.000 OA
ATOM     18  H   UNL     1       6.618   2.221  11.983  0.00  0.00    +0.000 HD
ENDBRANCH  16  17
ENDBRANCH   9  16
ENDBRANCH   1  13
BRANCH   5  19
ATOM     19  C   UNL     1       1.977   7.710  19.033  0.00  0.00    +0.000 A 
ATOM     20  C   UNL     1       2.476   8.171  17.794  0.00  0.00    +0.000 A 
ATOM     21  C   UNL     1       2.426   9.516  17.426  0.00  0.00    +0.000 A 
ATOM     22  C   UNL     1       1.848  10.442  18.277  0.00  0.00    +0.000 A 
ATOM     23  C   UNL     1       1.301  10.013  19.482  0.00  0.00    +0.000 A 
ATOM     24  C   UNL     1       1.339   8.652  19.877  0.00  0.00    +0.000 A 
BRANCH  24  25
ATOM     25  C   UNL     1       0.668   8.343  21.203  0.00  0.00    +0.000 C 
ATOM     26  F   UNL     1      -0.135   7.247  21.229  0.00  0.00    +0.000 F 
ATOM     27  F   UNL     1       1.577   8.157  22.202  0.00  0.00    +0.000 F 
ATOM     28  F   UNL     1      -0.127   9.373  21.623  0.00  0.00    +0.000 F 
ENDBRANCH  24  25
ENDBRANCH   5  19
TORSDOF 5
ENDMDL
MODEL 4
REMARK VINA RESULT:      -7.4      1.544      2.022
REMARK  Name = 
REMARK  5 active torsions:
REMARK  status: ('A' for Active; 'I' for Inactive)
REMARK    1  A    between atoms: C_2  and  O_3
REMARK    2  A    between atoms: C_2  and  C_4
REMARK    3  A    between atoms: C_8  and  N_9
REMARK    4  A    between atoms: C_13  and  C_14
REMARK    5  A    between atoms: C_19  and  C_20
REMARK                            x       y       z     vdW  Elec       q    Type
REMARK                         _______ _______ _______ _____ _____    ______ ____
ROOT
ATOM      1  N   UNL     1       4.436   3.902  18.267  0.00  0.00    +0.000 N 
ATOM      2  C   UNL     1       4.213   3.976  19.709  0.00  0.00    +0.000 C 
ATOM      3  C   UNL     1       2.807   4.549  19.871  0.00  0.00    +0.000 C 
ATOM      4  C   UNL     1       2.791   6.048  20.178  0.00  0.00    +0.000 C 
ATOM      5  C   UNL     1       1.612   6.600  19.367  0.00  0.00    +0.000 C 
ATOM      6  C   UNL     1       1.696   5.792  18.068  0.00  0.00    +0.000 C 
ATOM      7  C   UNL     1       2.118   4.383  18.505  0.00  0.00    +0.000 C 
ATOM      8  C   UNL     1       3.149   3.721  17.583  0.00  0.00    +0.000 C 
ENDROOT
BRANCH   1  13
ATOM      9  C   UNL     1       6.718   4.968  15.552  0.00  0.00    +0.000 A 
ATOM     10  C   UNL     1       7.508   5.925  16.192  0.00  0.00    +0.000 A 
ATOM     11  C   UNL     1       7.286   6.199  17.537  0.00  0.00    +0.000 A 
ATOM     12  C   UNL     1       6.276   5.524  18.233  0.00  0.00    +0.000 A 
ATOM     13  C   UNL     1       5.439   4.590  17.607  0.00  0.00    +0.000 A 
ATOM     14  C   UNL     1       5.678   4.334  16.249  0.00  0.00    +0.000 A 
BRANCH   9  16
ATOM     15  O   UNL     1       7.540   5.324  13.346  0.00  0.00    +0.000 OA
ATOM     16  C   UNL     1       6.934   4.610  14.128  0.00  0.00    +0.000 C 
BRANCH  16  17
ATOM     17  O   UNL     1       6.362   3.440  13.769  0.00  0.00    +0.000 OA
ATOM     18  H   UNL     1       6.948   2.827  13.289  0.00  0.00    +0.000 HD
ENDBRANCH  16  17
ENDBRANCH   9  16
ENDBRANCH   1  13
BRANCH   5  19
ATOM     19  C   UNL     1       1.582   8.102  19.132  0.00  0.00    +0.000 A 
ATOM     20  C   UNL     1       2.047   8.628  17.906  0.00  0.00    +0.000 A 
ATOM     21  C   UNL     1       2.091  10.000  17.656  0.00  0.00    +0.000 A 
ATOM     22  C   UNL     1       1.644  10.891  18.616  0.00  0.00    +0.000 A 
ATOM     23  C   UNL     1       1.133  10.402  19.814  0.00  0.00    +0.000 A 
ATOM     24  C   UNL     1       1.077   9.013  20.092  0.00  0.00    +0.000 A 
BRANCH  24  25
ATOM     25  C   UNL     1       0.460   8.643  21.428  0.00  0.00    +0.000 C 
ATOM     26  F   UNL     1      -0.334   7.541  21.438  0.00  0.00    +0.000 F 
ATOM     27  F   UNL     1       1.408   8.422  22.382  0.00  0.00    +0.000 F 
ATOM     28  F   UNL     1      -0.324   9.648  21.921  0.00  0.00    +0.000 F 
ENDBRANCH  24  25
ENDBRANCH   5  19
TORSDOF 5
ENDMDL
MODEL 5
REMARK VINA RESULT:      -7.4      2.095      2.705
REMARK  Name = 
REMARK  5 active torsions:
REMARK  status: ('A' for Active; 'I' for Inactive)
REMARK    1  A    between atoms: C_2  and  O_3
REMARK    2  A    between atoms: C_2  and  C_4
REMARK    3  A    between atoms: C_8  and  N_9
REMARK    4  A    between atoms: C_13  and  C_14
REMARK    5  A    between atoms: C_19  and  C_20
REMARK                            x       y       z     vdW  Elec       q    Type
REMARK                         _______ _______ _______ _____ _____    ______ ____
ROOT
ATOM      1  N   UNL     1       3.793   2.679  18.781  0.00  0.00    +0.000 N 
ATOM      2  C   UNL     1       3.892   2.645  20.238  0.00  0.00    +0.000 C 
ATOM      3  C   UNL     1       2.552   3.173  20.746  0.00  0.00    +0.000 C 
ATOM      4  C   UNL     1       2.595   4.645  21.159  0.00  0.00    +0.000 C 
ATOM      5  C   UNL     1       1.262   5.227  20.669  0.00  0.00    +0.000 C 
ATOM      6  C   UNL     1       1.064   4.515  19.327  0.00  0.00    +0.000 C 
ATOM      7  C   UNL     1       1.581   3.089  19.556  0.00  0.00    +0.000 C 
ATOM      8  C   UNL     1       2.388   2.517  18.383  0.00  0.00    +0.000 C 
ENDROOT
BRANCH   1  13
ATOM      9  C   UNL     1       6.524   4.964  17.763  0.00  0.00    +0.000 A 
ATOM     10  C   UNL     1       6.339   5.044  16.381  0.00  0.00    +0.000 A 
ATOM     11  C   UNL     1       5.290   4.345  15.795  0.00  0.00    +0.000 A 
ATOM     12  C   UNL     1       4.436   3.568  16.587  0.00  0.00    +0.000 A 
ATOM     13  C   UNL     1       4.621   3.434  17.970  0.00  0.00    +0.000 A 
ATOM     14  C   UNL     1       5.690   4.143  18.538  0.00  0.00    +0.000 A 
BRANCH   9  16
ATOM     15  O   UNL     1       8.211   5.281  19.413  0.00  0.00    +0.000 OA
ATOM     16  C   UNL     1       7.605   5.716  18.446  0.00  0.00    +0.000 C 
BRANCH  16  17
ATOM     17  O   UNL     1       7.830   6.942  17.924  0.00  0.00    +0.000 OA
ATOM     18  H   UNL     1       7.298   7.156  17.136  0.00  0.00    +0.000 HD
ENDBRANCH  16  17
ENDBRANCH   9  16
ENDBRANCH   1  13
BRANCH   5  19
ATOM     19  C   UNL     1       1.171   6.740  20.559  0.00  0.00    +0.000 A 
ATOM     20  C   UNL     1       0.337   7.458  21.443  0.00  0.00    +0.000 A 
ATOM     21  C   UNL     1       0.175   8.841  21.355  0.00  0.00    +0.000 A 
ATOM     22  C   UNL     1       0.867   9.556  20.393  0.00  0.00    +0.000 A 
ATOM     23  C   UNL     1       1.737   8.885  19.539  0.00  0.00    +0.000 A 
ATOM     24  C   UNL     1       1.918   7.481  19.610  0.00  0.00    +0.000 A 
BRANCH  24  25
ATOM     25  C   UNL     1       2.927   6.908  18.632  0.00  0.00    +0.000 C 
ATOM     26  F   UNL     1       3.994   6.265  19.177  0.00  0.00    +0.000 F 
ATOM     27  F   UNL     1       2.356   6.012  17.777  0.00  0.00    +0.000 F 
ATOM     28  F   UNL     1       3.469   7.876  17.834  0.00  0.00    +0.000 F 
ENDBRANCH  24  25
ENDBRANCH   5  19
TORSDOF 5
ENDMDL
MODEL 6
REMARK VINA RESULT:      -7.3      0.667      1.039
REMARK  Name = 
REMARK  5 active torsions:
REMARK  status: ('A' for Active; 'I' for Inactive)
REMARK    1  A    between atoms: C_2  and  O_3
REMARK    2  A    between atoms: C_2  and  C_4
REMARK    3  A    between atoms: C_8  and  N_9
REMARK    4  A    between atoms: C_13  and  C_14
REMARK    5  A    between atoms: C_19  and  C_20
REMARK                            x       y       z     vdW  Elec       q    Type
REMARK                         _______ _______ _______ _____ _____    ______ ____
ROOT
ATOM      1  N   UNL     1       3.939   3.421  18.623  0.00  0.00    +0.000 N 
ATOM      2  C   UNL     1       3.679   3.591  20.050  0.00  0.00    +0.000 C 
ATOM      3  C   UNL     1       2.333   4.308  20.133  0.00  0.00    +0.000 C 
ATOM      4  C   UNL     1       2.459   5.814  20.366  0.00  0.00    +0.000 C 
ATOM      5  C   UNL     1       1.367   6.438  19.487  0.00  0.00    +0.000 C 
ATOM      6  C   UNL     1       1.411   5.559  18.232  0.00  0.00    +0.000 C 
ATOM      7  C   UNL     1       1.675   4.140  18.752  0.00  0.00    +0.000 C 
ATOM      8  C   UNL     1       2.662   3.332  17.901  0.00  0.00    +0.000 C 
ENDROOT
BRANCH   1  13
ATOM      9  C   UNL     1       7.048   5.353  18.055  0.00  0.00    +0.000 A 
ATOM     10  C   UNL     1       7.259   5.172  16.687  0.00  0.00    +0.000 A 
ATOM     11  C   UNL     1       6.351   4.417  15.954  0.00  0.00    +0.000 A 
ATOM     12  C   UNL     1       5.243   3.843  16.588  0.00  0.00    +0.000 A 
ATOM     13  C   UNL     1       5.027   3.971  17.967  0.00  0.00    +0.000 A 
ATOM     14  C   UNL     1       5.959   4.731  18.687  0.00  0.00    +0.000 A 
BRANCH   9  16
ATOM     15  O   UNL     1       8.297   7.311  18.576  0.00  0.00    +0.000 OA
ATOM     16  C   UNL     1       7.965   6.177  18.880  0.00  0.00    +0.000 C 
BRANCH  16  17
ATOM     17  O   UNL     1       8.431   5.541  19.977  0.00  0.00    +0.000 OA
ATOM     18  H   UNL     1       7.786   4.959  20.420  0.00  0.00    +0.000 HD
ENDBRANCH  16  17
ENDBRANCH   9  16
ENDBRANCH   1  13
BRANCH   5  19
ATOM     19  C   UNL     1       1.496   7.921  19.179  0.00  0.00    +0.000 A 
ATOM     20  C   UNL     1       2.037   8.335  17.942  0.00  0.00    +0.000 A 
ATOM     21  C   UNL     1       2.226   9.681  17.626  0.00  0.00    +0.000 A 
ATOM     22  C   UNL     1       1.853  10.660  18.530  0.00  0.00    +0.000 A 
ATOM     23  C   UNL     1       1.270  10.286  19.737  0.00  0.00    +0.000 A 
ATOM     24  C   UNL     1       1.067   8.926  20.080  0.00  0.00    +0.000 A 
BRANCH  24  25
ATOM     25  C   UNL     1       0.387   8.689  21.415  0.00  0.00    +0.000 C 
ATOM     26  F   UNL     1      -0.232   9.762  21.975  0.00  0.00    +0.000 F 
ATOM     27  F   UNL     1      -0.564   7.715  21.337  0.00  0.00    +0.000 F 
ATOM     28  F   UNL     1       1.271   8.257  22.365  0.00  0.00    +0.000 F 
ENDBRANCH  24  25
ENDBRANCH   5  19
TORSDOF 5
ENDMDL
MODEL 7
REMARK VINA RESULT:      -7.2      2.044      2.657
REMARK  Name = 
REMARK  5 active torsions:
REMARK  status: ('A' for Active; 'I' for Inactive)
REMARK    1  A    between atoms: C_2  and  O_3
REMARK    2  A    between atoms: C_2  and  C_4
REMARK    3  A    between atoms: C_8  and  N_9
REMARK    4  A    between atoms: C_13  and  C_14
REMARK    5  A    between atoms: C_19  and  C_20
REMARK                            x       y       z     vdW  Elec       q    Type
REMARK                         _______ _______ _______ _____ _____    ______ ____
ROOT
ATOM      1  N   UNL     1       4.521   3.422  17.756  0.00  0.00    +0.000 N 
ATOM      2  C   UNL     1       4.672   3.588  19.199  0.00  0.00    +0.000 C 
ATOM      3  C   UNL     1       3.344   4.169  19.680  0.00  0.00    +0.000 C 
ATOM      4  C   UNL     1       3.381   5.684  19.886  0.00  0.00    +0.000 C 
ATOM      5  C   UNL     1       2.025   6.182  19.371  0.00  0.00    +0.000 C 
ATOM      6  C   UNL     1       1.789   5.291  18.146  0.00  0.00    +0.000 C 
ATOM      7  C   UNL     1       2.333   3.915  18.548  0.00  0.00    +0.000 C 
ATOM      8  C   UNL     1       3.105   3.195  17.436  0.00  0.00    +0.000 C 
ENDROOT
BRANCH   1  13
ATOM      9  C   UNL     1       6.070   4.264  14.498  0.00  0.00    +0.000 A 
ATOM     10  C   UNL     1       6.931   5.308  14.845  0.00  0.00    +0.000 A 
ATOM     11  C   UNL     1       7.004   5.716  16.172  0.00  0.00    +0.000 A 
ATOM     12  C   UNL     1       6.215   5.088  17.143  0.00  0.00    +0.000 A 
ATOM     13  C   UNL     1       5.311   4.066  16.820  0.00  0.00    +0.000 A 
ATOM     14  C   UNL     1       5.250   3.676  15.474  0.00  0.00    +0.000 A 
BRANCH   9  16
ATOM     15  O   UNL     1       6.953   3.612  12.386  0.00  0.00    +0.000 OA
ATOM     16  C   UNL     1       5.978   3.764  13.105  0.00  0.00    +0.000 C 
BRANCH  16  17
ATOM     17  O   UNL     1       4.713   3.532  12.692  0.00  0.00    +0.000 OA
ATOM     18  H   UNL     1       4.147   3.074  13.340  0.00  0.00    +0.000 HD
ENDBRANCH  16  17
ENDBRANCH   9  16
ENDBRANCH   1  13
BRANCH   5  19
ATOM     19  C   UNL     1       1.910   7.665  19.059  0.00  0.00    +0.000 A 
ATOM     20  C   UNL     1       2.341   8.153  17.805  0.00  0.00    +0.000 A 
ATOM     21  C   UNL     1       2.307   9.510  17.483  0.00  0.00    +0.000 A 
ATOM     22  C   UNL     1       1.813  10.423  18.399  0.00  0.00    +0.000 A 
ATOM     23  C   UNL     1       1.333   9.969  19.623  0.00  0.00    +0.000 A 
ATOM     24  C   UNL     1       1.356   8.596  19.972  0.00  0.00    +0.000 A 
BRANCH  24  25
ATOM     25  C   UNL     1       0.764   8.262  21.329  0.00  0.00    +0.000 C 
ATOM     26  F   UNL     1       0.627   9.298  22.197  0.00  0.00    +0.000 F 
ATOM     27  F   UNL     1      -0.477   7.706  21.220  0.00  0.00    +0.000 F 
ATOM     28  F   UNL     1       1.517   7.338  21.998  0.00  0.00    +0.000 F 
ENDBRANCH  24  25
ENDBRANCH   5  19
TORSDOF 5
ENDMDL
MODEL 8
REMARK VINA RESULT:      -7.2      2.173      2.774
REMARK  Name = 
REMARK  5 active torsions:
REMARK  status: ('A' for Active; 'I' for Inactive)
REMARK    1  A    between atoms: C_2  and  O_3
REMARK    2  A    between atoms: C_2  and  C_4
REMARK    3  A    between atoms: C_8  and  N_9
REMARK    4  A    between atoms: C_13  and  C_14
REMARK    5  A    between atoms: C_19  and  C_20
REMARK                            x       y       z     vdW  Elec       q    Type
REMARK                         _______ _______ _______ _____ _____    ______ ____
ROOT
ATOM      1  N   UNL     1       3.440   2.626  19.069  0.00  0.00    +0.000 N 
ATOM      2  C   UNL     1       3.698   2.752  20.501  0.00  0.00    +0.000 C 
ATOM      3  C   UNL     1       2.442   3.399  21.082  0.00  0.00    +0.000 C 
ATOM      4  C   UNL     1       2.583   4.904  21.312  0.00  0.00    +0.000 C 
ATOM      5  C   UNL     1       1.227   5.491  20.900  0.00  0.00    +0.000 C 
ATOM      6  C   UNL     1       0.857   4.643  19.679  0.00  0.00    +0.000 C 
ATOM      7  C   UNL     1       1.344   3.228  20.018  0.00  0.00    +0.000 C 
ATOM      8  C   UNL     1       1.995   2.489  18.842  0.00  0.00    +0.000 C 
ENDROOT
BRANCH   1  13
ATOM      9  C   UNL     1       6.261   4.419  17.471  0.00  0.00    +0.000 A 
ATOM     10  C   UNL     1       5.808   4.565  16.158  0.00  0.00    +0.000 A 
ATOM     11  C   UNL     1       4.552   4.078  15.814  0.00  0.00    +0.000 A 
ATOM     12  C   UNL     1       3.758   3.443  16.777  0.00  0.00    +0.000 A 
ATOM     13  C   UNL     1       4.202   3.244  18.092  0.00  0.00    +0.000 A 
ATOM     14  C   UNL     1       5.474   3.738  18.414  0.00  0.00    +0.000 A 
BRANCH   9  16
ATOM     15  O   UNL     1       7.750   6.112  18.232  0.00  0.00    +0.000 OA
ATOM     16  C   UNL     1       7.577   4.950  17.901  0.00  0.00    +0.000 C 
BRANCH  16  17
ATOM     17  O   UNL     1       8.573   4.039  17.855  0.00  0.00    +0.000 OA
ATOM     18  H   UNL     1       8.505   3.321  18.511  0.00  0.00    +0.000 HD
ENDBRANCH  16  17
ENDBRANCH   9  16
ENDBRANCH   1  13
BRANCH   5  19
ATOM     19  C   UNL     1       1.180   6.985  20.623  0.00  0.00    +0.000 A 
ATOM     20  C   UNL     1       0.442   7.833  21.477  0.00  0.00    +0.000 A 
ATOM     21  C   UNL     1       0.321   9.203  21.242  0.00  0.00    +0.000 A 
ATOM     22  C   UNL     1       0.961   9.775  20.156  0.00  0.00    +0.000 A 
ATOM     23  C   UNL     1       1.738   8.976  19.324  0.00  0.00    +0.000 A 
ATOM     24  C   UNL     1       1.876   7.582  19.543  0.00  0.00    +0.000 A 
BRANCH  24  25
ATOM     25  C   UNL     1       2.786   6.860  18.566  0.00  0.00    +0.000 C 
ATOM     26  F   UNL     1       3.374   7.628  17.612  0.00  0.00    +0.000 F 
ATOM     27  F   UNL     1       3.807   6.217  19.202  0.00  0.00    +0.000 F 
ATOM     28  F   UNL     1       2.120   5.887  17.876  0.00  0.00    +0.000 F 
ENDBRANCH  24  25
ENDBRANCH   5  19
TORSDOF 5
ENDMDL
MODEL 9
REMARK VINA RESULT:      -7.1      5.365      8.025
REMARK  Name = 
REMARK  5 active torsions:
REMARK  status: ('A' for Active; 'I' for Inactive)
REMARK    1  A    between atoms: C_2  and  O_3
REMARK    2  A    between atoms: C_2  and  C_4
REMARK    3  A    between atoms: C_8  and  N_9
REMARK    4  A    between atoms: C_13  and  C_14
REMARK    5  A    between atoms: C_19  and  C_20
REMARK                            x       y       z     vdW  Elec       q    Type
REMARK                         _______ _______ _______ _____ _____    ______ ____
ROOT
ATOM      1  N   UNL     1       4.949   5.386  18.928  0.00  0.00    +0.000 N 
ATOM      2  C   UNL     1       6.409   5.358  18.969  0.00  0.00    +0.000 C 
ATOM      3  C   UNL     1       6.863   6.072  17.697  0.00  0.00    +0.000 C 
ATOM      4  C   UNL     1       7.258   5.116  16.571  0.00  0.00    +0.000 C 
ATOM      5  C   UNL     1       6.715   5.771  15.295  0.00  0.00    +0.000 C 
ATOM      6  C   UNL     1       5.375   6.349  15.764  0.00  0.00    +0.000 C 
ATOM      7  C   UNL     1       5.641   6.854  17.188  0.00  0.00    +0.000 C 
ATOM      8  C   UNL     1       4.504   6.569  18.178  0.00  0.00    +0.000 C 
ENDROOT
BRANCH   1  13
ATOM      9  C   UNL     1       2.448   2.854  19.954  0.00  0.00    +0.000 A 
ATOM     10  C   UNL     1       2.531   1.924  18.916  0.00  0.00    +0.000 A 
ATOM     11  C   UNL     1       3.436   2.137  17.883  0.00  0.00    +0.000 A 
ATOM     12  C   UNL     1       4.248   3.278  17.886  0.00  0.00    +0.000 A 
ATOM     13  C   UNL     1       4.158   4.251  18.892  0.00  0.00    +0.000 A 
ATOM     14  C   UNL     1       3.234   4.017  19.920  0.00  0.00    +0.000 A 
BRANCH   9  16
ATOM     15  O   UNL     1       1.895   2.259  22.192  0.00  0.00    +0.000 OA
ATOM     16  C   UNL     1       1.526   2.659  21.099  0.00  0.00    +0.000 C 
BRANCH  16  17
ATOM     17  O   UNL     1       0.234   2.927  20.809  0.00  0.00    +0.000 OA
ATOM     18  H   UNL     1      -0.370   2.165  20.880  0.00  0.00    +0.000 HD
ENDBRANCH  16  17
ENDBRANCH   9  16
ENDBRANCH   1  13
BRANCH   5  19
ATOM     19  C   UNL     1       6.581   4.881  14.069  0.00  0.00    +0.000 A 
ATOM     20  C   UNL     1       5.489   3.993  13.963  0.00  0.00    +0.000 A 
ATOM     21  C   UNL     1       5.343   3.118  12.886  0.00  0.00    +0.000 A 
ATOM     22  C   UNL     1       6.275   3.123  11.863  0.00  0.00    +0.000 A 
ATOM     23  C   UNL     1       7.336   4.023  11.912  0.00  0.00    +0.000 A 
ATOM     24  C   UNL     1       7.504   4.921  12.994  0.00  0.00    +0.000 A 
BRANCH  24  25
ATOM     25  C   UNL     1       8.691   5.860  12.879  0.00  0.00    +0.000 C 
ATOM     26  F   UNL     1       8.929   6.663  13.950  0.00  0.00    +0.000 F 
ATOM     27  F   UNL     1       9.855   5.184  12.661  0.00  0.00    +0.000 F 
ATOM     28  F   UNL     1       8.563   6.714  11.820  0.00  0.00    +0.000 F 
ENDBRANCH  24  25
ENDBRANCH   5  19
TORSDOF 5
ENDMDL
