MODEL 1
REMARK VINA RESULT:      -8.2      0.000      0.000
REMARK  Name = 
REMARK  5 active torsions:
REMARK  status: ('A' for Active; 'I' for Inactive)
REMARK    1  A    between atoms: C_4  and  O_5
REMARK    2  A    between atoms: C_6  and  C_7
REMARK    3  A    between atoms: C_10  and  C_11
REMARK    4  A    between atoms: N_13  and  C_14
REMARK    5  A    between atoms: C_14  and  C_15
REMARK                            x       y       z     vdW  Elec       q    Type
REMARK                         _______ _______ _______ _____ _____    ______ ____
ROOT
ATOM      1  C   UNL     1       3.909   6.427  17.878  0.00  0.00    +0.000 A 
ATOM      2  C   UNL     1       3.543   7.602  17.221  0.00  0.00    +0.000 A 
ATOM      3  C   UNL     1       2.603   8.467  17.795  0.00  0.00    +0.000 A 
ATOM      4  C   UNL     1       2.010   8.172  19.036  0.00  0.00    +0.000 A 
ATOM      5  C   UNL     1       2.394   7.002  19.700  0.00  0.00    +0.000 A 
ATOM      6  C   UNL     1       3.339   6.138  19.124  0.00  0.00    +0.000 A 
ENDROOT
BRANCH   1  11
ATOM      7  O   UNL     1       7.905   4.365  16.152  0.00  0.00    +0.000 OA
ATOM      8  C   UNL     1       6.741   4.550  16.456  0.00  0.00    +0.000 C 
ATOM      9  O   UNL     1       5.730   3.668  16.217  0.00  0.00    +0.000 OA
ATOM     10  C   UNL     1       4.507   4.240  16.658  0.00  0.00    +0.000 C 
ATOM     11  C   UNL     1       4.890   5.523  17.285  0.00  0.00    +0.000 C 
ATOM     12  C   UNL     1       6.200   5.729  17.155  0.00  0.00    +0.000 C 
ATOM     13 BR   UNL     1       7.232   7.151  17.675  0.00  0.00    +0.000 Br
BRANCH  10  14
ATOM     14  O   UNL     1       3.859   3.366  17.560  0.00  0.00    +0.000 OA
ATOM     15  H   UNL     1       2.963   3.703  17.705  0.00  0.00    +0.000 HD
ENDBRANCH  10  14
ENDBRANCH   1  11
BRANCH   4  16
ATOM     16  C   UNL     1       1.005   9.149  19.566  0.00  0.00    +0.000 C 
ATOM     17  O   UNL     1       0.925   9.323  20.779  0.00  0.00    +0.000 OA
ATOM     18  N   UNL     1       0.205   9.826  18.673  0.00  0.00    +0.000 N 
ATOM     19  H   UNL     1       0.295   9.703  17.676  0.00  0.00    +0.000 HD
BRANCH  18  20
ATOM     20  C   UNL     1      -0.792  10.777  19.123  0.00  0.00    +0.000 C 
BRANCH  20  21
ATOM     21  C   UNL     1      -1.981  10.815  18.196  0.00  0.00    +0.000 A 
ATOM     22  C   UNL     1      -1.971  10.090  16.994  0.00  0.00    +0.000 A 
ATOM     23  C   UNL     1      -3.060  10.145  16.122  0.00  0.00    +0.000 A 
ATOM     24  C   UNL     1      -4.176  10.913  16.447  0.00  0.00    +0.000 A 
ATOM     25  C   UNL     1      -4.213  11.610  17.653  0.00  0.00    +0.000 A 
ATOM     26  C   UNL     1      -3.123  11.560  18.525  0.00  0.00    +0.000 A 
ENDBRANCH  20  21
ENDBRANCH  18  20
ENDBRANCH   4  16
TORSDOF 5
ENDMDL
MODEL 2
REMARK VINA RESULT:      -8.1      0.362      1.046
REMARK  Name = 
REMARK  5 active torsions:
REMARK  status: ('A' for Active; 'I' for Inactive)
REMARK    1  A    between atoms: C_4  and  O_5
REMARK    2  A    between atoms: C_6  and  C_7
REMARK    3  A    between atoms: C_10  and  C_11
REMARK    4  A    between atoms: N_13  and  C_14
REMARK    5  A    between atoms: C_14  and  C_15
REMARK                            x       y       z     vdW  Elec       q    Type
REMARK                         _______ _______ _______ _____ _____    ______ ____
ROOT
ATOM      1  C   UNL     1       3.933   6.405  17.889  0.00  0.00    +0.000 A 
ATOM      2  C   UNL     1       3.549   7.583  17.246  0.00  0.00    +0.000 A 
ATOM      3  C   UNL     1       2.605   8.432  17.837  0.00  0.00    +0.000 A 
ATOM      4  C   UNL     1       2.027   8.120  19.080  0.00  0.00    +0.000 A 
ATOM      5  C   UNL     1       2.429   6.948  19.729  0.00  0.00    +0.000 A 
ATOM      6  C   UNL     1       3.378   6.099  19.137  0.00  0.00    +0.000 A 
ENDROOT
BRANCH   1  11
ATOM      7  O   UNL     1       7.939   4.391  16.131  0.00  0.00    +0.000 OA
ATOM      8  C   UNL     1       6.774   4.567  16.434  0.00  0.00    +0.000 C 
ATOM      9  O   UNL     1       5.765   3.689  16.171  0.00  0.00    +0.000 OA
ATOM     10  C   UNL     1       4.539   4.249  16.619  0.00  0.00    +0.000 C 
ATOM     11  C   UNL     1       4.918   5.517  17.278  0.00  0.00    +0.000 C 
ATOM     12  C   UNL     1       6.228   5.728  17.158  0.00  0.00    +0.000 C 
ATOM     13 BR   UNL     1       7.256   7.139  17.716  0.00  0.00    +0.000 Br
BRANCH  10  14
ATOM     14  O   UNL     1       3.890   3.352  17.498  0.00  0.00    +0.000 OA
ATOM     15  H   UNL     1       4.117   3.610  18.403  0.00  0.00    +0.000 HD
ENDBRANCH  10  14
ENDBRANCH   1  11
BRANCH   4  16
ATOM     16  C   UNL     1       1.017   9.081  19.629  0.00  0.00    +0.000 C 
ATOM     17  O   UNL     1       0.586   8.908  20.765  0.00  0.00    +0.000 OA
ATOM     18  N   UNL     1       0.608  10.133  18.840  0.00  0.00    +0.000 N 
ATOM     19  H   UNL     1       0.988  10.288  17.918  0.00  0.00    +0.000 HD
BRANCH  18  20
ATOM     20  C   UNL     1      -0.373  11.092  19.309  0.00  0.00    +0.000 C 
BRANCH  20  21
ATOM     21  C   UNL     1      -1.671  10.974  18.551  0.00  0.00    +0.000 A 
ATOM     22  C   UNL     1      -2.775  11.767  18.901  0.00  0.00    +0.000 A 
ATOM     23  C   UNL     1      -3.986  11.640  18.218  0.00  0.00    +0.000 A 
ATOM     24  C   UNL     1      -4.104  10.731  17.168  0.00  0.00    +0.000 A 
ATOM     25  C   UNL     1      -3.004   9.963  16.788  0.00  0.00    +0.000 A 
ATOM     26  C   UNL     1      -1.794  10.085  17.474  0.00  0.00    +0.000 A 
ENDBRANCH  20  21
ENDBRANCH  18  20
ENDBRANCH   4  16
TORSDOF 5
ENDMDL
MODEL 3
REMARK VINA RESULT:      -8.0      2.282      2.989
REMARK  Name = 
REMARK  5 active torsions:
REMARK  status: ('A' for Active; 'I' for Inactive)
REMARK    1  A    between atoms: C_4  and  O_5
REMARK    2  A    between atoms: C_6  and  C_7
REMARK    3  A    between atoms: C_10  and  C_11
REMARK    4  A    between atoms: N_13  and  C_14
REMARK    5  A    between atoms: C_14  and  C_15
REMARK                            x       y       z     vdW  Elec       q    Type
REMARK                         _______ _______ _______ _____ _____    ______ ____
ROOT
ATOM      1  C   UNL     1       2.915   6.469  19.101  0.00  0.00    +0.000 A 
ATOM      2  C   UNL     1       2.212   6.941  20.211  0.00  0.00    +0.000 A 
ATOM      3  C   UNL     1       1.520   8.156  20.142  0.00  0.00    +0.000 A 
ATOM      4  C   UNL     1       1.518   8.923  18.964  0.00  0.00    +0.000 A 
ATOM      5  C   UNL     1       2.207   8.437  17.848  0.00  0.00    +0.000 A 
ATOM      6  C   UNL     1       2.898   7.218  17.917  0.00  0.00    +0.000 A 
ENDROOT
BRANCH   1  11
ATOM      7  O   UNL     1       4.174   1.824  19.286  0.00  0.00    +0.000 OA
ATOM      8  C   UNL     1       4.245   3.039  19.272  0.00  0.00    +0.000 C 
ATOM      9  O   UNL     1       5.406   3.747  19.368  0.00  0.00    +0.000 OA
ATOM     10  C   UNL     1       5.099   5.134  19.372  0.00  0.00    +0.000 C 
ATOM     11  C   UNL     1       3.637   5.202  19.166  0.00  0.00    +0.000 C 
ATOM     12  C   UNL     1       3.117   3.976  19.127  0.00  0.00    +0.000 C 
ATOM     13 BR   UNL     1       1.375   3.433  18.954  0.00  0.00    +0.000 Br
BRANCH  10  14
ATOM     14  O   UNL     1       5.823   5.794  18.354  0.00  0.00    +0.000 OA
ATOM     15  H   UNL     1       5.619   6.739  18.412  0.00  0.00    +0.000 HD
ENDBRANCH  10  14
ENDBRANCH   1  11
BRANCH   4  16
ATOM     16  C   UNL     1       0.760  10.216  18.987  0.00  0.00    +0.000 C 
ATOM     17  O   UNL     1       1.330  11.247  18.640  0.00  0.00    +0.000 OA
ATOM     18  N   UNL     1      -0.556  10.205  19.392  0.00  0.00    +0.000 N 
ATOM     19  H   UNL     1      -1.029   9.351  19.648  0.00  0.00    +0.000 HD
BRANCH  18  20
ATOM     20  C   UNL     1      -1.340  11.423  19.446  0.00  0.00    +0.000 C 
BRANCH  20  21
ATOM     21  C   UNL     1      -2.460  11.407  18.436  0.00  0.00    +0.000 A 
ATOM     22  C   UNL     1      -3.749  11.831  18.795  0.00  0.00    +0.000 A 
ATOM     23  C   UNL     1      -4.794  11.791  17.870  0.00  0.00    +0.000 A 
ATOM     24  C   UNL     1      -4.560  11.343  16.572  0.00  0.00    +0.000 A 
ATOM     25  C   UNL     1      -3.277  10.952  16.193  0.00  0.00    +0.000 A 
ATOM     26  C   UNL     1      -2.231  10.987  17.118  0.00  0.00    +0.000 A 
ENDBRANCH  20  21
ENDBRANCH  18  20
ENDBRANCH   4  16
TORSDOF 5
ENDMDL
MODEL 4
REMARK VINA RESULT:      -8.0      2.288      2.715
REMARK  Name = 
REMARK  5 active torsions:
REMARK  status: ('A' for Active; 'I' for Inactive)
REMARK    1  A    between atoms: C_4  and  O_5
REMARK    2  A    between atoms: C_6  and  C_7
REMARK    3  A    between atoms: C_10  and  C_11
REMARK    4  A    between atoms: N_13  and  C_14
REMARK    5  A    between atoms: C_14  and  C_15
REMARK                            x       y       z     vdW  Elec       q    Type
REMARK                         _______ _______ _______ _____ _____    ______ ____
ROOT
ATOM      1  C   UNL     1       2.860   6.499  19.225  0.00  0.00    +0.000 A 
ATOM      2  C   UNL     1       2.821   7.267  18.061  0.00  0.00    +0.000 A 
ATOM      3  C   UNL     1       2.121   8.479  18.039  0.00  0.00    +0.000 A 
ATOM      4  C   UNL     1       1.444   8.946  19.180  0.00  0.00    +0.000 A 
ATOM      5  C   UNL     1       1.501   8.182  20.350  0.00  0.00    +0.000 A 
ATOM      6  C   UNL     1       2.206   6.968  20.371  0.00  0.00    +0.000 A 
ENDROOT
BRANCH   1  11
ATOM      7  O   UNL     1       4.151   1.864  19.433  0.00  0.00    +0.000 OA
ATOM      8  C   UNL     1       4.215   3.077  19.368  0.00  0.00    +0.000 C 
ATOM      9  O   UNL     1       5.376   3.788  19.306  0.00  0.00    +0.000 OA
ATOM     10  C   UNL     1       5.066   5.174  19.296  0.00  0.00    +0.000 C 
ATOM     11  C   UNL     1       3.590   5.235  19.254  0.00  0.00    +0.000 C 
ATOM     12  C   UNL     1       3.074   4.008  19.318  0.00  0.00    +0.000 C 
ATOM     13 BR   UNL     1       1.326   3.459  19.362  0.00  0.00    +0.000 Br
BRANCH  10  14
ATOM     14  O   UNL     1       5.668   5.797  18.179  0.00  0.00    +0.000 OA
ATOM     15  H   UNL     1       5.853   6.717  18.419  0.00  0.00    +0.000 HD
ENDBRANCH  10  14
ENDBRANCH   1  11
BRANCH   4  16
ATOM     16  C   UNL     1       0.710  10.247  19.059  0.00  0.00    +0.000 C 
ATOM     17  O   UNL     1       1.319  11.241  18.673  0.00  0.00    +0.000 OA
ATOM     18  N   UNL     1      -0.628  10.283  19.382  0.00  0.00    +0.000 N 
ATOM     19  H   UNL     1      -1.131   9.458  19.670  0.00  0.00    +0.000 HD
BRANCH  18  20
ATOM     20  C   UNL     1      -1.391  11.513  19.295  0.00  0.00    +0.000 C 
BRANCH  20  21
ATOM     21  C   UNL     1      -2.484  11.416  18.259  0.00  0.00    +0.000 A 
ATOM     22  C   UNL     1      -2.200  10.948  16.967  0.00  0.00    +0.000 A 
ATOM     23  C   UNL     1      -3.204  10.883  15.998  0.00  0.00    +0.000 A 
ATOM     24  C   UNL     1      -4.505  11.269  16.315  0.00  0.00    +0.000 A 
ATOM     25  C   UNL     1      -4.807  11.702  17.605  0.00  0.00    +0.000 A 
ATOM     26  C   UNL     1      -3.802  11.773  18.573  0.00  0.00    +0.000 A 
ENDBRANCH  20  21
ENDBRANCH  18  20
ENDBRANCH   4  16
TORSDOF 5
ENDMDL
MODEL 5
REMARK VINA RESULT:      -8.0      2.263      2.828
REMARK  Name = 
REMARK  5 active torsions:
REMARK  status: ('A' for Active; 'I' for Inactive)
REMARK    1  A    between atoms: C_4  and  O_5
REMARK    2  A    between atoms: C_6  and  C_7
REMARK    3  A    between atoms: C_10  and  C_11
REMARK    4  A    between atoms: N_13  and  C_14
REMARK    5  A    between atoms: C_14  and  C_15
REMARK                            x       y       z     vdW  Elec       q    Type
REMARK                         _______ _______ _______ _____ _____    ______ ____
ROOT
ATOM      1  C   UNL     1       2.864   6.452  19.204  0.00  0.00    +0.000 A 
ATOM      2  C   UNL     1       2.193   6.886  20.348  0.00  0.00    +0.000 A 
ATOM      3  C   UNL     1       1.506   8.105  20.342  0.00  0.00    +0.000 A 
ATOM      4  C   UNL     1       1.478   8.915  19.193  0.00  0.00    +0.000 A 
ATOM      5  C   UNL     1       2.136   8.468  18.043  0.00  0.00    +0.000 A 
ATOM      6  C   UNL     1       2.822   7.243  18.050  0.00  0.00    +0.000 A 
ENDROOT
BRANCH   1  11
ATOM      7  O   UNL     1       4.101   1.797  19.213  0.00  0.00    +0.000 OA
ATOM      8  C   UNL     1       4.179   3.011  19.229  0.00  0.00    +0.000 C 
ATOM      9  O   UNL     1       5.347   3.711  19.291  0.00  0.00    +0.000 OA
ATOM     10  C   UNL     1       5.050   5.099  19.345  0.00  0.00    +0.000 C 
ATOM     11  C   UNL     1       3.581   5.180  19.205  0.00  0.00    +0.000 C 
ATOM     12  C   UNL     1       3.052   3.958  19.158  0.00  0.00    +0.000 C 
ATOM     13 BR   UNL     1       1.301   3.428  19.047  0.00  0.00    +0.000 Br
BRANCH  10  14
ATOM     14  O   UNL     1       5.733   5.781  18.313  0.00  0.00    +0.000 OA
ATOM     15  H   UNL     1       6.554   5.300  18.134  0.00  0.00    +0.000 HD
ENDBRANCH  10  14
ENDBRANCH   1  11
BRANCH   4  16
ATOM     16  C   UNL     1       0.728  10.210  19.283  0.00  0.00    +0.000 C 
ATOM     17  O   UNL     1       0.849  10.899  20.292  0.00  0.00    +0.000 OA
ATOM     18  N   UNL     1      -0.067  10.588  18.225  0.00  0.00    +0.000 N 
ATOM     19  H   UNL     1      -0.139  10.034  17.385  0.00  0.00    +0.000 HD
BRANCH  18  20
ATOM     20  C   UNL     1      -0.824  11.825  18.254  0.00  0.00    +0.000 C 
BRANCH  20  21
ATOM     21  C   UNL     1      -2.261  11.605  17.852  0.00  0.00    +0.000 A 
ATOM     22  C   UNL     1      -2.577  11.109  16.577  0.00  0.00    +0.000 A 
ATOM     23  C   UNL     1      -3.907  10.931  16.193  0.00  0.00    +0.000 A 
ATOM     24  C   UNL     1      -4.937  11.230  17.083  0.00  0.00    +0.000 A 
ATOM     25  C   UNL     1      -4.636  11.690  18.364  0.00  0.00    +0.000 A 
ATOM     26  C   UNL     1      -3.305  11.874  18.748  0.00  0.00    +0.000 A 
ENDBRANCH  20  21
ENDBRANCH  18  20
ENDBRANCH   4  16
TORSDOF 5
ENDMDL
MODEL 6
REMARK VINA RESULT:      -7.9      0.464      1.464
REMARK  Name = 
REMARK  5 active torsions:
REMARK  status: ('A' for Active; 'I' for Inactive)
REMARK    1  A    between atoms: C_4  and  O_5
REMARK    2  A    between atoms: C_6  and  C_7
REMARK    3  A    between atoms: C_10  and  C_11
REMARK    4  A    between atoms: N_13  and  C_14
REMARK    5  A    between atoms: C_14  and  C_15
REMARK                            x       y       z     vdW  Elec       q    Type
REMARK                         _______ _______ _______ _____ _____    ______ ____
ROOT
ATOM      1  C   UNL     1       3.914   6.466  17.886  0.00  0.00    +0.000 A 
ATOM      2  C   UNL     1       3.333   6.187  19.123  0.00  0.00    +0.000 A 
ATOM      3  C   UNL     1       2.386   7.061  19.670  0.00  0.00    +0.000 A 
ATOM      4  C   UNL     1       2.004   8.232  18.992  0.00  0.00    +0.000 A 
ATOM      5  C   UNL     1       2.575   8.498  17.743  0.00  0.00    +0.000 A 
ATOM      6  C   UNL     1       3.522   7.619  17.195  0.00  0.00    +0.000 A 
ENDROOT
BRANCH   1  11
ATOM      7  O   UNL     1       7.921   4.401  16.190  0.00  0.00    +0.000 OA
ATOM      8  C   UNL     1       6.757   4.582  16.495  0.00  0.00    +0.000 C 
ATOM      9  O   UNL     1       5.754   3.684  16.285  0.00  0.00    +0.000 OA
ATOM     10  C   UNL     1       4.527   4.255  16.717  0.00  0.00    +0.000 C 
ATOM     11  C   UNL     1       4.901   5.557  17.310  0.00  0.00    +0.000 C 
ATOM     12  C   UNL     1       6.208   5.773  17.167  0.00  0.00    +0.000 C 
ATOM     13 BR   UNL     1       7.229   7.218  17.645  0.00  0.00    +0.000 Br
BRANCH  10  14
ATOM     14  O   UNL     1       3.893   3.398  17.645  0.00  0.00    +0.000 OA
ATOM     15  H   UNL     1       3.253   2.859  17.157  0.00  0.00    +0.000 HD
ENDBRANCH  10  14
ENDBRANCH   1  11
BRANCH   4  16
ATOM     16  C   UNL     1       0.993   9.114  19.660  0.00  0.00    +0.000 C 
ATOM     17  O   UNL     1       0.651   8.862  20.812  0.00  0.00    +0.000 OA
ATOM     18  N   UNL     1       0.486  10.186  18.960  0.00  0.00    +0.000 N 
ATOM     19  H   UNL     1       0.792  10.407  18.025  0.00  0.00    +0.000 HD
BRANCH  18  20
ATOM     20  C   UNL     1      -0.501  11.072  19.547  0.00  0.00    +0.000 C 
BRANCH  20  21
ATOM     21  C   UNL     1      -1.813  11.010  18.806  0.00  0.00    +0.000 A 
ATOM     22  C   UNL     1      -2.861  11.882  19.139  0.00  0.00    +0.000 A 
ATOM     23  C   UNL     1      -4.086  11.809  18.473  0.00  0.00    +0.000 A 
ATOM     24  C   UNL     1      -4.271  10.876  17.455  0.00  0.00    +0.000 A 
ATOM     25  C   UNL     1      -3.226  10.028  17.090  0.00  0.00    +0.000 A 
ATOM     26  C   UNL     1      -2.003  10.097  17.760  0.00  0.00    +0.000 A 
ENDBRANCH  20  21
ENDBRANCH  18  20
ENDBRANCH   4  16
TORSDOF 5
ENDMDL
MODEL 7
REMARK VINA RESULT:      -7.9      5.188      8.146
REMARK  Name = 
REMARK  5 active torsions:
REMARK  status: ('A' for Active; 'I' for Inactive)
REMARK    1  A    between atoms: C_4  and  O_5
REMARK    2  A    between atoms: C_6  and  C_7
REMARK    3  A    between atoms: C_10  and  C_11
REMARK    4  A    between atoms: N_13  and  C_14
REMARK    5  A    between atoms: C_14  and  C_15
REMARK                            x       y       z     vdW  Elec       q    Type
REMARK                         _______ _______ _______ _____ _____    ______ ____
ROOT
ATOM      1  C   UNL     1       3.742   5.277  18.674  0.00  0.00    +0.000 A 
ATOM      2  C   UNL     1       5.021   4.962  19.134  0.00  0.00    +0.000 A 
ATOM      3  C   UNL     1       6.132   5.679  18.674  0.00  0.00    +0.000 A 
ATOM      4  C   UNL     1       5.986   6.723  17.743  0.00  0.00    +0.000 A 
ATOM      5  C   UNL     1       4.699   7.047  17.298  0.00  0.00    +0.000 A 
ATOM      6  C   UNL     1       3.587   6.329  17.763  0.00  0.00    +0.000 A 
ENDROOT
BRANCH   1  11
ATOM      7  O   UNL     1       0.203   2.078  19.338  0.00  0.00    +0.000 OA
ATOM      8  C   UNL     1       0.908   3.061  19.467  0.00  0.00    +0.000 C 
ATOM      9  O   UNL     1       0.702   4.046  20.386  0.00  0.00    +0.000 OA
ATOM     10  C   UNL     1       1.686   5.055  20.208  0.00  0.00    +0.000 C 
ATOM     11  C   UNL     1       2.580   4.533  19.152  0.00  0.00    +0.000 C 
ATOM     12  C   UNL     1       2.122   3.371  18.690  0.00  0.00    +0.000 C 
ATOM     13 BR   UNL     1       2.764   2.290  17.356  0.00  0.00    +0.000 Br
BRANCH  10  14
ATOM     14  O   UNL     1       2.364   5.290  21.426  0.00  0.00    +0.000 OA
ATOM     15  H   UNL     1       2.331   6.242  21.602  0.00  0.00    +0.000 HD
ENDBRANCH  10  14
ENDBRANCH   1  11
BRANCH   4  16
ATOM     16  C   UNL     1       7.232   7.425  17.297  0.00  0.00    +0.000 C 
ATOM     17  O   UNL     1       7.923   6.913  16.421  0.00  0.00    +0.000 OA
ATOM     18  N   UNL     1       7.558   8.628  17.881  0.00  0.00    +0.000 N 
ATOM     19  H   UNL     1       6.971   9.060  18.579  0.00  0.00    +0.000 HD
BRANCH  18  20
ATOM     20  C   UNL     1       8.755   9.353  17.500  0.00  0.00    +0.000 C 
BRANCH  20  21
ATOM     21  C   UNL     1       9.014  10.520  18.420  0.00  0.00    +0.000 A 
ATOM     22  C   UNL     1       9.396  10.305  19.753  0.00  0.00    +0.000 A 
ATOM     23  C   UNL     1       9.611  11.383  20.614  0.00  0.00    +0.000 A 
ATOM     24  C   UNL     1       9.461  12.688  20.148  0.00  0.00    +0.000 A 
ATOM     25  C   UNL     1       9.116  12.915  18.817  0.00  0.00    +0.000 A 
ATOM     26  C   UNL     1       8.896  11.837  17.956  0.00  0.00    +0.000 A 
ENDBRANCH  20  21
ENDBRANCH  18  20
ENDBRANCH   4  16
TORSDOF 5
ENDMDL
MODEL 8
REMARK VINA RESULT:      -7.7      3.139      8.635
REMARK  Name = 
REMARK  5 active torsions:
REMARK  status: ('A' for Active; 'I' for Inactive)
REMARK    1  A    between atoms: C_4  and  O_5
REMARK    2  A    between atoms: C_6  and  C_7
REMARK    3  A    between atoms: C_10  and  C_11
REMARK    4  A    between atoms: N_13  and  C_14
REMARK    5  A    between atoms: C_14  and  C_15
REMARK                            x       y       z     vdW  Elec       q    Type
REMARK                         _______ _______ _______ _____ _____    ______ ____
ROOT
ATOM      1  C   UNL     1       0.859   9.878  19.027  0.00  0.00    +0.000 A 
ATOM      2  C   UNL     1       1.392   9.359  17.846  0.00  0.00    +0.000 A 
ATOM      3  C   UNL     1       2.078   8.139  17.860  0.00  0.00    +0.000 A 
ATOM      4  C   UNL     1       2.246   7.415  19.053  0.00  0.00    +0.000 A 
ATOM      5  C   UNL     1       1.693   7.929  20.231  0.00  0.00    +0.000 A 
ATOM      6  C   UNL     1       1.003   9.151  20.215  0.00  0.00    +0.000 A 
ENDROOT
BRANCH   1  11
ATOM      7  O   UNL     1      -0.393  14.525  18.833  0.00  0.00    +0.000 OA
ATOM      8  C   UNL     1      -0.462  13.315  18.950  0.00  0.00    +0.000 C 
ATOM      9  O   UNL     1      -1.610  12.627  19.207  0.00  0.00    +0.000 OA
ATOM     10  C   UNL     1      -1.301  11.246  19.330  0.00  0.00    +0.000 C 
ATOM     11  C   UNL     1       0.141  11.149  19.018  0.00  0.00    +0.000 C 
ATOM     12  C   UNL     1       0.653  12.362  18.814  0.00  0.00    +0.000 C 
ATOM     13 BR   UNL     1       2.375  12.874  18.451  0.00  0.00    +0.000 Br
BRANCH  10  14
ATOM     14  O   UNL     1      -2.101  10.490  18.443  0.00  0.00    +0.000 OA
ATOM     15  H   UNL     1      -2.866  11.032  18.201  0.00  0.00    +0.000 HD
ENDBRANCH  10  14
ENDBRANCH   1  11
BRANCH   4  16
ATOM     16  C   UNL     1       3.005   6.125  18.974  0.00  0.00    +0.000 C 
ATOM     17  O   UNL     1       3.706   5.787  19.924  0.00  0.00    +0.000 OA
ATOM     18  N   UNL     1       2.886   5.356  17.838  0.00  0.00    +0.000 N 
ATOM     19  H   UNL     1       2.285   5.623  17.073  0.00  0.00    +0.000 HD
BRANCH  18  20
ATOM     20  C   UNL     1       3.602   4.103  17.697  0.00  0.00    +0.000 C 
BRANCH  20  21
ATOM     21  C   UNL     1       4.915   4.293  16.979  0.00  0.00    +0.000 A 
ATOM     22  C   UNL     1       4.965   4.311  15.577  0.00  0.00    +0.000 A 
ATOM     23  C   UNL     1       6.183   4.459  14.910  0.00  0.00    +0.000 A 
ATOM     24  C   UNL     1       7.362   4.607  15.637  0.00  0.00    +0.000 A 
ATOM     25  C   UNL     1       7.322   4.625  17.030  0.00  0.00    +0.000 A 
ATOM     26  C   UNL     1       6.105   4.472  17.698  0.00  0.00    +0.000 A 
ENDBRANCH  20  21
ENDBRANCH  18  20
ENDBRANCH   4  16
TORSDOF 5
ENDMDL
MODEL 9
REMARK VINA RESULT:      -7.7      2.726      3.856
REMARK  Name = 
REMARK  5 active torsions:
REMARK  status: ('A' for Active; 'I' for Inactive)
REMARK    1  A    between atoms: C_4  and  O_5
REMARK    2  A    between atoms: C_6  and  C_7
REMARK    3  A    between atoms: C_10  and  C_11
REMARK    4  A    between atoms: N_13  and  C_14
REMARK    5  A    between atoms: C_14  and  C_15
REMARK                            x       y       z     vdW  Elec       q    Type
REMARK                         _______ _______ _______ _____ _____    ______ ____
ROOT
ATOM      1  C   UNL     1       2.947   6.519  18.979  0.00  0.00    +0.000 A 
ATOM      2  C   UNL     1       2.232   6.985  20.083  0.00  0.00    +0.000 A 
ATOM      3  C   UNL     1       1.591   8.229  20.033  0.00  0.00    +0.000 A 
ATOM      4  C   UNL     1       1.653   9.031  18.880  0.00  0.00    +0.000 A 
ATOM      5  C   UNL     1       2.355   8.551  17.769  0.00  0.00    +0.000 A 
ATOM      6  C   UNL     1       2.995   7.303  17.820  0.00  0.00    +0.000 A 
ENDROOT
BRANCH   1  11
ATOM      7  O   UNL     1       4.026   1.825  18.939  0.00  0.00    +0.000 OA
ATOM      8  C   UNL     1       4.137   3.034  19.029  0.00  0.00    +0.000 C 
ATOM      9  O   UNL     1       5.302   3.685  19.306  0.00  0.00    +0.000 OA
ATOM     10  C   UNL     1       5.042   5.079  19.385  0.00  0.00    +0.000 C 
ATOM     11  C   UNL     1       3.615   5.222  19.025  0.00  0.00    +0.000 C 
ATOM     12  C   UNL     1       3.064   4.024  18.834  0.00  0.00    +0.000 C 
ATOM     13 BR   UNL     1       1.336   3.567  18.428  0.00  0.00    +0.000 Br
BRANCH  10  14
ATOM     14  O   UNL     1       5.897   5.782  18.506  0.00  0.00    +0.000 OA
ATOM     15  H   UNL     1       5.879   6.716  18.762  0.00  0.00    +0.000 HD
ENDBRANCH  10  14
ENDBRANCH   1  11
BRANCH   4  16
ATOM     16  C   UNL     1       0.948  10.353  18.923  0.00  0.00    +0.000 C 
ATOM     17  O   UNL     1       1.596  11.380  18.744  0.00  0.00    +0.000 OA
ATOM     18  N   UNL     1      -0.409  10.371  19.157  0.00  0.00    +0.000 N 
ATOM     19  H   UNL     1      -0.942   9.522  19.273  0.00  0.00    +0.000 HD
BRANCH  18  20
ATOM     20  C   UNL     1      -1.147  11.617  19.219  0.00  0.00    +0.000 C 
BRANCH  20  21
ATOM     21  C   UNL     1      -1.670  11.883  20.608  0.00  0.00    +0.000 A 
ATOM     22  C   UNL     1      -2.834  12.644  20.798  0.00  0.00    +0.000 A 
ATOM     23  C   UNL     1      -3.306  12.915  22.084  0.00  0.00    +0.000 A 
ATOM     24  C   UNL     1      -2.629  12.414  23.194  0.00  0.00    +0.000 A 
ATOM     25  C   UNL     1      -1.491  11.628  23.019  0.00  0.00    +0.000 A 
ATOM     26  C   UNL     1      -1.016  11.361  21.733  0.00  0.00    +0.000 A 
ENDBRANCH  20  21
ENDBRANCH  18  20
ENDBRANCH   4  16
TORSDOF 5
ENDMDL
