MODEL 1
REMARK VINA RESULT:      -7.7      0.000      0.000
REMARK  Name = 
REMARK  2 active torsions:
REMARK  status: ('A' for Active; 'I' for Inactive)
REMARK    1  A    between atoms: C_1  and  C_2
REMARK    2  A    between atoms: C_9  and  C_10
REMARK                            x       y       z     vdW  Elec       q    Type
REMARK                         _______ _______ _______ _____ _____    ______ ____
ROOT
ATOM      1  C   UNL     1       3.293   1.738  18.468  0.00  0.00    +0.000 C 
ATOM      2  C   UNL     1       4.119   2.937  18.934  0.00  0.00    +0.000 C 
ATOM      3  C   UNL     1       3.348   3.730  20.033  0.00  0.00    +0.000 C 
ATOM      4  N   UNL     1       3.054   5.139  19.790  0.00  0.00    +0.000 N 
ATOM      5  C   UNL     1       3.419   5.883  18.698  0.00  0.00    +0.000 C 
ATOM      6  O   UNL     1       3.127   7.070  18.608  0.00  0.00    +0.000 OA
ATOM      7  C   UNL     1       4.162   5.164  17.686  0.00  0.00    +0.000 A 
ATOM      8  C   UNL     1       4.696   5.619  16.457  0.00  0.00    +0.000 A 
ATOM      9  C   UNL     1       5.343   4.559  15.840  0.00  0.00    +0.000 A 
ATOM     10  N   UNL     1       5.204   3.471  16.683  0.00  0.00    +0.000 N 
ATOM     11  C   UNL     1       4.484   3.829  17.792  0.00  0.00    +0.000 A 
ATOM     12  H   UNL     1       2.553   5.668  20.492  0.00  0.00    +0.000 HD
ATOM     13  H   UNL     1       5.588   2.556  16.475  0.00  0.00    +0.000 HD
ENDROOT
BRANCH   9  14
ATOM     14  C   UNL     1       6.063   4.482  14.570  0.00  0.00    +0.000 A 
ATOM     15  C   UNL     1       5.644   3.653  13.553  0.00  0.00    +0.000 A 
ATOM     16  C   UNL     1       6.414   3.674  12.418  0.00  0.00    +0.000 A 
ATOM     17  N   UNL     1       7.505   4.445  12.283  0.00  0.00    +0.000 NA
ATOM     18  C   UNL     1       7.818   5.228  13.321  0.00  0.00    +0.000 A 
ATOM     19  N   UNL     1       8.947   6.009  13.191  0.00  0.00    +0.000 N 
ATOM     20  N   UNL     1       7.153   5.273  14.480  0.00  0.00    +0.000 NA
ATOM     21  H   UNL     1       9.547   5.603  12.484  0.00  0.00    +0.000 HD
ATOM     22  H   UNL     1       9.354   6.185  14.096  0.00  0.00    +0.000 HD
ENDBRANCH   9  14
TORSDOF 1
ENDMDL
MODEL 2
REMARK VINA RESULT:      -7.5      2.352      6.518
REMARK  Name = 
REMARK  2 active torsions:
REMARK  status: ('A' for Active; 'I' for Inactive)
REMARK    1  A    between atoms: C_1  and  C_2
REMARK    2  A    between atoms: C_9  and  C_10
REMARK                            x       y       z     vdW  Elec       q    Type
REMARK                         _______ _______ _______ _____ _____    ______ ____
ROOT
ATOM      1  C   UNL     1       5.205   3.645  13.899  0.00  0.00    +0.000 C 
ATOM      2  C   UNL     1       5.577   4.746  14.894  0.00  0.00    +0.000 C 
ATOM      3  C   UNL     1       7.103   5.055  14.812  0.00  0.00    +0.000 C 
ATOM      4  N   UNL     1       7.905   4.903  16.022  0.00  0.00    +0.000 N 
ATOM      5  C   UNL     1       7.459   4.548  17.269  0.00  0.00    +0.000 C 
ATOM      6  O   UNL     1       8.227   4.465  18.221  0.00  0.00    +0.000 OA
ATOM      7  C   UNL     1       6.039   4.288  17.362  0.00  0.00    +0.000 A 
ATOM      8  C   UNL     1       5.256   3.917  18.482  0.00  0.00    +0.000 A 
ATOM      9  C   UNL     1       3.935   3.800  18.074  0.00  0.00    +0.000 A 
ATOM     10  N   UNL     1       3.915   4.096  16.723  0.00  0.00    +0.000 N 
ATOM     11  C   UNL     1       5.183   4.380  16.288  0.00  0.00    +0.000 A 
ATOM     12  H   UNL     1       8.897   5.097  15.986  0.00  0.00    +0.000 HD
ATOM     13  H   UNL     1       3.068   4.088  16.166  0.00  0.00    +0.000 HD
ENDROOT
BRANCH   9  14
ATOM     14  C   UNL     1       2.728   3.453  18.821  0.00  0.00    +0.000 A 
ATOM     15  C   UNL     1       1.519   3.262  18.188  0.00  0.00    +0.000 A 
ATOM     16  C   UNL     1       0.466   2.946  19.007  0.00  0.00    +0.000 A 
ATOM     17  N   UNL     1       0.582   2.820  20.339  0.00  0.00    +0.000 NA
ATOM     18  C   UNL     1       1.801   3.007  20.855  0.00  0.00    +0.000 A 
ATOM     19  N   UNL     1       1.920   2.894  22.225  0.00  0.00    +0.000 N 
ATOM     20  N   UNL     1       2.891   3.338  20.155  0.00  0.00    +0.000 NA
ATOM     21  H   UNL     1       1.011   3.041  22.645  0.00  0.00    +0.000 HD
ATOM     22  H   UNL     1       2.680   3.467  22.556  0.00  0.00    +0.000 HD
ENDBRANCH   9  14
TORSDOF 1
ENDMDL
MODEL 3
REMARK VINA RESULT:      -7.3      4.466      6.658
REMARK  Name = 
REMARK  2 active torsions:
REMARK  status: ('A' for Active; 'I' for Inactive)
REMARK    1  A    between atoms: C_1  and  C_2
REMARK    2  A    between atoms: C_9  and  C_10
REMARK                            x       y       z     vdW  Elec       q    Type
REMARK                         _______ _______ _______ _____ _____    ______ ____
ROOT
ATOM      1  C   UNL     1       2.191   3.068  21.729  0.00  0.00    +0.000 C 
ATOM      2  C   UNL     1       2.615   3.082  20.259  0.00  0.00    +0.000 C 
ATOM      3  C   UNL     1       3.835   2.136  20.040  0.00  0.00    +0.000 C 
ATOM      4  N   UNL     1       5.061   2.706  19.491  0.00  0.00    +0.000 N 
ATOM      5  C   UNL     1       5.264   4.004  19.096  0.00  0.00    +0.000 C 
ATOM      6  O   UNL     1       6.339   4.368  18.633  0.00  0.00    +0.000 OA
ATOM      7  C   UNL     1       4.128   4.882  19.267  0.00  0.00    +0.000 A 
ATOM      8  C   UNL     1       3.989   6.257  18.958  0.00  0.00    +0.000 A 
ATOM      9  C   UNL     1       2.701   6.652  19.288  0.00  0.00    +0.000 A 
ATOM     10  N   UNL     1       2.064   5.533  19.792  0.00  0.00    +0.000 N 
ATOM     11  C   UNL     1       2.925   4.467  19.791  0.00  0.00    +0.000 A 
ATOM     12  H   UNL     1       5.863   2.107  19.345  0.00  0.00    +0.000 HD
ATOM     13  H   UNL     1       1.103   5.539  20.112  0.00  0.00    +0.000 HD
ENDROOT
BRANCH   9  14
ATOM     14  C   UNL     1       2.035   7.948  19.168  0.00  0.00    +0.000 A 
ATOM     15  C   UNL     1       2.025   8.647  17.981  0.00  0.00    +0.000 A 
ATOM     16  C   UNL     1       1.370   9.851  18.008  0.00  0.00    +0.000 A 
ATOM     17  N   UNL     1       0.767  10.336  19.106  0.00  0.00    +0.000 NA
ATOM     18  C   UNL     1       0.818   9.574  20.203  0.00  0.00    +0.000 A 
ATOM     19  N   UNL     1       0.213  10.077  21.336  0.00  0.00    +0.000 N 
ATOM     20  N   UNL     1       1.445   8.397  20.296  0.00  0.00    +0.000 NA
ATOM     21  H   UNL     1       0.143  11.083  21.251  0.00  0.00    +0.000 HD
ATOM     22  H   UNL     1       0.664   9.714  22.161  0.00  0.00    +0.000 HD
ENDBRANCH   9  14
TORSDOF 1
ENDMDL
MODEL 4
REMARK VINA RESULT:      -7.3      4.733      6.928
REMARK  Name = 
REMARK  2 active torsions:
REMARK  status: ('A' for Active; 'I' for Inactive)
REMARK    1  A    between atoms: C_1  and  C_2
REMARK    2  A    between atoms: C_9  and  C_10
REMARK                            x       y       z     vdW  Elec       q    Type
REMARK                         _______ _______ _______ _____ _____    ______ ____
ROOT
ATOM      1  C   UNL     1      -0.463   9.166  22.170  0.00  0.00    +0.000 C 
ATOM      2  C   UNL     1       0.880   9.546  21.546  0.00  0.00    +0.000 C 
ATOM      3  C   UNL     1       0.737  10.852  20.707  0.00  0.00    +0.000 C 
ATOM      4  N   UNL     1       1.085  10.805  19.291  0.00  0.00    +0.000 N 
ATOM      5  C   UNL     1       1.575   9.730  18.596  0.00  0.00    +0.000 C 
ATOM      6  O   UNL     1       1.848   9.811  17.404  0.00  0.00    +0.000 OA
ATOM      7  C   UNL     1       1.741   8.521  19.373  0.00  0.00    +0.000 A 
ATOM      8  C   UNL     1       2.227   7.250  18.981  0.00  0.00    +0.000 A 
ATOM      9  C   UNL     1       2.214   6.415  20.089  0.00  0.00    +0.000 A 
ATOM     10  N   UNL     1       1.726   7.168  21.141  0.00  0.00    +0.000 N 
ATOM     11  C   UNL     1       1.430   8.435  20.711  0.00  0.00    +0.000 A 
ATOM     12  H   UNL     1       0.996  11.643  18.731  0.00  0.00    +0.000 HD
ATOM     13  H   UNL     1       1.612   6.802  22.079  0.00  0.00    +0.000 HD
ENDROOT
BRANCH   9  14
ATOM     14  C   UNL     1       2.614   5.018  20.242  0.00  0.00    +0.000 A 
ATOM     15  C   UNL     1       1.855   4.126  20.967  0.00  0.00    +0.000 A 
ATOM     16  C   UNL     1       2.348   2.848  21.035  0.00  0.00    +0.000 A 
ATOM     17  N   UNL     1       3.489   2.467  20.439  0.00  0.00    +0.000 NA
ATOM     18  C   UNL     1       4.143   3.402  19.743  0.00  0.00    +0.000 A 
ATOM     19  N   UNL     1       5.324   3.017  19.143  0.00  0.00    +0.000 N 
ATOM     20  N   UNL     1       3.767   4.680  19.627  0.00  0.00    +0.000 NA
ATOM     21  H   UNL     1       5.681   2.198  19.618  0.00  0.00    +0.000 HD
ATOM     22  H   UNL     1       5.943   3.807  19.057  0.00  0.00    +0.000 HD
ENDBRANCH   9  14
TORSDOF 1
ENDMDL
MODEL 5
REMARK VINA RESULT:      -7.2      3.286      6.603
REMARK  Name = 
REMARK  2 active torsions:
REMARK  status: ('A' for Active; 'I' for Inactive)
REMARK    1  A    between atoms: C_1  and  C_2
REMARK    2  A    between atoms: C_9  and  C_10
REMARK                            x       y       z     vdW  Elec       q    Type
REMARK                         _______ _______ _______ _____ _____    ______ ____
ROOT
ATOM      1  C   UNL     1       5.461   6.649  15.450  0.00  0.00    +0.000 C 
ATOM      2  C   UNL     1       5.663   7.076  16.905  0.00  0.00    +0.000 C 
ATOM      3  C   UNL     1       7.148   7.484  17.147  0.00  0.00    +0.000 C 
ATOM      4  N   UNL     1       7.904   6.768  18.169  0.00  0.00    +0.000 N 
ATOM      5  C   UNL     1       7.442   5.776  18.995  0.00  0.00    +0.000 C 
ATOM      6  O   UNL     1       8.168   5.253  19.832  0.00  0.00    +0.000 OA
ATOM      7  C   UNL     1       6.056   5.411  18.799  0.00  0.00    +0.000 A 
ATOM      8  C   UNL     1       5.266   4.450  19.476  0.00  0.00    +0.000 A 
ATOM      9  C   UNL     1       3.987   4.479  18.940  0.00  0.00    +0.000 A 
ATOM     10  N   UNL     1       3.998   5.444  17.950  0.00  0.00    +0.000 N 
ATOM     11  C   UNL     1       5.246   6.000  17.855  0.00  0.00    +0.000 A 
ATOM     12  H   UNL     1       8.870   7.018  18.337  0.00  0.00    +0.000 HD
ATOM     13  H   UNL     1       3.184   5.675  17.392  0.00  0.00    +0.000 HD
ENDROOT
BRANCH   9  14
ATOM     14  C   UNL     1       2.790   3.707  19.272  0.00  0.00    +0.000 A 
ATOM     15  C   UNL     1       1.895   3.312  18.303  0.00  0.00    +0.000 A 
ATOM     16  C   UNL     1       0.813   2.599  18.751  0.00  0.00    +0.000 A 
ATOM     17  N   UNL     1       0.621   2.289  20.044  0.00  0.00    +0.000 NA
ATOM     18  C   UNL     1       1.556   2.702  20.905  0.00  0.00    +0.000 A 
ATOM     19  N   UNL     1       1.353   2.399  22.235  0.00  0.00    +0.000 N 
ATOM     20  N   UNL     1       2.637   3.420  20.582  0.00  0.00    +0.000 NA
ATOM     21  H   UNL     1       0.366   2.231  22.385  0.00  0.00    +0.000 HD
ATOM     22  H   UNL     1       1.797   3.089  22.820  0.00  0.00    +0.000 HD
ENDBRANCH   9  14
TORSDOF 1
ENDMDL
MODEL 6
REMARK VINA RESULT:      -7.2      1.440      1.543
REMARK  Name = 
REMARK  2 active torsions:
REMARK  status: ('A' for Active; 'I' for Inactive)
REMARK    1  A    between atoms: C_1  and  C_2
REMARK    2  A    between atoms: C_9  and  C_10
REMARK                            x       y       z     vdW  Elec       q    Type
REMARK                         _______ _______ _______ _____ _____    ______ ____
ROOT
ATOM      1  C   UNL     1       1.827   4.040  17.455  0.00  0.00    +0.000 C 
ATOM      2  C   UNL     1       3.084   3.380  18.024  0.00  0.00    +0.000 C 
ATOM      3  C   UNL     1       3.173   3.623  19.561  0.00  0.00    +0.000 C 
ATOM      4  N   UNL     1       4.353   4.302  20.086  0.00  0.00    +0.000 N 
ATOM      5  C   UNL     1       5.445   4.731  19.374  0.00  0.00    +0.000 C 
ATOM      6  O   UNL     1       6.391   5.280  19.927  0.00  0.00    +0.000 OA
ATOM      7  C   UNL     1       5.385   4.482  17.951  0.00  0.00    +0.000 A 
ATOM      8  C   UNL     1       6.328   4.778  16.937  0.00  0.00    +0.000 A 
ATOM      9  C   UNL     1       5.825   4.329  15.725  0.00  0.00    +0.000 A 
ATOM     10  N   UNL     1       4.591   3.767  15.997  0.00  0.00    +0.000 N 
ATOM     11  C   UNL     1       4.318   3.868  17.336  0.00  0.00    +0.000 A 
ATOM     12  H   UNL     1       4.427   4.470  21.081  0.00  0.00    +0.000 HD
ATOM     13  H   UNL     1       4.000   3.356  15.284  0.00  0.00    +0.000 HD
ENDROOT
BRANCH   9  14
ATOM     14  C   UNL     1       6.389   4.374  14.377  0.00  0.00    +0.000 A 
ATOM     15  C   UNL     1       5.885   3.595  13.359  0.00  0.00    +0.000 A 
ATOM     16  C   UNL     1       6.509   3.730  12.146  0.00  0.00    +0.000 A 
ATOM     17  N   UNL     1       7.541   4.564  11.938  0.00  0.00    +0.000 NA
ATOM     18  C   UNL     1       7.944   5.291  12.986  0.00  0.00    +0.000 A 
ATOM     19  N   UNL     1       9.014   6.137  12.779  0.00  0.00    +0.000 N 
ATOM     20  N   UNL     1       7.424   5.224  14.216  0.00  0.00    +0.000 NA
ATOM     21  H   UNL     1       9.541   5.809  11.979  0.00  0.00    +0.000 HD
ATOM     22  H   UNL     1       9.520   6.273  13.640  0.00  0.00    +0.000 HD
ENDBRANCH   9  14
TORSDOF 1
ENDMDL
MODEL 7
REMARK VINA RESULT:      -7.2      4.285      6.551
REMARK  Name = 
REMARK  2 active torsions:
REMARK  status: ('A' for Active; 'I' for Inactive)
REMARK    1  A    between atoms: C_1  and  C_2
REMARK    2  A    between atoms: C_9  and  C_10
REMARK                            x       y       z     vdW  Elec       q    Type
REMARK                         _______ _______ _______ _____ _____    ______ ____
ROOT
ATOM      1  C   UNL     1       0.851   2.569  18.905  0.00  0.00    +0.000 C 
ATOM      2  C   UNL     1       2.011   3.006  18.010  0.00  0.00    +0.000 C 
ATOM      3  C   UNL     1       3.164   1.959  18.068  0.00  0.00    +0.000 C 
ATOM      4  N   UNL     1       4.483   2.406  18.506  0.00  0.00    +0.000 N 
ATOM      5  C   UNL     1       4.852   3.682  18.844  0.00  0.00    +0.000 C 
ATOM      6  O   UNL     1       5.999   3.946  19.185  0.00  0.00    +0.000 OA
ATOM      7  C   UNL     1       3.796   4.668  18.763  0.00  0.00    +0.000 A 
ATOM      8  C   UNL     1       3.831   6.059  19.025  0.00  0.00    +0.000 A 
ATOM      9  C   UNL     1       2.568   6.582  18.789  0.00  0.00    +0.000 A 
ATOM     10  N   UNL     1       1.774   5.522  18.389  0.00  0.00    +0.000 N 
ATOM     11  C   UNL     1       2.509   4.366  18.382  0.00  0.00    +0.000 A 
ATOM     12  H   UNL     1       5.242   1.739  18.552  0.00  0.00    +0.000 HD
ATOM     13  H   UNL     1       0.795   5.623  18.149  0.00  0.00    +0.000 HD
ENDROOT
BRANCH   9  14
ATOM     14  C   UNL     1       2.060   7.948  18.897  0.00  0.00    +0.000 A 
ATOM     15  C   UNL     1       2.128   8.828  17.839  0.00  0.00    +0.000 A 
ATOM     16  C   UNL     1       1.620  10.079  18.077  0.00  0.00    +0.000 A 
ATOM     17  N   UNL     1       1.083  10.444  19.253  0.00  0.00    +0.000 NA
ATOM     18  C   UNL     1       1.047   9.512  20.210  0.00  0.00    +0.000 A 
ATOM     19  N   UNL     1       0.510   9.889  21.424  0.00  0.00    +0.000 N 
ATOM     20  N   UNL     1       1.531   8.271  20.096  0.00  0.00    +0.000 NA
ATOM     21  H   UNL     1       0.560  10.897  21.505  0.00  0.00    +0.000 HD
ATOM     22  H   UNL     1       0.919   9.346  22.168  0.00  0.00    +0.000 HD
ENDBRANCH   9  14
TORSDOF 1
ENDMDL
MODEL 8
REMARK VINA RESULT:      -7.1      4.764      6.531
REMARK  Name = 
REMARK  2 active torsions:
REMARK  status: ('A' for Active; 'I' for Inactive)
REMARK    1  A    between atoms: C_1  and  C_2
REMARK    2  A    between atoms: C_9  and  C_10
REMARK                            x       y       z     vdW  Elec       q    Type
REMARK                         _______ _______ _______ _____ _____    ______ ____
ROOT
ATOM      1  C   UNL     1      -0.364   8.429  21.866  0.00  0.00    +0.000 C 
ATOM      2  C   UNL     1       0.962   8.990  21.352  0.00  0.00    +0.000 C 
ATOM      3  C   UNL     1       0.751  10.414  20.753  0.00  0.00    +0.000 C 
ATOM      4  N   UNL     1       1.120  10.640  19.360  0.00  0.00    +0.000 N 
ATOM      5  C   UNL     1       1.685   9.735  18.498  0.00  0.00    +0.000 C 
ATOM      6  O   UNL     1       1.968  10.043  17.345  0.00  0.00    +0.000 OA
ATOM      7  C   UNL     1       1.914   8.419  19.053  0.00  0.00    +0.000 A 
ATOM      8  C   UNL     1       2.481   7.268  18.455  0.00  0.00    +0.000 A 
ATOM      9  C   UNL     1       2.504   6.251  19.397  0.00  0.00    +0.000 A 
ATOM     10  N   UNL     1       1.957   6.775  20.554  0.00  0.00    +0.000 N 
ATOM     11  C   UNL     1       1.590   8.079  20.347  0.00  0.00    +0.000 A 
ATOM     12  H   UNL     1       0.988  11.558  18.955  0.00  0.00    +0.000 HD
ATOM     13  H   UNL     1       1.853   6.242  21.409  0.00  0.00    +0.000 HD
ENDROOT
BRANCH   9  14
ATOM     14  C   UNL     1       2.987   4.874  19.310  0.00  0.00    +0.000 A 
ATOM     15  C   UNL     1       4.320   4.566  19.469  0.00  0.00    +0.000 A 
ATOM     16  C   UNL     1       4.637   3.236  19.358  0.00  0.00    +0.000 A 
ATOM     17  N   UNL     1       3.726   2.280  19.115  0.00  0.00    +0.000 NA
ATOM     18  C   UNL     1       2.456   2.679  18.996  0.00  0.00    +0.000 A 
ATOM     19  N   UNL     1       1.520   1.701  18.731  0.00  0.00    +0.000 N 
ATOM     20  N   UNL     1       2.037   3.947  19.064  0.00  0.00    +0.000 NA
ATOM     21  H   UNL     1       1.988   0.903  18.320  0.00  0.00    +0.000 HD
ATOM     22  H   UNL     1       0.744   2.092  18.222  0.00  0.00    +0.000 HD
ENDBRANCH   9  14
TORSDOF 1
ENDMDL
MODEL 9
REMARK VINA RESULT:      -7.1      1.494      2.251
REMARK  Name = 
REMARK  2 active torsions:
REMARK  status: ('A' for Active; 'I' for Inactive)
REMARK    1  A    between atoms: C_1  and  C_2
REMARK    2  A    between atoms: C_9  and  C_10
REMARK                            x       y       z     vdW  Elec       q    Type
REMARK                         _______ _______ _______ _____ _____    ______ ____
ROOT
ATOM      1  C   UNL     1       3.101   7.392  18.137  0.00  0.00    +0.000 C 
ATOM      2  C   UNL     1       2.807   5.893  18.066  0.00  0.00    +0.000 C 
ATOM      3  C   UNL     1       2.531   5.328  19.493  0.00  0.00    +0.000 C 
ATOM      4  N   UNL     1       3.380   4.249  19.986  0.00  0.00    +0.000 N 
ATOM      5  C   UNL     1       4.398   3.625  19.311  0.00  0.00    +0.000 C 
ATOM      6  O   UNL     1       5.039   2.714  19.823  0.00  0.00    +0.000 OA
ATOM      7  C   UNL     1       4.642   4.121  17.974  0.00  0.00    +0.000 A 
ATOM      8  C   UNL     1       5.592   3.704  17.011  0.00  0.00    +0.000 A 
ATOM      9  C   UNL     1       5.426   4.474  15.869  0.00  0.00    +0.000 A 
ATOM     10  N   UNL     1       4.389   5.349  16.134  0.00  0.00    +0.000 N 
ATOM     11  C   UNL     1       3.921   5.146  17.406  0.00  0.00    +0.000 A 
ATOM     12  H   UNL     1       3.217   3.873  20.910  0.00  0.00    +0.000 HD
ATOM     13  H   UNL     1       4.054   6.031  15.464  0.00  0.00    +0.000 HD
ENDROOT
BRANCH   9  14
ATOM     14  C   UNL     1       6.131   4.455  14.589  0.00  0.00    +0.000 A 
ATOM     15  C   UNL     1       5.704   3.667  13.543  0.00  0.00    +0.000 A 
ATOM     16  C   UNL     1       6.459   3.740  12.400  0.00  0.00    +0.000 A 
ATOM     17  N   UNL     1       7.544   4.523  12.284  0.00  0.00    +0.000 NA
ATOM     18  C   UNL     1       7.865   5.264  13.349  0.00  0.00    +0.000 A 
ATOM     19  N   UNL     1       8.987   6.058  13.238  0.00  0.00    +0.000 N 
ATOM     20  N   UNL     1       7.214   5.256  14.518  0.00  0.00    +0.000 NA
ATOM     21  H   UNL     1       9.581   5.685  12.508  0.00  0.00    +0.000 HD
ATOM     22  H   UNL     1       9.404   6.199  14.145  0.00  0.00    +0.000 HD
ENDBRANCH   9  14
TORSDOF 1
ENDMDL
