MODEL 1
REMARK VINA RESULT:      -7.6      0.000      0.000
REMARK  Name = 
REMARK  6 active torsions:
REMARK  status: ('A' for Active; 'I' for Inactive)
REMARK    1  A    between atoms: C_2  and  C_14
REMARK    2  A    between atoms: N_3  and  C_4
REMARK    3  A    between atoms: C_10  and  C_11
REMARK    4  A    between atoms: C_11  and  O_13
REMARK    5  A    between atoms: C_17  and  S_18
REMARK    6  A    between atoms: S_18  and  C_19
REMARK                            x       y       z     vdW  Elec       q    Type
REMARK                         _______ _______ _______ _____ _____    ______ ____
ROOT
ATOM      1  O   UNL     1       2.147   8.973  17.361  0.00  0.00    +0.000 OA
ATOM      2  C   UNL     1       2.115   8.397  18.441  0.00  0.00    +0.000 C 
ATOM      3  N   UNL     1       2.716   7.189  18.749  0.00  0.00    +0.000 N 
ATOM      4  H   UNL     1       2.377   6.698  19.579  0.00  0.00    +0.000 HD
ENDROOT
BRANCH   3   5
ATOM      5  C   UNL     1       3.549   6.424  17.882  0.00  0.00    +0.000 A 
ATOM      6  C   UNL     1       4.680   6.987  17.272  0.00  0.00    +0.000 A 
ATOM      7  C   UNL     1       5.480   6.241  16.400  0.00  0.00    +0.000 A 
ATOM      8  C   UNL     1       5.155   4.923  16.122  0.00  0.00    +0.000 A 
ATOM      9 BR   UNL     1       6.230   3.928  14.929  0.00  0.00    +0.000 Br
ATOM     10  C   UNL     1       4.048   4.328  16.722  0.00  0.00    +0.000 A 
ATOM     11  C   UNL     1       3.259   5.065  17.623  0.00  0.00    +0.000 A 
BRANCH  11  12
ATOM     12  C   UNL     1       2.085   4.416  18.266  0.00  0.00    +0.000 C 
ATOM     13  O   UNL     1       1.908   4.431  19.474  0.00  0.00    +0.000 OA
BRANCH  12  14
ATOM     14  O   UNL     1       1.283   3.741  17.418  0.00  0.00    +0.000 OA
ATOM     15  H   UNL     1       0.470   4.198  17.136  0.00  0.00    +0.000 HD
ENDBRANCH  12  14
ENDBRANCH  11  12
ENDBRANCH   3   5
BRANCH   2  16
ATOM     16  C   UNL     1       1.303   9.014  19.509  0.00  0.00    +0.000 A 
ATOM     17  C   UNL     1       0.475  10.116  19.311  0.00  0.00    +0.000 A 
ATOM     18  C   UNL     1      -0.262  10.608  20.393  0.00  0.00    +0.000 A 
ATOM     19  C   UNL     1      -0.141   9.988  21.635  0.00  0.00    +0.000 A 
ATOM     20  N   UNL     1       0.615   8.887  21.829  0.00  0.00    +0.000 NA
ATOM     21  C   UNL     1       1.317   8.424  20.767  0.00  0.00    +0.000 A 
BRANCH  19  22
ATOM     22  S   UNL     1      -0.988  10.673  23.042  0.00  0.00    +0.000 S 
BRANCH  22  23
ATOM     23  C   UNL     1      -1.717  12.215  22.328  0.00  0.00    +0.000 C 
ATOM     24  C   UNL     1      -0.853  13.396  22.791  0.00  0.00    +0.000 C 
ATOM     25  C   UNL     1      -1.501  14.731  22.447  0.00  0.00    +0.000 C 
ATOM     26  O   UNL     1      -2.828  14.799  22.964  0.00  0.00    +0.000 OA
ATOM     27  C   UNL     1      -3.668  13.808  22.380  0.00  0.00    +0.000 C 
ATOM     28  C   UNL     1      -3.180  12.414  22.744  0.00  0.00    +0.000 C 
ENDBRANCH  22  23
ENDBRANCH  19  22
ENDBRANCH   2  16
TORSDOF 6
ENDMDL
MODEL 2
REMARK VINA RESULT:      -7.4      4.468      9.636
REMARK  Name = 
REMARK  6 active torsions:
REMARK  status: ('A' for Active; 'I' for Inactive)
REMARK    1  A    between atoms: C_2  and  C_14
REMARK    2  A    between atoms: N_3  and  C_4
REMARK    3  A    between atoms: C_10  and  C_11
REMARK    4  A    between atoms: C_11  and  O_13
REMARK    5  A    between atoms: C_17  and  S_18
REMARK    6  A    between atoms: S_18  and  C_19
REMARK                            x       y       z     vdW  Elec       q    Type
REMARK                         _______ _______ _______ _____ _____    ______ ____
ROOT
ATOM      1  O   UNL     1       1.428  11.476  19.210  0.00  0.00    +0.000 OA
ATOM      2  C   UNL     1       0.868  10.430  19.516  0.00  0.00    +0.000 C 
ATOM      3  N   UNL     1      -0.300  10.305  20.249  0.00  0.00    +0.000 N 
ATOM      4  H   UNL     1      -0.492   9.390  20.664  0.00  0.00    +0.000 HD
ENDROOT
BRANCH   3   5
ATOM      5  C   UNL     1      -1.109  11.377  20.724  0.00  0.00    +0.000 A 
ATOM      6  C   UNL     1      -1.081  11.772  22.070  0.00  0.00    +0.000 A 
ATOM      7  C   UNL     1      -1.897  12.806  22.539  0.00  0.00    +0.000 A 
ATOM      8  C   UNL     1      -2.758  13.455  21.668  0.00  0.00    +0.000 A 
ATOM      9 BR   UNL     1      -3.870  14.840  22.312  0.00  0.00    +0.000 Br
ATOM     10  C   UNL     1      -2.800  13.099  20.323  0.00  0.00    +0.000 A 
ATOM     11  C   UNL     1      -1.958  12.080  19.841  0.00  0.00    +0.000 A 
BRANCH  11  12
ATOM     12  C   UNL     1      -2.004  11.715  18.400  0.00  0.00    +0.000 C 
ATOM     13  O   UNL     1      -2.561  10.706  17.996  0.00  0.00    +0.000 OA
BRANCH  12  14
ATOM     14  O   UNL     1      -1.310  12.540  17.589  0.00  0.00    +0.000 OA
ATOM     15  H   UNL     1      -1.812  13.271  17.185  0.00  0.00    +0.000 HD
ENDBRANCH  12  14
ENDBRANCH  11  12
ENDBRANCH   3   5
BRANCH   2  16
ATOM     16  C   UNL     1       1.531   9.171  19.121  0.00  0.00    +0.000 A 
ATOM     17  C   UNL     1       2.103   8.959  17.870  0.00  0.00    +0.000 A 
ATOM     18  C   UNL     1       2.720   7.731  17.610  0.00  0.00    +0.000 A 
ATOM     19  C   UNL     1       2.737   6.757  18.606  0.00  0.00    +0.000 A 
ATOM     20  N   UNL     1       2.235   6.968  19.841  0.00  0.00    +0.000 NA
ATOM     21  C   UNL     1       1.647   8.166  20.072  0.00  0.00    +0.000 A 
BRANCH  19  22
ATOM     22  S   UNL     1       3.421   5.152  18.250  0.00  0.00    +0.000 S 
BRANCH  22  23
ATOM     23  C   UNL     1       5.152   5.582  17.765  0.00  0.00    +0.000 C 
ATOM     24  C   UNL     1       5.532   4.702  16.566  0.00  0.00    +0.000 C 
ATOM     25  C   UNL     1       7.015   4.814  16.236  0.00  0.00    +0.000 C 
ATOM     26  O   UNL     1       7.811   4.533  17.384  0.00  0.00    +0.000 OA
ATOM     27  C   UNL     1       7.582   5.477  18.425  0.00  0.00    +0.000 C 
ATOM     28  C   UNL     1       6.145   5.387  18.918  0.00  0.00    +0.000 C 
ENDBRANCH  22  23
ENDBRANCH  19  22
ENDBRANCH   2  16
TORSDOF 6
ENDMDL
MODEL 3
REMARK VINA RESULT:      -7.4      0.604      1.163
REMARK  Name = 
REMARK  6 active torsions:
REMARK  status: ('A' for Active; 'I' for Inactive)
REMARK    1  A    between atoms: C_2  and  C_14
REMARK    2  A    between atoms: N_3  and  C_4
REMARK    3  A    between atoms: C_10  and  C_11
REMARK    4  A    between atoms: C_11  and  O_13
REMARK    5  A    between atoms: C_17  and  S_18
REMARK    6  A    between atoms: S_18  and  C_19
REMARK                            x       y       z     vdW  Elec       q    Type
REMARK                         _______ _______ _______ _____ _____    ______ ____
ROOT
ATOM      1  O   UNL     1       2.100   8.810  17.478  0.00  0.00    +0.000 OA
ATOM      2  C   UNL     1       2.175   8.219  18.548  0.00  0.00    +0.000 C 
ATOM      3  N   UNL     1       2.844   7.031  18.788  0.00  0.00    +0.000 N 
ATOM      4  H   UNL     1       2.590   6.517  19.634  0.00  0.00    +0.000 HD
ENDROOT
BRANCH   3   5
ATOM      5  C   UNL     1       3.635   6.311  17.846  0.00  0.00    +0.000 A 
ATOM      6  C   UNL     1       4.737   6.905  17.213  0.00  0.00    +0.000 A 
ATOM      7  C   UNL     1       5.494   6.205  16.269  0.00  0.00    +0.000 A 
ATOM      8  C   UNL     1       5.155   4.902  15.940  0.00  0.00    +0.000 A 
ATOM      9 BR   UNL     1       6.172   3.969  14.650  0.00  0.00    +0.000 Br
ATOM     10  C   UNL     1       4.077   4.277  16.561  0.00  0.00    +0.000 A 
ATOM     11  C   UNL     1       3.331   4.967  17.534  0.00  0.00    +0.000 A 
BRANCH  11  12
ATOM     12  C   UNL     1       2.188   4.286  18.197  0.00  0.00    +0.000 C 
ATOM     13  O   UNL     1       1.226   3.862  17.575  0.00  0.00    +0.000 OA
BRANCH  12  14
ATOM     14  O   UNL     1       2.260   4.251  19.544  0.00  0.00    +0.000 OA
ATOM     15  H   UNL     1       1.420   4.369  20.024  0.00  0.00    +0.000 HD
ENDBRANCH  12  14
ENDBRANCH  11  12
ENDBRANCH   3   5
BRANCH   2  16
ATOM     16  C   UNL     1       1.427   8.789  19.686  0.00  0.00    +0.000 A 
ATOM     17  C   UNL     1       1.443   8.249  20.969  0.00  0.00    +0.000 A 
ATOM     18  C   UNL     1       0.708   8.882  21.977  0.00  0.00    +0.000 A 
ATOM     19  C   UNL     1      -0.023  10.027  21.666  0.00  0.00    +0.000 A 
ATOM     20  N   UNL     1      -0.005  10.592  20.440  0.00  0.00    +0.000 NA
ATOM     21  C   UNL     1       0.717   9.965  19.481  0.00  0.00    +0.000 A 
BRANCH  19  22
ATOM     22  S   UNL     1      -1.049  10.777  22.911  0.00  0.00    +0.000 S 
BRANCH  22  23
ATOM     23  C   UNL     1      -1.613  12.316  22.055  0.00  0.00    +0.000 C 
ATOM     24  C   UNL     1      -0.765  13.480  22.586  0.00  0.00    +0.000 C 
ATOM     25  C   UNL     1      -1.305  14.825  22.115  0.00  0.00    +0.000 C 
ATOM     26  O   UNL     1      -2.682  14.964  22.454  0.00  0.00    +0.000 OA
ATOM     27  C   UNL     1      -3.484  13.984  21.800  0.00  0.00    +0.000 C 
ATOM     28  C   UNL     1      -3.107  12.588  22.272  0.00  0.00    +0.000 C 
ENDBRANCH  22  23
ENDBRANCH  19  22
ENDBRANCH   2  16
TORSDOF 6
ENDMDL
MODEL 4
REMARK VINA RESULT:      -7.4      4.406      9.386
REMARK  Name = 
REMARK  6 active torsions:
REMARK  status: ('A' for Active; 'I' for Inactive)
REMARK    1  A    between atoms: C_2  and  C_14
REMARK    2  A    between atoms: N_3  and  C_4
REMARK    3  A    between atoms: C_10  and  C_11
REMARK    4  A    between atoms: C_11  and  O_13
REMARK    5  A    between atoms: C_17  and  S_18
REMARK    6  A    between atoms: S_18  and  C_19
REMARK                            x       y       z     vdW  Elec       q    Type
REMARK                         _______ _______ _______ _____ _____    ______ ____
ROOT
ATOM      1  O   UNL     1      -0.482  10.117  18.678  0.00  0.00    +0.000 OA
ATOM      2  C   UNL     1       0.457   9.869  19.424  0.00  0.00    +0.000 C 
ATOM      3  N   UNL     1       0.702  10.443  20.659  0.00  0.00    +0.000 N 
ATOM      4  H   UNL     1       1.650  10.355  21.033  0.00  0.00    +0.000 HD
ENDROOT
BRANCH   3   5
ATOM      5  C   UNL     1      -0.137  11.380  21.328  0.00  0.00    +0.000 A 
ATOM      6  C   UNL     1      -0.452  12.620  20.751  0.00  0.00    +0.000 A 
ATOM      7  C   UNL     1      -1.253  13.549  21.422  0.00  0.00    +0.000 A 
ATOM      8  C   UNL     1      -1.746  13.253  22.683  0.00  0.00    +0.000 A 
ATOM      9 BR   UNL     1      -2.813  14.520  23.591  0.00  0.00    +0.000 Br
ATOM     10  C   UNL     1      -1.465  12.026  23.279  0.00  0.00    +0.000 A 
ATOM     11  C   UNL     1      -0.685  11.076  22.594  0.00  0.00    +0.000 A 
BRANCH  11  12
ATOM     12  C   UNL     1      -0.401   9.765  23.236  0.00  0.00    +0.000 C 
ATOM     13  O   UNL     1       0.426   9.636  24.125  0.00  0.00    +0.000 OA
BRANCH  12  14
ATOM     14  O   UNL     1      -1.065   8.721  22.699  0.00  0.00    +0.000 OA
ATOM     15  H   UNL     1      -0.674   8.327  21.898  0.00  0.00    +0.000 HD
ENDBRANCH  12  14
ENDBRANCH  11  12
ENDBRANCH   3   5
BRANCH   2  16
ATOM     16  C   UNL     1       1.468   8.910  18.936  0.00  0.00    +0.000 A 
ATOM     17  C   UNL     1       2.162   9.061  17.739  0.00  0.00    +0.000 A 
ATOM     18  C   UNL     1       3.111   8.098  17.383  0.00  0.00    +0.000 A 
ATOM     19  C   UNL     1       3.328   7.014  18.231  0.00  0.00    +0.000 A 
ATOM     20  N   UNL     1       2.703   6.882  19.420  0.00  0.00    +0.000 NA
ATOM     21  C   UNL     1       1.791   7.829  19.747  0.00  0.00    +0.000 A 
BRANCH  19  22
ATOM     22  S   UNL     1       4.452   5.725  17.737  0.00  0.00    +0.000 S 
BRANCH  22  23
ATOM     23  C   UNL     1       3.635   4.224  18.445  0.00  0.00    +0.000 C 
ATOM     24  C   UNL     1       4.686   3.467  19.269  0.00  0.00    +0.000 C 
ATOM     25  C   UNL     1       4.178   2.099  19.703  0.00  0.00    +0.000 C 
ATOM     26  O   UNL     1       3.730   1.345  18.579  0.00  0.00    +0.000 OA
ATOM     27  C   UNL     1       2.626   1.973  17.934  0.00  0.00    +0.000 C 
ATOM     28  C   UNL     1       3.041   3.318  17.358  0.00  0.00    +0.000 C 
ENDBRANCH  22  23
ENDBRANCH  19  22
ENDBRANCH   2  16
TORSDOF 6
ENDMDL
MODEL 5
REMARK VINA RESULT:      -7.3      4.142      8.739
REMARK  Name = 
REMARK  6 active torsions:
REMARK  status: ('A' for Active; 'I' for Inactive)
REMARK    1  A    between atoms: C_2  and  C_14
REMARK    2  A    between atoms: N_3  and  C_4
REMARK    3  A    between atoms: C_10  and  C_11
REMARK    4  A    between atoms: C_11  and  O_13
REMARK    5  A    between atoms: C_17  and  S_18
REMARK    6  A    between atoms: S_18  and  C_19
REMARK                            x       y       z     vdW  Elec       q    Type
REMARK                         _______ _______ _______ _____ _____    ______ ____
ROOT
ATOM      1  O   UNL     1       1.771  10.197  17.985  0.00  0.00    +0.000 OA
ATOM      2  C   UNL     1       1.506   9.276  18.748  0.00  0.00    +0.000 C 
ATOM      3  N   UNL     1       0.549   9.285  19.748  0.00  0.00    +0.000 N 
ATOM      4  H   UNL     1       0.630   8.572  20.476  0.00  0.00    +0.000 HD
ENDROOT
BRANCH   3   5
ATOM      5  C   UNL     1      -0.359  10.346  20.028  0.00  0.00    +0.000 A 
ATOM      6  C   UNL     1      -1.040  11.015  19.000  0.00  0.00    +0.000 A 
ATOM      7  C   UNL     1      -1.910  12.074  19.275  0.00  0.00    +0.000 A 
ATOM      8  C   UNL     1      -2.106  12.484  20.585  0.00  0.00    +0.000 A 
ATOM      9 BR   UNL     1      -3.269  13.928  20.948  0.00  0.00    +0.000 Br
ATOM     10  C   UNL     1      -1.458  11.833  21.631  0.00  0.00    +0.000 A 
ATOM     11  C   UNL     1      -0.606  10.747  21.361  0.00  0.00    +0.000 A 
BRANCH  11  12
ATOM     12  C   UNL     1       0.072  10.052  22.487  0.00  0.00    +0.000 C 
ATOM     13  O   UNL     1       1.279   9.870  22.514  0.00  0.00    +0.000 OA
BRANCH  12  14
ATOM     14  O   UNL     1      -0.761   9.566  23.430  0.00  0.00    +0.000 OA
ATOM     15  H   UNL     1      -1.507  10.140  23.683  0.00  0.00    +0.000 HD
ENDBRANCH  12  14
ENDBRANCH  11  12
ENDBRANCH   3   5
BRANCH   2  16
ATOM     16  C   UNL     1       2.327   8.054  18.640  0.00  0.00    +0.000 A 
ATOM     17  C   UNL     1       3.146   7.768  17.551  0.00  0.00    +0.000 A 
ATOM     18  C   UNL     1       3.895   6.587  17.562  0.00  0.00    +0.000 A 
ATOM     19  C   UNL     1       3.793   5.729  18.656  0.00  0.00    +0.000 A 
ATOM     20  N   UNL     1       3.046   6.020  19.742  0.00  0.00    +0.000 NA
ATOM     21  C   UNL     1       2.334   7.171  19.712  0.00  0.00    +0.000 A 
BRANCH  19  22
ATOM     22  S   UNL     1       4.653   4.172  18.632  0.00  0.00    +0.000 S 
BRANCH  22  23
ATOM     23  C   UNL     1       3.318   2.998  19.144  0.00  0.00    +0.000 C 
ATOM     24  C   UNL     1       2.116   3.229  18.219  0.00  0.00    +0.000 C 
ATOM     25  C   UNL     1       0.884   2.475  18.703  0.00  0.00    +0.000 C 
ATOM     26  O   UNL     1       0.591   2.803  20.059  0.00  0.00    +0.000 OA
ATOM     27  C   UNL     1       1.645   2.409  20.933  0.00  0.00    +0.000 C 
ATOM     28  C   UNL     1       2.917   3.180  20.613  0.00  0.00    +0.000 C 
ENDBRANCH  22  23
ENDBRANCH  19  22
ENDBRANCH   2  16
TORSDOF 6
ENDMDL
MODEL 6
REMARK VINA RESULT:      -7.3      4.335      9.634
REMARK  Name = 
REMARK  6 active torsions:
REMARK  status: ('A' for Active; 'I' for Inactive)
REMARK    1  A    between atoms: C_2  and  C_14
REMARK    2  A    between atoms: N_3  and  C_4
REMARK    3  A    between atoms: C_10  and  C_11
REMARK    4  A    between atoms: C_11  and  O_13
REMARK    5  A    between atoms: C_17  and  S_18
REMARK    6  A    between atoms: S_18  and  C_19
REMARK                            x       y       z     vdW  Elec       q    Type
REMARK                         _______ _______ _______ _____ _____    ______ ____
ROOT
ATOM      1  O   UNL     1       1.818   8.833  22.130  0.00  0.00    +0.000 OA
ATOM      2  C   UNL     1       1.286   8.631  21.045  0.00  0.00    +0.000 C 
ATOM      3  N   UNL     1       0.237   9.346  20.495  0.00  0.00    +0.000 N 
ATOM      4  H   UNL     1      -0.282   8.901  19.735  0.00  0.00    +0.000 HD
ENDROOT
BRANCH   3   5
ATOM      5  C   UNL     1      -0.374  10.503  21.060  0.00  0.00    +0.000 A 
ATOM      6  C   UNL     1      -0.901  10.489  22.360  0.00  0.00    +0.000 A 
ATOM      7  C   UNL     1      -1.525  11.618  22.901  0.00  0.00    +0.000 A 
ATOM      8  C   UNL     1      -1.635  12.775  22.146  0.00  0.00    +0.000 A 
ATOM      9 BR   UNL     1      -2.494  14.290  22.878  0.00  0.00    +0.000 Br
ATOM     10  C   UNL     1      -1.109  12.828  20.858  0.00  0.00    +0.000 A 
ATOM     11  C   UNL     1      -0.453  11.705  20.321  0.00  0.00    +0.000 A 
BRANCH  11  12
ATOM     12  C   UNL     1       0.113  11.777  18.948  0.00  0.00    +0.000 C 
ATOM     13  O   UNL     1       1.198  11.296  18.661  0.00  0.00    +0.000 OA
BRANCH  12  14
ATOM     14  O   UNL     1      -0.626  12.488  18.072  0.00  0.00    +0.000 OA
ATOM     15  H   UNL     1      -0.479  12.295  17.128  0.00  0.00    +0.000 HD
ENDBRANCH  12  14
ENDBRANCH  11  12
ENDBRANCH   3   5
BRANCH   2  16
ATOM     16  C   UNL     1       1.764   7.469  20.268  0.00  0.00    +0.000 A 
ATOM     17  C   UNL     1       1.606   6.148  20.679  0.00  0.00    +0.000 A 
ATOM     18  C   UNL     1       2.084   5.125  19.854  0.00  0.00    +0.000 A 
ATOM     19  C   UNL     1       2.708   5.456  18.653  0.00  0.00    +0.000 A 
ATOM     20  N   UNL     1       2.818   6.729  18.217  0.00  0.00    +0.000 NA
ATOM     21  C   UNL     1       2.345   7.704  19.029  0.00  0.00    +0.000 A 
BRANCH  19  22
ATOM     22  S   UNL     1       3.418   4.169  17.649  0.00  0.00    +0.000 S 
BRANCH  22  23
ATOM     23  C   UNL     1       5.042   4.917  17.175  0.00  0.00    +0.000 C 
ATOM     24  C   UNL     1       5.537   4.193  15.916  0.00  0.00    +0.000 C 
ATOM     25  C   UNL     1       6.973   4.576  15.578  0.00  0.00    +0.000 C 
ATOM     26  O   UNL     1       7.830   4.360  16.696  0.00  0.00    +0.000 OA
ATOM     27  C   UNL     1       7.468   5.183  17.801  0.00  0.00    +0.000 C 
ATOM     28  C   UNL     1       6.078   4.819  18.302  0.00  0.00    +0.000 C 
ENDBRANCH  22  23
ENDBRANCH  19  22
ENDBRANCH   2  16
TORSDOF 6
ENDMDL
MODEL 7
REMARK VINA RESULT:      -7.3      4.387      9.718
REMARK  Name = 
REMARK  6 active torsions:
REMARK  status: ('A' for Active; 'I' for Inactive)
REMARK    1  A    between atoms: C_2  and  C_14
REMARK    2  A    between atoms: N_3  and  C_4
REMARK    3  A    between atoms: C_10  and  C_11
REMARK    4  A    between atoms: C_11  and  O_13
REMARK    5  A    between atoms: C_17  and  S_18
REMARK    6  A    between atoms: S_18  and  C_19
REMARK                            x       y       z     vdW  Elec       q    Type
REMARK                         _______ _______ _______ _____ _____    ______ ____
ROOT
ATOM      1  O   UNL     1       1.556   8.969  22.178  0.00  0.00    +0.000 OA
ATOM      2  C   UNL     1       1.114   8.912  21.037  0.00  0.00    +0.000 C 
ATOM      3  N   UNL     1       0.070   9.659  20.519  0.00  0.00    +0.000 N 
ATOM      4  H   UNL     1      -0.369   9.313  19.663  0.00  0.00    +0.000 HD
ENDROOT
BRANCH   3   5
ATOM      5  C   UNL     1      -0.639  10.690  21.199  0.00  0.00    +0.000 A 
ATOM      6  C   UNL     1      -0.956  10.582  22.561  0.00  0.00    +0.000 A 
ATOM      7  C   UNL     1      -1.677  11.584  23.219  0.00  0.00    +0.000 A 
ATOM      8  C   UNL     1      -2.095  12.706  22.521  0.00  0.00    +0.000 A 
ATOM      9 BR   UNL     1      -3.083  14.047  23.413  0.00  0.00    +0.000 Br
ATOM     10  C   UNL     1      -1.784  12.853  21.172  0.00  0.00    +0.000 A 
ATOM     11  C   UNL     1      -1.033  11.862  20.514  0.00  0.00    +0.000 A 
BRANCH  11  12
ATOM     12  C   UNL     1      -0.698  12.034  19.075  0.00  0.00    +0.000 C 
ATOM     13  O   UNL     1       0.401  11.758  18.620  0.00  0.00    +0.000 OA
BRANCH  12  14
ATOM     14  O   UNL     1      -1.674  12.599  18.335  0.00  0.00    +0.000 OA
ATOM     15  H   UNL     1      -2.549  12.171  18.377  0.00  0.00    +0.000 HD
ENDBRANCH  12  14
ENDBRANCH  11  12
ENDBRANCH   3   5
BRANCH   2  16
ATOM     16  C   UNL     1       1.706   7.902  20.137  0.00  0.00    +0.000 A 
ATOM     17  C   UNL     1       2.173   8.189  18.857  0.00  0.00    +0.000 A 
ATOM     18  C   UNL     1       2.731   7.156  18.096  0.00  0.00    +0.000 A 
ATOM     19  C   UNL     1       2.794   5.873  18.636  0.00  0.00    +0.000 A 
ATOM     20  N   UNL     1       2.396   5.593  19.895  0.00  0.00    +0.000 NA
ATOM     21  C   UNL     1       1.864   6.608  20.615  0.00  0.00    +0.000 A 
BRANCH  19  22
ATOM     22  S   UNL     1       3.399   4.530  17.637  0.00  0.00    +0.000 S 
BRANCH  22  23
ATOM     23  C   UNL     1       5.095   5.123  17.199  0.00  0.00    +0.000 C 
ATOM     24  C   UNL     1       5.527   4.393  15.920  0.00  0.00    +0.000 C 
ATOM     25  C   UNL     1       6.997   4.638  15.606  0.00  0.00    +0.000 C 
ATOM     26  O   UNL     1       7.817   4.299  16.721  0.00  0.00    +0.000 OA
ATOM     27  C   UNL     1       7.529   5.119  17.851  0.00  0.00    +0.000 C 
ATOM     28  C   UNL     1       6.104   4.883  18.329  0.00  0.00    +0.000 C 
ENDBRANCH  22  23
ENDBRANCH  19  22
ENDBRANCH   2  16
TORSDOF 6
ENDMDL
MODEL 8
REMARK VINA RESULT:      -7.3      4.303      9.692
REMARK  Name = 
REMARK  6 active torsions:
REMARK  status: ('A' for Active; 'I' for Inactive)
REMARK    1  A    between atoms: C_2  and  C_14
REMARK    2  A    between atoms: N_3  and  C_4
REMARK    3  A    between atoms: C_10  and  C_11
REMARK    4  A    between atoms: C_11  and  O_13
REMARK    5  A    between atoms: C_17  and  S_18
REMARK    6  A    between atoms: S_18  and  C_19
REMARK                            x       y       z     vdW  Elec       q    Type
REMARK                         _______ _______ _______ _____ _____    ______ ____
ROOT
ATOM      1  O   UNL     1      -1.123  10.581  19.435  0.00  0.00    +0.000 OA
ATOM      2  C   UNL     1      -0.095  10.357  20.062  0.00  0.00    +0.000 C 
ATOM      3  N   UNL     1       0.289  10.947  21.254  0.00  0.00    +0.000 N 
ATOM      4  H   UNL     1       1.276  10.880  21.509  0.00  0.00    +0.000 HD
ENDROOT
BRANCH   3   5
ATOM      5  C   UNL     1      -0.480  11.875  22.014  0.00  0.00    +0.000 A 
ATOM      6  C   UNL     1      -1.573  11.457  22.788  0.00  0.00    +0.000 A 
ATOM      7  C   UNL     1      -2.342  12.374  23.510  0.00  0.00    +0.000 A 
ATOM      8  C   UNL     1      -2.032  13.724  23.464  0.00  0.00    +0.000 A 
ATOM      9 BR   UNL     1      -3.087  14.959  24.429  0.00  0.00    +0.000 Br
ATOM     10  C   UNL     1      -0.945  14.172  22.719  0.00  0.00    +0.000 A 
ATOM     11  C   UNL     1      -0.149  13.249  22.015  0.00  0.00    +0.000 A 
BRANCH  11  12
ATOM     12  C   UNL     1       1.016  13.737  21.230  0.00  0.00    +0.000 C 
ATOM     13  O   UNL     1       1.065  13.661  20.013  0.00  0.00    +0.000 OA
BRANCH  12  14
ATOM     14  O   UNL     1       2.045  14.189  21.976  0.00  0.00    +0.000 OA
ATOM     15  H   UNL     1       2.755  13.549  22.164  0.00  0.00    +0.000 HD
ENDBRANCH  12  14
ENDBRANCH  11  12
ENDBRANCH   3   5
BRANCH   2  16
ATOM     16  C   UNL     1       0.867   9.412  19.461  0.00  0.00    +0.000 A 
ATOM     17  C   UNL     1       1.378   9.546  18.173  0.00  0.00    +0.000 A 
ATOM     18  C   UNL     1       2.298   8.598  17.711  0.00  0.00    +0.000 A 
ATOM     19  C   UNL     1       2.667   7.547  18.548  0.00  0.00    +0.000 A 
ATOM     20  N   UNL     1       2.222   7.436  19.817  0.00  0.00    +0.000 NA
ATOM     21  C   UNL     1       1.336   8.366  20.245  0.00  0.00    +0.000 A 
BRANCH  19  22
ATOM     22  S   UNL     1       3.750   6.276  17.932  0.00  0.00    +0.000 S 
BRANCH  22  23
ATOM     23  C   UNL     1       3.025   4.760  18.705  0.00  0.00    +0.000 C 
ATOM     24  C   UNL     1       4.168   3.760  18.929  0.00  0.00    +0.000 C 
ATOM     25  C   UNL     1       3.641   2.393  19.348  0.00  0.00    +0.000 C 
ATOM     26  O   UNL     1       2.681   1.912  18.411  0.00  0.00    +0.000 OA
ATOM     27  C   UNL     1       1.536   2.759  18.354  0.00  0.00    +0.000 C 
ATOM     28  C   UNL     1       1.920   4.139  17.842  0.00  0.00    +0.000 C 
ENDBRANCH  22  23
ENDBRANCH  19  22
ENDBRANCH   2  16
TORSDOF 6
ENDMDL
MODEL 9
REMARK VINA RESULT:      -7.1      4.319      9.221
REMARK  Name = 
REMARK  6 active torsions:
REMARK  status: ('A' for Active; 'I' for Inactive)
REMARK    1  A    between atoms: C_2  and  C_14
REMARK    2  A    between atoms: N_3  and  C_4
REMARK    3  A    between atoms: C_10  and  C_11
REMARK    4  A    between atoms: C_11  and  O_13
REMARK    5  A    between atoms: C_17  and  S_18
REMARK    6  A    between atoms: S_18  and  C_19
REMARK                            x       y       z     vdW  Elec       q    Type
REMARK                         _______ _______ _______ _____ _____    ______ ____
ROOT
ATOM      1  O   UNL     1       1.856  10.257  18.217  0.00  0.00    +0.000 OA
ATOM      2  C   UNL     1       1.448   9.311  18.879  0.00  0.00    +0.000 C 
ATOM      3  N   UNL     1       0.420   9.335  19.805  0.00  0.00    +0.000 N 
ATOM      4  H   UNL     1       0.378   8.563  20.474  0.00  0.00    +0.000 HD
ENDROOT
BRANCH   3   5
ATOM      5  C   UNL     1      -0.407  10.455  20.108  0.00  0.00    +0.000 A 
ATOM      6  C   UNL     1      -1.030  11.199  19.095  0.00  0.00    +0.000 A 
ATOM      7  C   UNL     1      -1.818  12.314  19.394  0.00  0.00    +0.000 A 
ATOM      8  C   UNL     1      -1.990  12.704  20.712  0.00  0.00    +0.000 A 
ATOM      9 BR   UNL     1      -3.043  14.223  21.108  0.00  0.00    +0.000 Br
ATOM     10  C   UNL     1      -1.399  11.980  21.744  0.00  0.00    +0.000 A 
ATOM     11  C   UNL     1      -0.630  10.839  21.449  0.00  0.00    +0.000 A 
BRANCH  11  12
ATOM     12  C   UNL     1      -0.013  10.068  22.561  0.00  0.00    +0.000 C 
ATOM     13  O   UNL     1       1.188   9.857  22.624  0.00  0.00    +0.000 OA
BRANCH  12  14
ATOM     14  O   UNL     1      -0.893   9.549  23.441  0.00  0.00    +0.000 OA
ATOM     15  H   UNL     1      -0.734   9.753  24.381  0.00  0.00    +0.000 HD
ENDBRANCH  12  14
ENDBRANCH  11  12
ENDBRANCH   3   5
BRANCH   2  16
ATOM     16  C   UNL     1       2.161   8.027  18.727  0.00  0.00    +0.000 A 
ATOM     17  C   UNL     1       2.870   7.668  17.584  0.00  0.00    +0.000 A 
ATOM     18  C   UNL     1       3.522   6.431  17.555  0.00  0.00    +0.000 A 
ATOM     19  C   UNL     1       3.436   5.593  18.665  0.00  0.00    +0.000 A 
ATOM     20  N   UNL     1       2.798   5.950  19.800  0.00  0.00    +0.000 NA
ATOM     21  C   UNL     1       2.178   7.154  19.807  0.00  0.00    +0.000 A 
BRANCH  19  22
ATOM     22  S   UNL     1       4.167   3.972  18.598  0.00  0.00    +0.000 S 
BRANCH  22  23
ATOM     23  C   UNL     1       5.859   4.350  17.956  0.00  0.00    +0.000 C 
ATOM     24  C   UNL     1       6.290   5.700  18.547  0.00  0.00    +0.000 C 
ATOM     25  C   UNL     1       7.571   6.211  17.899  0.00  0.00    +0.000 C 
ATOM     26  O   UNL     1       7.436   6.263  16.482  0.00  0.00    +0.000 OA
ATOM     27  C   UNL     1       7.221   4.967  15.928  0.00  0.00    +0.000 C 
ATOM     28  C   UNL     1       5.905   4.389  16.423  0.00  0.00    +0.000 C 
ENDBRANCH  22  23
ENDBRANCH  19  22
ENDBRANCH   2  16
TORSDOF 6
ENDMDL
