MODEL 1
REMARK VINA RESULT:      -7.6      0.000      0.000
REMARK  Name = 
REMARK  10 active torsions:
REMARK  status: ('A' for Active; 'I' for Inactive)
REMARK    1  A    between atoms: C_1  and  O_2
REMARK    2  A    between atoms: O_2  and  C_3
REMARK    3  A    between atoms: C_6  and  C_7
REMARK    4  A    between atoms: N_9  and  C_10
REMARK    5  A    between atoms: C_10  and  C_11
REMARK    6  A    between atoms: C_14  and  C_15
REMARK    7  A    between atoms: C_15  and  C_16
REMARK    8  A    between atoms: C_15  and  C_17
REMARK    9  A    between atoms: C_15  and  C_18
REMARK   10  A    between atoms: C_23  and  N_24
REMARK                            x       y       z     vdW  Elec       q    Type
REMARK                         _______ _______ _______ _____ _____    ______ ____
ROOT
ATOM      1  C   UNL     1       2.659   7.354  18.305  0.00  0.00    +0.000 A 
ATOM      2  C   UNL     1       2.336   8.582  17.773  0.00  0.00    +0.000 A 
ATOM      3  N   UNL     1       1.706   9.224  18.796  0.00  0.00    +0.000 N 
ATOM      4  N   UNL     1       1.537   8.410  19.854  0.00  0.00    +0.000 NA
ATOM      5  N   UNL     1       2.151   7.267  19.574  0.00  0.00    +0.000 NA
ENDROOT
BRANCH   1   9
ATOM      6  C   UNL     1       5.178   4.417  16.460  0.00  0.00    +0.000 A 
ATOM      7  C   UNL     1       5.530   5.766  16.486  0.00  0.00    +0.000 A 
ATOM      8  C   UNL     1       4.691   6.712  17.082  0.00  0.00    +0.000 A 
ATOM      9  C   UNL     1       3.469   6.335  17.666  0.00  0.00    +0.000 A 
ATOM     10  C   UNL     1       3.141   4.975  17.637  0.00  0.00    +0.000 A 
ATOM     11  C   UNL     1       3.978   4.015  17.040  0.00  0.00    +0.000 A 
BRANCH  10  12
ATOM     12  N   UNL     1       1.895   4.476  18.191  0.00  0.00    +0.000 N 
ATOM     13  O   UNL     1       1.882   4.219  19.404  0.00  0.00    +0.000 OA
ATOM     14  O   UNL     1       0.915   4.462  17.435  0.00  0.00    +0.000 OA
ENDBRANCH  10  12
BRANCH   6  16
ATOM     15  C   UNL     1       6.351   3.866  14.474  0.00  0.00    +0.000 C 
ATOM     16  O   UNL     1       6.085   3.602  15.845  0.00  0.00    +0.000 OA
ENDBRANCH   6  16
ENDBRANCH   1   9
BRANCH   3  17
ATOM     17  C   UNL     1       1.265  10.603  18.835  0.00  0.00    +0.000 C 
BRANCH  17  18
ATOM     18  C   UNL     1      -0.237  10.719  18.717  0.00  0.00    +0.000 A 
ATOM     19  C   UNL     1      -0.953  11.585  19.547  0.00  0.00    +0.000 A 
ATOM     20  C   UNL     1      -2.333  11.758  19.379  0.00  0.00    +0.000 A 
ATOM     21  C   UNL     1      -3.047  11.076  18.378  0.00  0.00    +0.000 A 
ATOM     22  C   UNL     1      -2.322  10.174  17.581  0.00  0.00    +0.000 A 
ATOM     23  C   UNL     1      -0.942  10.000  17.743  0.00  0.00    +0.000 A 
BRANCH  21  24
ATOM     24  C   UNL     1      -4.545  11.321  18.119  0.00  0.00    +0.000 C 
ATOM     25  C   UNL     1      -4.840  11.810  16.684  0.00  0.00    +0.000 C 
ATOM     26  C   UNL     1      -5.329  10.004  18.325  0.00  0.00    +0.000 C 
ATOM     27  C   UNL     1      -5.104  12.381  19.091  0.00  0.00    +0.000 C 
ENDBRANCH  21  24
ENDBRANCH  17  18
ENDBRANCH   3  17
TORSDOF 6
ENDMDL
MODEL 2
REMARK VINA RESULT:      -7.6      0.375      1.080
REMARK  Name = 
REMARK  10 active torsions:
REMARK  status: ('A' for Active; 'I' for Inactive)
REMARK    1  A    between atoms: C_1  and  O_2
REMARK    2  A    between atoms: O_2  and  C_3
REMARK    3  A    between atoms: C_6  and  C_7
REMARK    4  A    between atoms: N_9  and  C_10
REMARK    5  A    between atoms: C_10  and  C_11
REMARK    6  A    between atoms: C_14  and  C_15
REMARK    7  A    between atoms: C_15  and  C_16
REMARK    8  A    between atoms: C_15  and  C_17
REMARK    9  A    between atoms: C_15  and  C_18
REMARK   10  A    between atoms: C_23  and  N_24
REMARK                            x       y       z     vdW  Elec       q    Type
REMARK                         _______ _______ _______ _____ _____    ______ ____
ROOT
ATOM      1  C   UNL     1       2.559   7.555  18.393  0.00  0.00    +0.000 A 
ATOM      2  C   UNL     1       2.213   8.766  17.835  0.00  0.00    +0.000 A 
ATOM      3  N   UNL     1       1.587   9.424  18.851  0.00  0.00    +0.000 N 
ATOM      4  N   UNL     1       1.442   8.634  19.929  0.00  0.00    +0.000 NA
ATOM      5  N   UNL     1       2.068   7.492  19.670  0.00  0.00    +0.000 NA
ENDROOT
BRANCH   1   9
ATOM      6  C   UNL     1       5.095   4.603  16.596  0.00  0.00    +0.000 A 
ATOM      7  C   UNL     1       5.465   5.946  16.649  0.00  0.00    +0.000 A 
ATOM      8  C   UNL     1       4.620   6.898  17.228  0.00  0.00    +0.000 A 
ATOM      9  C   UNL     1       3.375   6.532  17.768  0.00  0.00    +0.000 A 
ATOM     10  C   UNL     1       3.028   5.177  17.713  0.00  0.00    +0.000 A 
ATOM     11  C   UNL     1       3.871   4.212  17.132  0.00  0.00    +0.000 A 
BRANCH  10  12
ATOM     12  N   UNL     1       1.759   4.690  18.221  0.00  0.00    +0.000 N 
ATOM     13  O   UNL     1       0.879   4.437  17.385  0.00  0.00    +0.000 OA
ATOM     14  O   UNL     1       1.698   4.452  19.434  0.00  0.00    +0.000 OA
ENDBRANCH  10  12
BRANCH   6  16
ATOM     15  C   UNL     1       7.240   4.377  15.610  0.00  0.00    +0.000 C 
ATOM     16  O   UNL     1       6.010   3.782  16.001  0.00  0.00    +0.000 OA
ENDBRANCH   6  16
ENDBRANCH   1   9
BRANCH   3  17
ATOM     17  C   UNL     1       1.128  10.798  18.862  0.00  0.00    +0.000 C 
BRANCH  17  18
ATOM     18  C   UNL     1      -0.378  10.890  18.771  0.00  0.00    +0.000 A 
ATOM     19  C   UNL     1      -1.090  11.765  19.595  0.00  0.00    +0.000 A 
ATOM     20  C   UNL     1      -2.475  11.916  19.451  0.00  0.00    +0.000 A 
ATOM     21  C   UNL     1      -3.199  11.201  18.481  0.00  0.00    +0.000 A 
ATOM     22  C   UNL     1      -2.477  10.290  17.690  0.00  0.00    +0.000 A 
ATOM     23  C   UNL     1      -1.092  10.139  17.829  0.00  0.00    +0.000 A 
BRANCH  21  24
ATOM     24  C   UNL     1      -4.705  11.419  18.246  0.00  0.00    +0.000 C 
ATOM     25  C   UNL     1      -5.303  12.530  19.138  0.00  0.00    +0.000 C 
ATOM     26  C   UNL     1      -4.948  11.831  16.776  0.00  0.00    +0.000 C 
ATOM     27  C   UNL     1      -5.497  10.126  18.531  0.00  0.00    +0.000 C 
ENDBRANCH  21  24
ENDBRANCH  17  18
ENDBRANCH   3  17
TORSDOF 6
ENDMDL
MODEL 3
REMARK VINA RESULT:      -7.5      4.142      8.940
REMARK  Name = 
REMARK  10 active torsions:
REMARK  status: ('A' for Active; 'I' for Inactive)
REMARK    1  A    between atoms: C_1  and  O_2
REMARK    2  A    between atoms: O_2  and  C_3
REMARK    3  A    between atoms: C_6  and  C_7
REMARK    4  A    between atoms: N_9  and  C_10
REMARK    5  A    between atoms: C_10  and  C_11
REMARK    6  A    between atoms: C_14  and  C_15
REMARK    7  A    between atoms: C_15  and  C_16
REMARK    8  A    between atoms: C_15  and  C_17
REMARK    9  A    between atoms: C_15  and  C_18
REMARK   10  A    between atoms: C_23  and  N_24
REMARK                            x       y       z     vdW  Elec       q    Type
REMARK                         _______ _______ _______ _____ _____    ______ ____
ROOT
ATOM      1  C   UNL     1      -0.736  10.297  18.872  0.00  0.00    +0.000 A 
ATOM      2  C   UNL     1       0.210   9.823  17.991  0.00  0.00    +0.000 A 
ATOM      3  N   UNL     1       1.228   9.413  18.798  0.00  0.00    +0.000 N 
ATOM      4  N   UNL     1       0.987   9.721  20.085  0.00  0.00    +0.000 NA
ATOM      5  N   UNL     1      -0.236  10.235  20.145  0.00  0.00    +0.000 NA
ENDROOT
BRANCH   1   9
ATOM      6  C   UNL     1      -4.744  11.419  17.844  0.00  0.00    +0.000 A 
ATOM      7  C   UNL     1      -4.124  10.314  17.260  0.00  0.00    +0.000 A 
ATOM      8  C   UNL     1      -2.812   9.970  17.598  0.00  0.00    +0.000 A 
ATOM      9  C   UNL     1      -2.078  10.725  18.529  0.00  0.00    +0.000 A 
ATOM     10  C   UNL     1      -2.724  11.823  19.110  0.00  0.00    +0.000 A 
ATOM     11  C   UNL     1      -4.044  12.178  18.777  0.00  0.00    +0.000 A 
BRANCH  10  12
ATOM     12  N   UNL     1      -2.056  12.686  20.068  0.00  0.00    +0.000 N 
ATOM     13  O   UNL     1      -1.287  13.543  19.611  0.00  0.00    +0.000 OA
ATOM     14  O   UNL     1      -2.399  12.575  21.252  0.00  0.00    +0.000 OA
ENDBRANCH  10  12
BRANCH   6  16
ATOM     15  C   UNL     1      -6.471  12.993  17.437  0.00  0.00    +0.000 C 
ATOM     16  O   UNL     1      -6.024  11.644  17.422  0.00  0.00    +0.000 OA
ENDBRANCH   6  16
ENDBRANCH   1   9
BRANCH   3  17
ATOM     17  C   UNL     1       2.434   8.709  18.411  0.00  0.00    +0.000 C 
BRANCH  17  18
ATOM     18  C   UNL     1       2.364   7.240  18.756  0.00  0.00    +0.000 A 
ATOM     19  C   UNL     1       2.158   6.825  20.074  0.00  0.00    +0.000 A 
ATOM     20  C   UNL     1       2.005   5.467  20.381  0.00  0.00    +0.000 A 
ATOM     21  C   UNL     1       2.052   4.475  19.387  0.00  0.00    +0.000 A 
ATOM     22  C   UNL     1       2.306   4.902  18.072  0.00  0.00    +0.000 A 
ATOM     23  C   UNL     1       2.456   6.258  17.760  0.00  0.00    +0.000 A 
BRANCH  21  24
ATOM     24  C   UNL     1       1.797   2.987  19.692  0.00  0.00    +0.000 C 
ATOM     25  C   UNL     1       0.652   2.383  18.848  0.00  0.00    +0.000 C 
ATOM     26  C   UNL     1       3.073   2.168  19.386  0.00  0.00    +0.000 C 
ATOM     27  C   UNL     1       1.430   2.786  21.176  0.00  0.00    +0.000 C 
ENDBRANCH  21  24
ENDBRANCH  17  18
ENDBRANCH   3  17
TORSDOF 6
ENDMDL
MODEL 4
REMARK VINA RESULT:      -7.5      3.875      9.136
REMARK  Name = 
REMARK  10 active torsions:
REMARK  status: ('A' for Active; 'I' for Inactive)
REMARK    1  A    between atoms: C_1  and  O_2
REMARK    2  A    between atoms: O_2  and  C_3
REMARK    3  A    between atoms: C_6  and  C_7
REMARK    4  A    between atoms: N_9  and  C_10
REMARK    5  A    between atoms: C_10  and  C_11
REMARK    6  A    between atoms: C_14  and  C_15
REMARK    7  A    between atoms: C_15  and  C_16
REMARK    8  A    between atoms: C_15  and  C_17
REMARK    9  A    between atoms: C_15  and  C_18
REMARK   10  A    between atoms: C_23  and  N_24
REMARK                            x       y       z     vdW  Elec       q    Type
REMARK                         _______ _______ _______ _____ _____    ______ ____
ROOT
ATOM      1  C   UNL     1      -0.135  10.424  19.910  0.00  0.00    +0.000 A 
ATOM      2  C   UNL     1       1.041   9.720  20.038  0.00  0.00    +0.000 A 
ATOM      3  N   UNL     1       1.284   9.261  18.779  0.00  0.00    +0.000 N 
ATOM      4  N   UNL     1       0.268   9.554  17.947  0.00  0.00    +0.000 NA
ATOM      5  N   UNL     1      -0.595  10.300  18.626  0.00  0.00    +0.000 NA
ENDROOT
BRANCH   1   9
ATOM      6  C   UNL     1      -2.082  12.861  22.851  0.00  0.00    +0.000 A 
ATOM      7  C   UNL     1      -1.986  13.263  21.519  0.00  0.00    +0.000 A 
ATOM      8  C   UNL     1      -1.337  12.461  20.575  0.00  0.00    +0.000 A 
ATOM      9  C   UNL     1      -0.759  11.233  20.939  0.00  0.00    +0.000 A 
ATOM     10  C   UNL     1      -0.876  10.844  22.279  0.00  0.00    +0.000 A 
ATOM     11  C   UNL     1      -1.527  11.644  23.236  0.00  0.00    +0.000 A 
BRANCH  10  12
ATOM     12  N   UNL     1      -0.299   9.606  22.771  0.00  0.00    +0.000 N 
ATOM     13  O   UNL     1       0.681   9.703  23.523  0.00  0.00    +0.000 OA
ATOM     14  O   UNL     1      -0.905   8.562  22.497  0.00  0.00    +0.000 OA
ENDBRANCH  10  12
BRANCH   6  16
ATOM     15  C   UNL     1      -3.906  13.254  24.315  0.00  0.00    +0.000 C 
ATOM     16  O   UNL     1      -2.738  13.739  23.666  0.00  0.00    +0.000 OA
ENDBRANCH   6  16
ENDBRANCH   1   9
BRANCH   3  17
ATOM     17  C   UNL     1       2.462   8.565  18.304  0.00  0.00    +0.000 C 
BRANCH  17  18
ATOM     18  C   UNL     1       2.453   7.107  18.701  0.00  0.00    +0.000 A 
ATOM     19  C   UNL     1       2.896   6.123  17.812  0.00  0.00    +0.000 A 
ATOM     20  C   UNL     1       2.971   4.782  18.209  0.00  0.00    +0.000 A 
ATOM     21  C   UNL     1       2.609   4.374  19.505  0.00  0.00    +0.000 A 
ATOM     22  C   UNL     1       2.122   5.367  20.373  0.00  0.00    +0.000 A 
ATOM     23  C   UNL     1       2.048   6.708  19.981  0.00  0.00    +0.000 A 
BRANCH  21  24
ATOM     24  C   UNL     1       2.769   2.921  19.989  0.00  0.00    +0.000 C 
ATOM     25  C   UNL     1       1.870   1.924  19.222  0.00  0.00    +0.000 C 
ATOM     26  C   UNL     1       4.232   2.465  19.789  0.00  0.00    +0.000 C 
ATOM     27  C   UNL     1       2.417   2.799  21.486  0.00  0.00    +0.000 C 
ENDBRANCH  21  24
ENDBRANCH  17  18
ENDBRANCH   3  17
TORSDOF 6
ENDMDL
MODEL 5
REMARK VINA RESULT:      -7.4      0.273      1.383
REMARK  Name = 
REMARK  10 active torsions:
REMARK  status: ('A' for Active; 'I' for Inactive)
REMARK    1  A    between atoms: C_1  and  O_2
REMARK    2  A    between atoms: O_2  and  C_3
REMARK    3  A    between atoms: C_6  and  C_7
REMARK    4  A    between atoms: N_9  and  C_10
REMARK    5  A    between atoms: C_10  and  C_11
REMARK    6  A    between atoms: C_14  and  C_15
REMARK    7  A    between atoms: C_15  and  C_16
REMARK    8  A    between atoms: C_15  and  C_17
REMARK    9  A    between atoms: C_15  and  C_18
REMARK   10  A    between atoms: C_23  and  N_24
REMARK                            x       y       z     vdW  Elec       q    Type
REMARK                         _______ _______ _______ _____ _____    ______ ____
ROOT
ATOM      1  C   UNL     1       2.634   7.470  18.354  0.00  0.00    +0.000 A 
ATOM      2  C   UNL     1       2.365   8.731  17.873  0.00  0.00    +0.000 A 
ATOM      3  N   UNL     1       1.718   9.341  18.905  0.00  0.00    +0.000 N 
ATOM      4  N   UNL     1       1.491   8.482  19.915  0.00  0.00    +0.000 NA
ATOM      5  N   UNL     1       2.082   7.336  19.600  0.00  0.00    +0.000 NA
ENDROOT
BRANCH   1   9
ATOM      6  C   UNL     1       5.132   4.556  16.444  0.00  0.00    +0.000 A 
ATOM      7  C   UNL     1       5.493   5.902  16.498  0.00  0.00    +0.000 A 
ATOM      8  C   UNL     1       4.660   6.841  17.114  0.00  0.00    +0.000 A 
ATOM      9  C   UNL     1       3.437   6.460  17.692  0.00  0.00    +0.000 A 
ATOM     10  C   UNL     1       3.100   5.102  17.636  0.00  0.00    +0.000 A 
ATOM     11  C   UNL     1       3.931   4.150  17.017  0.00  0.00    +0.000 A 
BRANCH  10  12
ATOM     12  N   UNL     1       1.853   4.599  18.181  0.00  0.00    +0.000 N 
ATOM     13  O   UNL     1       0.918   4.430  17.385  0.00  0.00    +0.000 OA
ATOM     14  O   UNL     1       1.859   4.267  19.374  0.00  0.00    +0.000 OA
ENDBRANCH  10  12
BRANCH   6  16
ATOM     15  C   UNL     1       6.986   4.391  14.973  0.00  0.00    +0.000 C 
ATOM     16  O   UNL     1       6.034   3.748  15.810  0.00  0.00    +0.000 OA
ENDBRANCH   6  16
ENDBRANCH   1   9
BRANCH   3  17
ATOM     17  C   UNL     1       1.315  10.729  18.998  0.00  0.00    +0.000 C 
BRANCH  17  18
ATOM     18  C   UNL     1      -0.154  10.911  18.695  0.00  0.00    +0.000 A 
ATOM     19  C   UNL     1      -0.843   9.977  17.917  0.00  0.00    +0.000 A 
ATOM     20  C   UNL     1      -2.223  10.097  17.710  0.00  0.00    +0.000 A 
ATOM     21  C   UNL     1      -2.965  11.151  18.270  0.00  0.00    +0.000 A 
ATOM     22  C   UNL     1      -2.252  12.109  19.012  0.00  0.00    +0.000 A 
ATOM     23  C   UNL     1      -0.873  11.991  19.224  0.00  0.00    +0.000 A 
BRANCH  21  24
ATOM     24  C   UNL     1      -4.495  11.252  18.128  0.00  0.00    +0.000 C 
ATOM     25  C   UNL     1      -5.209   9.889  18.278  0.00  0.00    +0.000 C 
ATOM     26  C   UNL     1      -5.058  12.186  19.224  0.00  0.00    +0.000 C 
ATOM     27  C   UNL     1      -4.882  11.825  16.749  0.00  0.00    +0.000 C 
ENDBRANCH  21  24
ENDBRANCH  17  18
ENDBRANCH   3  17
TORSDOF 6
ENDMDL
MODEL 6
REMARK VINA RESULT:      -7.4      3.555      9.073
REMARK  Name = 
REMARK  10 active torsions:
REMARK  status: ('A' for Active; 'I' for Inactive)
REMARK    1  A    between atoms: C_1  and  O_2
REMARK    2  A    between atoms: O_2  and  C_3
REMARK    3  A    between atoms: C_6  and  C_7
REMARK    4  A    between atoms: N_9  and  C_10
REMARK    5  A    between atoms: C_10  and  C_11
REMARK    6  A    between atoms: C_14  and  C_15
REMARK    7  A    between atoms: C_15  and  C_16
REMARK    8  A    between atoms: C_15  and  C_17
REMARK    9  A    between atoms: C_15  and  C_18
REMARK   10  A    between atoms: C_23  and  N_24
REMARK                            x       y       z     vdW  Elec       q    Type
REMARK                         _______ _______ _______ _____ _____    ______ ____
ROOT
ATOM      1  C   UNL     1      -1.792  11.332  18.693  0.00  0.00    +0.000 A 
ATOM      2  C   UNL     1      -1.295  10.382  19.558  0.00  0.00    +0.000 A 
ATOM      3  N   UNL     1       0.023  10.706  19.672  0.00  0.00    +0.000 N 
ATOM      4  N   UNL     1       0.354  11.711  18.843  0.00  0.00    +0.000 NA
ATOM      5  N   UNL     1      -0.764  12.127  18.260  0.00  0.00    +0.000 NA
ENDROOT
BRANCH   1   9
ATOM      6  C   UNL     1      -5.916  12.016  17.745  0.00  0.00    +0.000 A 
ATOM      7  C   UNL     1      -5.386  12.365  18.987  0.00  0.00    +0.000 A 
ATOM      8  C   UNL     1      -4.042  12.123  19.284  0.00  0.00    +0.000 A 
ATOM      9  C   UNL     1      -3.187  11.520  18.345  0.00  0.00    +0.000 A 
ATOM     10  C   UNL     1      -3.737  11.188  17.102  0.00  0.00    +0.000 A 
ATOM     11  C   UNL     1      -5.089  11.426  16.794  0.00  0.00    +0.000 A 
BRANCH  10  12
ATOM     12  N   UNL     1      -2.953  10.542  16.065  0.00  0.00    +0.000 N 
ATOM     13  O   UNL     1      -2.593   9.375  16.277  0.00  0.00    +0.000 OA
ATOM     14  O   UNL     1      -2.810  11.165  15.005  0.00  0.00    +0.000 OA
ENDBRANCH  10  12
BRANCH   6  16
ATOM     15  C   UNL     1      -7.611  13.674  17.678  0.00  0.00    +0.000 C 
ATOM     16  O   UNL     1      -7.243  12.304  17.589  0.00  0.00    +0.000 OA
ENDBRANCH   6  16
ENDBRANCH   1   9
BRANCH   3  17
ATOM     17  C   UNL     1       1.003  10.115  20.561  0.00  0.00    +0.000 C 
BRANCH  17  18
ATOM     18  C   UNL     1       1.530   8.803  20.028  0.00  0.00    +0.000 A 
ATOM     19  C   UNL     1       1.523   7.655  20.824  0.00  0.00    +0.000 A 
ATOM     20  C   UNL     1       1.929   6.420  20.302  0.00  0.00    +0.000 A 
ATOM     21  C   UNL     1       2.354   6.285  18.970  0.00  0.00    +0.000 A 
ATOM     22  C   UNL     1       2.399   7.456  18.193  0.00  0.00    +0.000 A 
ATOM     23  C   UNL     1       1.991   8.692  18.710  0.00  0.00    +0.000 A 
BRANCH  21  24
ATOM     24  C   UNL     1       2.717   4.922  18.352  0.00  0.00    +0.000 C 
ATOM     25  C   UNL     1       3.853   5.013  17.308  0.00  0.00    +0.000 C 
ATOM     26  C   UNL     1       3.192   3.958  19.463  0.00  0.00    +0.000 C 
ATOM     27  C   UNL     1       1.496   4.295  17.648  0.00  0.00    +0.000 C 
ENDBRANCH  21  24
ENDBRANCH  17  18
ENDBRANCH   3  17
TORSDOF 6
ENDMDL
MODEL 7
REMARK VINA RESULT:      -7.4      3.931      8.987
REMARK  Name = 
REMARK  10 active torsions:
REMARK  status: ('A' for Active; 'I' for Inactive)
REMARK    1  A    between atoms: C_1  and  O_2
REMARK    2  A    between atoms: O_2  and  C_3
REMARK    3  A    between atoms: C_6  and  C_7
REMARK    4  A    between atoms: N_9  and  C_10
REMARK    5  A    between atoms: C_10  and  C_11
REMARK    6  A    between atoms: C_14  and  C_15
REMARK    7  A    between atoms: C_15  and  C_16
REMARK    8  A    between atoms: C_15  and  C_17
REMARK    9  A    between atoms: C_15  and  C_18
REMARK   10  A    between atoms: C_23  and  N_24
REMARK                            x       y       z     vdW  Elec       q    Type
REMARK                         _______ _______ _______ _____ _____    ______ ____
ROOT
ATOM      1  C   UNL     1      -0.168  10.484  19.938  0.00  0.00    +0.000 A 
ATOM      2  C   UNL     1       1.013   9.787  20.062  0.00  0.00    +0.000 A 
ATOM      3  N   UNL     1       1.252   9.326  18.803  0.00  0.00    +0.000 N 
ATOM      4  N   UNL     1       0.229   9.609  17.976  0.00  0.00    +0.000 NA
ATOM      5  N   UNL     1      -0.635  10.353  18.658  0.00  0.00    +0.000 NA
ENDROOT
BRANCH   1   9
ATOM      6  C   UNL     1      -2.112  12.921  22.881  0.00  0.00    +0.000 A 
ATOM      7  C   UNL     1      -2.004  13.330  21.551  0.00  0.00    +0.000 A 
ATOM      8  C   UNL     1      -1.356  12.528  20.608  0.00  0.00    +0.000 A 
ATOM      9  C   UNL     1      -0.792  11.292  20.968  0.00  0.00    +0.000 A 
ATOM     10  C   UNL     1      -0.921  10.897  22.305  0.00  0.00    +0.000 A 
ATOM     11  C   UNL     1      -1.570  11.697  23.262  0.00  0.00    +0.000 A 
BRANCH  10  12
ATOM     12  N   UNL     1      -0.358   9.651  22.793  0.00  0.00    +0.000 N 
ATOM     13  O   UNL     1      -0.942   8.606  22.471  0.00  0.00    +0.000 OA
ATOM     14  O   UNL     1       0.724   9.724  23.390  0.00  0.00    +0.000 OA
ENDBRANCH  10  12
BRANCH   6  16
ATOM     15  C   UNL     1      -2.289  15.140  23.700  0.00  0.00    +0.000 C 
ATOM     16  O   UNL     1      -2.765  13.801  23.697  0.00  0.00    +0.000 OA
ENDBRANCH   6  16
ENDBRANCH   1   9
BRANCH   3  17
ATOM     17  C   UNL     1       2.432   8.635  18.324  0.00  0.00    +0.000 C 
BRANCH  17  18
ATOM     18  C   UNL     1       2.405   7.166  18.674  0.00  0.00    +0.000 A 
ATOM     19  C   UNL     1       2.163   6.749  19.986  0.00  0.00    +0.000 A 
ATOM     20  C   UNL     1       2.050   5.387  20.294  0.00  0.00    +0.000 A 
ATOM     21  C   UNL     1       2.175   4.393  19.308  0.00  0.00    +0.000 A 
ATOM     22  C   UNL     1       2.465   4.825  18.001  0.00  0.00    +0.000 A 
ATOM     23  C   UNL     1       2.574   6.185  17.688  0.00  0.00    +0.000 A 
BRANCH  21  24
ATOM     24  C   UNL     1       1.966   2.898  19.610  0.00  0.00    +0.000 C 
ATOM     25  C   UNL     1       3.167   2.021  19.191  0.00  0.00    +0.000 C 
ATOM     26  C   UNL     1       1.761   2.698  21.129  0.00  0.00    +0.000 C 
ATOM     27  C   UNL     1       0.723   2.358  18.872  0.00  0.00    +0.000 C 
ENDBRANCH  21  24
ENDBRANCH  17  18
ENDBRANCH   3  17
TORSDOF 6
ENDMDL
MODEL 8
REMARK VINA RESULT:      -7.3      2.616      4.596
REMARK  Name = 
REMARK  10 active torsions:
REMARK  status: ('A' for Active; 'I' for Inactive)
REMARK    1  A    between atoms: C_1  and  O_2
REMARK    2  A    between atoms: O_2  and  C_3
REMARK    3  A    between atoms: C_6  and  C_7
REMARK    4  A    between atoms: N_9  and  C_10
REMARK    5  A    between atoms: C_10  and  C_11
REMARK    6  A    between atoms: C_14  and  C_15
REMARK    7  A    between atoms: C_15  and  C_16
REMARK    8  A    between atoms: C_15  and  C_17
REMARK    9  A    between atoms: C_15  and  C_18
REMARK   10  A    between atoms: C_23  and  N_24
REMARK                            x       y       z     vdW  Elec       q    Type
REMARK                         _______ _______ _______ _____ _____    ______ ____
ROOT
ATOM      1  C   UNL     1       2.543   7.418  18.455  0.00  0.00    +0.000 A 
ATOM      2  C   UNL     1       1.850   8.442  17.849  0.00  0.00    +0.000 A 
ATOM      3  N   UNL     1       1.259   9.093  18.890  0.00  0.00    +0.000 N 
ATOM      4  N   UNL     1       1.467   8.448  20.052  0.00  0.00    +0.000 NA
ATOM      5  N   UNL     1       2.286   7.435  19.800  0.00  0.00    +0.000 NA
ENDROOT
BRANCH   1   9
ATOM      6  C   UNL     1       5.372   4.807  16.569  0.00  0.00    +0.000 A 
ATOM      7  C   UNL     1       5.605   6.177  16.677  0.00  0.00    +0.000 A 
ATOM      8  C   UNL     1       4.666   7.016  17.284  0.00  0.00    +0.000 A 
ATOM      9  C   UNL     1       3.461   6.507  17.798  0.00  0.00    +0.000 A 
ATOM     10  C   UNL     1       3.253   5.128  17.689  0.00  0.00    +0.000 A 
ATOM     11  C   UNL     1       4.191   4.275  17.078  0.00  0.00    +0.000 A 
BRANCH  10  12
ATOM     12  N   UNL     1       2.035   4.496  18.165  0.00  0.00    +0.000 N 
ATOM     13  O   UNL     1       1.119   4.349  17.344  0.00  0.00    +0.000 OA
ATOM     14  O   UNL     1       2.055   4.048  19.319  0.00  0.00    +0.000 OA
ENDBRANCH  10  12
BRANCH   6  16
ATOM     15  C   UNL     1       6.867   4.645  14.734  0.00  0.00    +0.000 C 
ATOM     16  O   UNL     1       6.368   4.105  15.951  0.00  0.00    +0.000 OA
ENDBRANCH   6  16
ENDBRANCH   1   9
BRANCH   3  17
ATOM     17  C   UNL     1       0.508  10.332  18.845  0.00  0.00    +0.000 C 
BRANCH  17  18
ATOM     18  C   UNL     1       1.390  11.534  19.091  0.00  0.00    +0.000 A 
ATOM     19  C   UNL     1       2.196  12.048  18.071  0.00  0.00    +0.000 A 
ATOM     20  C   UNL     1       2.945  13.214  18.271  0.00  0.00    +0.000 A 
ATOM     21  C   UNL     1       2.919  13.909  19.493  0.00  0.00    +0.000 A 
ATOM     22  C   UNL     1       2.140  13.355  20.524  0.00  0.00    +0.000 A 
ATOM     23  C   UNL     1       1.387  12.192  20.327  0.00  0.00    +0.000 A 
BRANCH  21  24
ATOM     24  C   UNL     1       3.664  15.240  19.703  0.00  0.00    +0.000 C 
ATOM     25  C   UNL     1       4.520  15.259  20.990  0.00  0.00    +0.000 C 
ATOM     26  C   UNL     1       4.620  15.494  18.514  0.00  0.00    +0.000 C 
ATOM     27  C   UNL     1       2.671  16.417  19.793  0.00  0.00    +0.000 C 
ENDBRANCH  21  24
ENDBRANCH  17  18
ENDBRANCH   3  17
TORSDOF 6
ENDMDL
MODEL 9
REMARK VINA RESULT:      -7.3      2.583      4.592
REMARK  Name = 
REMARK  10 active torsions:
REMARK  status: ('A' for Active; 'I' for Inactive)
REMARK    1  A    between atoms: C_1  and  O_2
REMARK    2  A    between atoms: O_2  and  C_3
REMARK    3  A    between atoms: C_6  and  C_7
REMARK    4  A    between atoms: N_9  and  C_10
REMARK    5  A    between atoms: C_10  and  C_11
REMARK    6  A    between atoms: C_14  and  C_15
REMARK    7  A    between atoms: C_15  and  C_16
REMARK    8  A    between atoms: C_15  and  C_17
REMARK    9  A    between atoms: C_15  and  C_18
REMARK   10  A    between atoms: C_23  and  N_24
REMARK                            x       y       z     vdW  Elec       q    Type
REMARK                         _______ _______ _______ _____ _____    ______ ____
ROOT
ATOM      1  C   UNL     1       2.513   7.470  18.428  0.00  0.00    +0.000 A 
ATOM      2  C   UNL     1       1.793   8.445  17.775  0.00  0.00    +0.000 A 
ATOM      3  N   UNL     1       1.216   9.154  18.785  0.00  0.00    +0.000 N 
ATOM      4  N   UNL     1       1.458   8.587  19.981  0.00  0.00    +0.000 NA
ATOM      5  N   UNL     1       2.286   7.569  19.774  0.00  0.00    +0.000 NA
ENDROOT
BRANCH   1   9
ATOM      6  C   UNL     1       5.335   4.773  16.656  0.00  0.00    +0.000 A 
ATOM      7  C   UNL     1       5.590   6.142  16.741  0.00  0.00    +0.000 A 
ATOM      8  C   UNL     1       4.653   7.009  17.311  0.00  0.00    +0.000 A 
ATOM      9  C   UNL     1       3.429   6.531  17.810  0.00  0.00    +0.000 A 
ATOM     10  C   UNL     1       3.199   5.153  17.724  0.00  0.00    +0.000 A 
ATOM     11  C   UNL     1       4.135   4.272  17.151  0.00  0.00    +0.000 A 
BRANCH  10  12
ATOM     12  N   UNL     1       1.962   4.552  18.187  0.00  0.00    +0.000 N 
ATOM     13  O   UNL     1       1.092   4.326  17.334  0.00  0.00    +0.000 OA
ATOM     14  O   UNL     1       1.921   4.204  19.375  0.00  0.00    +0.000 OA
ENDBRANCH  10  12
BRANCH   6  16
ATOM     15  C   UNL     1       6.347   4.005  14.653  0.00  0.00    +0.000 C 
ATOM     16  O   UNL     1       6.332   4.043  16.074  0.00  0.00    +0.000 OA
ENDBRANCH   6  16
ENDBRANCH   1   9
BRANCH   3  17
ATOM     17  C   UNL     1       0.447  10.378  18.679  0.00  0.00    +0.000 C 
BRANCH  17  18
ATOM     18  C   UNL     1       1.271  11.593  19.038  0.00  0.00    +0.000 A 
ATOM     19  C   UNL     1       1.213  12.140  20.322  0.00  0.00    +0.000 A 
ATOM     20  C   UNL     1       2.040  13.211  20.681  0.00  0.00    +0.000 A 
ATOM     21  C   UNL     1       2.956  13.774  19.775  0.00  0.00    +0.000 A 
ATOM     22  C   UNL     1       2.971  13.243  18.473  0.00  0.00    +0.000 A 
ATOM     23  C   UNL     1       2.148  12.171  18.111  0.00  0.00    +0.000 A 
BRANCH  21  24
ATOM     24  C   UNL     1       3.936  14.891  20.176  0.00  0.00    +0.000 C 
ATOM     25  C   UNL     1       3.253  16.266  20.347  0.00  0.00    +0.000 C 
ATOM     26  C   UNL     1       4.600  14.539  21.528  0.00  0.00    +0.000 C 
ATOM     27  C   UNL     1       5.044  15.056  19.115  0.00  0.00    +0.000 C 
ENDBRANCH  21  24
ENDBRANCH  17  18
ENDBRANCH   3  17
TORSDOF 6
ENDMDL
