MODEL 1
REMARK VINA RESULT:      -6.0      0.000      0.000
REMARK  Name = 
REMARK  5 active torsions:
REMARK  status: ('A' for Active; 'I' for Inactive)
REMARK    1  A    between atoms: N_1  and  C_2
REMARK    2  A    between atoms: C_2  and  C_3
REMARK    3  A    between atoms: C_3  and  C_4
REMARK    4  A    between atoms: C_4  and  N_5
REMARK    5  A    between atoms: C_8  and  C_9
REMARK                            x       y       z     vdW  Elec       q    Type
REMARK                         _______ _______ _______ _____ _____    ______ ____
ROOT
ATOM      1  N   UNL     1       1.794   3.523  18.532  0.00  0.00    +0.000 N 
ATOM      2  C   UNL     1       2.520   2.599  17.867  0.00  0.00    +0.000 A 
ATOM      3  C   UNL     1       3.628   2.982  17.110  0.00  0.00    +0.000 A 
ATOM      4  C   UNL     1       3.998   4.330  17.005  0.00  0.00    +0.000 A 
ATOM      5  C   UNL     1       3.174   5.256  17.654  0.00  0.00    +0.000 A 
ATOM      6  C   UNL     1       2.099   4.834  18.428  0.00  0.00    +0.000 A 
ENDROOT
BRANCH   4   7
ATOM      7  C   UNL     1       5.227   4.758  16.292  0.00  0.00    +0.000 A 
ATOM      8  C   UNL     1       5.566   4.268  15.022  0.00  0.00    +0.000 A 
ATOM      9  C   UNL     1       6.757   4.668  14.429  0.00  0.00    +0.000 A 
ATOM     10  N   UNL     1       7.624   5.527  14.996  0.00  0.00    +0.000 NA
ATOM     11  C   UNL     1       7.294   6.006  16.209  0.00  0.00    +0.000 A 
ATOM     12  C   UNL     1       6.135   5.653  16.882  0.00  0.00    +0.000 A 
ENDBRANCH   4   7
BRANCH   1  13
ATOM     13  C   UNL     1       0.703   3.088  19.441  0.00  0.00    +0.000 C 
BRANCH  13  14
ATOM     14  C   UNL     1       0.955   3.534  20.877  0.00  0.00    +0.000 C 
BRANCH  14  15
ATOM     15  C   UNL     1       1.625   2.471  21.739  0.00  0.00    +0.000 C 
BRANCH  15  16
ATOM     16  N   UNL     1       3.072   2.552  21.603  0.00  0.00    +0.000 NA
ATOM     17  H   UNL     1       3.401   1.735  21.078  0.00  0.00    +0.000 HD
ATOM     18  H   UNL     1       3.506   2.425  22.525  0.00  0.00    +0.000 HD
ENDBRANCH  15  16
ENDBRANCH  14  15
ENDBRANCH  13  14
ENDBRANCH   1  13
TORSDOF 5
ENDMDL
MODEL 2
REMARK VINA RESULT:      -6.0      0.463      1.258
REMARK  Name = 
REMARK  5 active torsions:
REMARK  status: ('A' for Active; 'I' for Inactive)
REMARK    1  A    between atoms: N_1  and  C_2
REMARK    2  A    between atoms: C_2  and  C_3
REMARK    3  A    between atoms: C_3  and  C_4
REMARK    4  A    between atoms: C_4  and  N_5
REMARK    5  A    between atoms: C_8  and  C_9
REMARK                            x       y       z     vdW  Elec       q    Type
REMARK                         _______ _______ _______ _____ _____    ______ ____
ROOT
ATOM      1  N   UNL     1       1.920   3.279  18.594  0.00  0.00    +0.000 N 
ATOM      2  C   UNL     1       2.785   2.360  18.113  0.00  0.00    +0.000 A 
ATOM      3  C   UNL     1       3.892   2.756  17.362  0.00  0.00    +0.000 A 
ATOM      4  C   UNL     1       4.120   4.109  17.073  0.00  0.00    +0.000 A 
ATOM      5  C   UNL     1       3.158   5.017  17.533  0.00  0.00    +0.000 A 
ATOM      6  C   UNL     1       2.087   4.588  18.308  0.00  0.00    +0.000 A 
ENDROOT
BRANCH   4   7
ATOM      7  C   UNL     1       5.339   4.570  16.365  0.00  0.00    +0.000 A 
ATOM      8  C   UNL     1       6.248   5.469  16.943  0.00  0.00    +0.000 A 
ATOM      9  C   UNL     1       7.344   5.902  16.208  0.00  0.00    +0.000 A 
ATOM     10  N   UNL     1       7.610   5.499  14.952  0.00  0.00    +0.000 NA
ATOM     11  C   UNL     1       6.746   4.628  14.401  0.00  0.00    +0.000 A 
ATOM     12  C   UNL     1       5.619   4.152  15.053  0.00  0.00    +0.000 A 
ENDBRANCH   4   7
BRANCH   1  13
ATOM     13  C   UNL     1       0.825   2.855  19.503  0.00  0.00    +0.000 C 
BRANCH  13  14
ATOM     14  C   UNL     1       0.828   3.657  20.801  0.00  0.00    +0.000 C 
BRANCH  14  15
ATOM     15  C   UNL     1       2.190   3.705  21.485  0.00  0.00    +0.000 C 
BRANCH  15  16
ATOM     16  N   UNL     1       2.488   2.422  22.102  0.00  0.00    +0.000 NA
ATOM     17  H   UNL     1       2.306   1.676  21.421  0.00  0.00    +0.000 HD
ATOM     18  H   UNL     1       1.800   2.234  22.841  0.00  0.00    +0.000 HD
ENDBRANCH  15  16
ENDBRANCH  14  15
ENDBRANCH  13  14
ENDBRANCH   1  13
TORSDOF 5
ENDMDL
MODEL 3
REMARK VINA RESULT:      -5.9      0.421      1.253
REMARK  Name = 
REMARK  5 active torsions:
REMARK  status: ('A' for Active; 'I' for Inactive)
REMARK    1  A    between atoms: N_1  and  C_2
REMARK    2  A    between atoms: C_2  and  C_3
REMARK    3  A    between atoms: C_3  and  C_4
REMARK    4  A    between atoms: C_4  and  N_5
REMARK    5  A    between atoms: C_8  and  C_9
REMARK                            x       y       z     vdW  Elec       q    Type
REMARK                         _______ _______ _______ _____ _____    ______ ____
ROOT
ATOM      1  N   UNL     1       2.124   3.312  18.490  0.00  0.00    +0.000 N 
ATOM      2  C   UNL     1       2.389   4.630  18.370  0.00  0.00    +0.000 A 
ATOM      3  C   UNL     1       3.476   5.067  17.612  0.00  0.00    +0.000 A 
ATOM      4  C   UNL     1       4.325   4.150  16.976  0.00  0.00    +0.000 A 
ATOM      5  C   UNL     1       4.052   2.794  17.188  0.00  0.00    +0.000 A 
ATOM      6  C   UNL     1       2.939   2.398  17.921  0.00  0.00    +0.000 A 
ENDROOT
BRANCH   4   7
ATOM      7  C   UNL     1       5.427   4.584  16.083  0.00  0.00    +0.000 A 
ATOM      8  C   UNL     1       5.578   4.084  14.781  0.00  0.00    +0.000 A 
ATOM      9  C   UNL     1       6.661   4.491  14.012  0.00  0.00    +0.000 A 
ATOM     10  N   UNL     1       7.592   5.366  14.434  0.00  0.00    +0.000 NA
ATOM     11  C   UNL     1       7.442   5.855  15.677  0.00  0.00    +0.000 A 
ATOM     12  C   UNL     1       6.401   5.496  16.521  0.00  0.00    +0.000 A 
ENDBRANCH   4   7
BRANCH   1  13
ATOM     13  C   UNL     1       0.889   2.869  19.186  0.00  0.00    +0.000 C 
BRANCH  13  14
ATOM     14  C   UNL     1       0.802   3.439  20.597  0.00  0.00    +0.000 C 
BRANCH  14  15
ATOM     15  C   UNL     1       1.342   2.500  21.670  0.00  0.00    +0.000 C 
BRANCH  15  16
ATOM     16  N   UNL     1       2.769   2.720  21.859  0.00  0.00    +0.000 NA
ATOM     17  H   UNL     1       2.951   3.730  21.855  0.00  0.00    +0.000 HD
ATOM     18  H   UNL     1       3.274   2.392  21.028  0.00  0.00    +0.000 HD
ENDBRANCH  15  16
ENDBRANCH  14  15
ENDBRANCH  13  14
ENDBRANCH   1  13
TORSDOF 5
ENDMDL
MODEL 4
REMARK VINA RESULT:      -5.8      3.003      6.464
REMARK  Name = 
REMARK  5 active torsions:
REMARK  status: ('A' for Active; 'I' for Inactive)
REMARK    1  A    between atoms: N_1  and  C_2
REMARK    2  A    between atoms: C_2  and  C_3
REMARK    3  A    between atoms: C_3  and  C_4
REMARK    4  A    between atoms: C_4  and  N_5
REMARK    5  A    between atoms: C_8  and  C_9
REMARK                            x       y       z     vdW  Elec       q    Type
REMARK                         _______ _______ _______ _____ _____    ______ ____
ROOT
ATOM      1  N   UNL     1       5.336   4.771  16.022  0.00  0.00    +0.000 N 
ATOM      2  C   UNL     1       4.316   4.231  16.722  0.00  0.00    +0.000 A 
ATOM      3  C   UNL     1       3.496   5.037  17.513  0.00  0.00    +0.000 A 
ATOM      4  C   UNL     1       3.723   6.416  17.613  0.00  0.00    +0.000 A 
ATOM      5  C   UNL     1       4.834   6.918  16.925  0.00  0.00    +0.000 A 
ATOM      6  C   UNL     1       5.607   6.090  16.120  0.00  0.00    +0.000 A 
ENDROOT
BRANCH   4   7
ATOM      7  C   UNL     1       2.810   7.314  18.362  0.00  0.00    +0.000 A 
ATOM      8  C   UNL     1       2.340   8.522  17.827  0.00  0.00    +0.000 A 
ATOM      9  C   UNL     1       1.529   9.344  18.600  0.00  0.00    +0.000 A 
ATOM     10  N   UNL     1       1.139   9.047  19.853  0.00  0.00    +0.000 NA
ATOM     11  C   UNL     1       1.580   7.883  20.363  0.00  0.00    +0.000 A 
ATOM     12  C   UNL     1       2.404   7.007  19.672  0.00  0.00    +0.000 A 
ENDBRANCH   4   7
BRANCH   1  13
ATOM     13  C   UNL     1       6.115   3.924  15.082  0.00  0.00    +0.000 C 
BRANCH  13  14
ATOM     14  C   UNL     1       5.461   3.864  13.706  0.00  0.00    +0.000 C 
BRANCH  14  15
ATOM     15  C   UNL     1       6.435   3.535  12.580  0.00  0.00    +0.000 C 
BRANCH  15  16
ATOM     16  N   UNL     1       6.022   2.316  11.899  0.00  0.00    +0.000 NA
ATOM     17  H   UNL     1       5.941   1.562  12.590  0.00  0.00    +0.000 HD
ATOM     18  H   UNL     1       6.786   1.993  11.293  0.00  0.00    +0.000 HD
ENDBRANCH  15  16
ENDBRANCH  14  15
ENDBRANCH  13  14
ENDBRANCH   1  13
TORSDOF 5
ENDMDL
MODEL 5
REMARK VINA RESULT:      -5.8      0.467      1.716
REMARK  Name = 
REMARK  5 active torsions:
REMARK  status: ('A' for Active; 'I' for Inactive)
REMARK    1  A    between atoms: N_1  and  C_2
REMARK    2  A    between atoms: C_2  and  C_3
REMARK    3  A    between atoms: C_3  and  C_4
REMARK    4  A    between atoms: C_4  and  N_5
REMARK    5  A    between atoms: C_8  and  C_9
REMARK                            x       y       z     vdW  Elec       q    Type
REMARK                         _______ _______ _______ _____ _____    ______ ____
ROOT
ATOM      1  N   UNL     1       2.122   3.581  18.524  0.00  0.00    +0.000 N 
ATOM      2  C   UNL     1       2.442   4.877  18.322  0.00  0.00    +0.000 A 
ATOM      3  C   UNL     1       3.551   5.219  17.548  0.00  0.00    +0.000 A 
ATOM      4  C   UNL     1       4.367   4.230  16.982  0.00  0.00    +0.000 A 
ATOM      5  C   UNL     1       4.037   2.902  17.278  0.00  0.00    +0.000 A 
ATOM      6  C   UNL     1       2.904   2.600  18.024  0.00  0.00    +0.000 A 
ENDROOT
BRANCH   4   7
ATOM      7  C   UNL     1       5.492   4.560  16.073  0.00  0.00    +0.000 A 
ATOM      8  C   UNL     1       6.539   5.413  16.453  0.00  0.00    +0.000 A 
ATOM      9  C   UNL     1       7.536   5.724  15.538  0.00  0.00    +0.000 A 
ATOM     10  N   UNL     1       7.577   5.240  14.282  0.00  0.00    +0.000 NA
ATOM     11  C   UNL     1       6.581   4.414  13.920  0.00  0.00    +0.000 A 
ATOM     12  C   UNL     1       5.537   4.058  14.761  0.00  0.00    +0.000 A 
ENDBRANCH   4   7
BRANCH   1  13
ATOM     13  C   UNL     1       0.865   3.234  19.235  0.00  0.00    +0.000 C 
BRANCH  13  14
ATOM     14  C   UNL     1       0.918   3.640  20.704  0.00  0.00    +0.000 C 
BRANCH  14  15
ATOM     15  C   UNL     1       1.366   2.517  21.632  0.00  0.00    +0.000 C 
BRANCH  15  16
ATOM     16  N   UNL     1       2.801   2.595  21.860  0.00  0.00    +0.000 NA
ATOM     17  H   UNL     1       3.012   2.196  22.782  0.00  0.00    +0.000 HD
ATOM     18  H   UNL     1       3.073   3.579  21.967  0.00  0.00    +0.000 HD
ENDBRANCH  15  16
ENDBRANCH  14  15
ENDBRANCH  13  14
ENDBRANCH   1  13
TORSDOF 5
ENDMDL
MODEL 6
REMARK VINA RESULT:      -5.8      0.808      1.433
REMARK  Name = 
REMARK  5 active torsions:
REMARK  status: ('A' for Active; 'I' for Inactive)
REMARK    1  A    between atoms: N_1  and  C_2
REMARK    2  A    between atoms: C_2  and  C_3
REMARK    3  A    between atoms: C_3  and  C_4
REMARK    4  A    between atoms: C_4  and  N_5
REMARK    5  A    between atoms: C_8  and  C_9
REMARK                            x       y       z     vdW  Elec       q    Type
REMARK                         _______ _______ _______ _____ _____    ______ ____
ROOT
ATOM      1  N   UNL     1       2.065   4.649  19.152  0.00  0.00    +0.000 N 
ATOM      2  C   UNL     1       2.247   3.681  18.229  0.00  0.00    +0.000 A 
ATOM      3  C   UNL     1       3.278   3.781  17.293  0.00  0.00    +0.000 A 
ATOM      4  C   UNL     1       4.131   4.893  17.278  0.00  0.00    +0.000 A 
ATOM      5  C   UNL     1       3.859   5.902  18.209  0.00  0.00    +0.000 A 
ATOM      6  C   UNL     1       2.845   5.751  19.147  0.00  0.00    +0.000 A 
ENDROOT
BRANCH   4   7
ATOM      7  C   UNL     1       5.296   4.981  16.363  0.00  0.00    +0.000 A 
ATOM      8  C   UNL     1       6.418   5.770  16.652  0.00  0.00    +0.000 A 
ATOM      9  C   UNL     1       7.454   5.852  15.731  0.00  0.00    +0.000 A 
ATOM     10  N   UNL     1       7.464   5.196  14.555  0.00  0.00    +0.000 NA
ATOM     11  C   UNL     1       6.394   4.430  14.282  0.00  0.00    +0.000 A 
ATOM     12  C   UNL     1       5.308   4.299  15.135  0.00  0.00    +0.000 A 
ENDBRANCH   4   7
BRANCH   1  13
ATOM     13  C   UNL     1       1.053   4.464  20.223  0.00  0.00    +0.000 C 
BRANCH  13  14
ATOM     14  C   UNL     1       0.814   2.989  20.524  0.00  0.00    +0.000 C 
BRANCH  14  15
ATOM     15  C   UNL     1       1.380   2.539  21.866  0.00  0.00    +0.000 C 
BRANCH  15  16
ATOM     16  N   UNL     1       2.835   2.556  21.829  0.00  0.00    +0.000 NA
ATOM     17  H   UNL     1       3.180   1.599  21.966  0.00  0.00    +0.000 HD
ATOM     18  H   UNL     1       3.188   3.050  22.656  0.00  0.00    +0.000 HD
ENDBRANCH  15  16
ENDBRANCH  14  15
ENDBRANCH  13  14
ENDBRANCH   1  13
TORSDOF 5
ENDMDL
MODEL 7
REMARK VINA RESULT:      -5.8      3.262      6.430
REMARK  Name = 
REMARK  5 active torsions:
REMARK  status: ('A' for Active; 'I' for Inactive)
REMARK    1  A    between atoms: N_1  and  C_2
REMARK    2  A    between atoms: C_2  and  C_3
REMARK    3  A    between atoms: C_3  and  C_4
REMARK    4  A    between atoms: C_4  and  N_5
REMARK    5  A    between atoms: C_8  and  C_9
REMARK                            x       y       z     vdW  Elec       q    Type
REMARK                         _______ _______ _______ _____ _____    ______ ____
ROOT
ATOM      1  N   UNL     1       4.293   4.901  17.017  0.00  0.00    +0.000 N 
ATOM      2  C   UNL     1       3.197   4.601  17.746  0.00  0.00    +0.000 A 
ATOM      3  C   UNL     1       2.454   5.614  18.354  0.00  0.00    +0.000 A 
ATOM      4  C   UNL     1       2.837   6.957  18.238  0.00  0.00    +0.000 A 
ATOM      5  C   UNL     1       4.020   7.211  17.533  0.00  0.00    +0.000 A 
ATOM      6  C   UNL     1       4.714   6.180  16.912  0.00  0.00    +0.000 A 
ENDROOT
BRANCH   4   7
ATOM      7  C   UNL     1       2.014   8.063  18.786  0.00  0.00    +0.000 A 
ATOM      8  C   UNL     1       1.574   9.134  17.995  0.00  0.00    +0.000 A 
ATOM      9  C   UNL     1       0.850  10.165  18.579  0.00  0.00    +0.000 A 
ATOM     10  N   UNL     1       0.519  10.202  19.883  0.00  0.00    +0.000 NA
ATOM     11  C   UNL     1       0.930   9.170  20.641  0.00  0.00    +0.000 A 
ATOM     12  C   UNL     1       1.669   8.105  20.148  0.00  0.00    +0.000 A 
ENDBRANCH   4   7
BRANCH   1  13
ATOM     13  C   UNL     1       4.995   3.828  16.266  0.00  0.00    +0.000 C 
BRANCH  13  14
ATOM     14  C   UNL     1       6.434   4.215  15.945  0.00  0.00    +0.000 C 
BRANCH  14  15
ATOM     15  C   UNL     1       6.705   4.377  14.454  0.00  0.00    +0.000 C 
BRANCH  15  16
ATOM     16  N   UNL     1       7.681   5.434  14.233  0.00  0.00    +0.000 NA
ATOM     17  H   UNL     1       7.718   5.645  13.229  0.00  0.00    +0.000 HD
ATOM     18  H   UNL     1       8.622   5.071  14.427  0.00  0.00    +0.000 HD
ENDBRANCH  15  16
ENDBRANCH  14  15
ENDBRANCH  13  14
ENDBRANCH   1  13
TORSDOF 5
ENDMDL
MODEL 8
REMARK VINA RESULT:      -5.7      3.986      4.706
REMARK  Name = 
REMARK  5 active torsions:
REMARK  status: ('A' for Active; 'I' for Inactive)
REMARK    1  A    between atoms: N_1  and  C_2
REMARK    2  A    between atoms: C_2  and  C_3
REMARK    3  A    between atoms: C_3  and  C_4
REMARK    4  A    between atoms: C_4  and  N_5
REMARK    5  A    between atoms: C_8  and  C_9
REMARK                            x       y       z     vdW  Elec       q    Type
REMARK                         _______ _______ _______ _____ _____    ______ ____
ROOT
ATOM      1  N   UNL     1       1.450   8.699  19.711  0.00  0.00    +0.000 N 
ATOM      2  C   UNL     1       1.812   7.505  20.229  0.00  0.00    +0.000 A 
ATOM      3  C   UNL     1       2.597   6.622  19.488  0.00  0.00    +0.000 A 
ATOM      4  C   UNL     1       3.010   6.942  18.187  0.00  0.00    +0.000 A 
ATOM      5  C   UNL     1       2.551   8.158  17.668  0.00  0.00    +0.000 A 
ATOM      6  C   UNL     1       1.799   9.028  18.449  0.00  0.00    +0.000 A 
ENDROOT
BRANCH   4   7
ATOM      7  C   UNL     1       3.927   6.070  17.413  0.00  0.00    +0.000 A 
ATOM      8  C   UNL     1       4.877   6.586  16.520  0.00  0.00    +0.000 A 
ATOM      9  C   UNL     1       5.672   5.715  15.786  0.00  0.00    +0.000 A 
ATOM     10  N   UNL     1       5.602   4.374  15.885  0.00  0.00    +0.000 NA
ATOM     11  C   UNL     1       4.699   3.879  16.749  0.00  0.00    +0.000 A 
ATOM     12  C   UNL     1       3.855   4.670  17.513  0.00  0.00    +0.000 A 
ENDBRANCH   4   7
BRANCH   1  13
ATOM     13  C   UNL     1       0.730   9.683  20.559  0.00  0.00    +0.000 C 
BRANCH  13  14
ATOM     14  C   UNL     1      -0.220   8.997  21.535  0.00  0.00    +0.000 C 
BRANCH  14  15
ATOM     15  C   UNL     1      -0.574   9.852  22.746  0.00  0.00    +0.000 C 
BRANCH  15  16
ATOM     16  N   UNL     1       0.395   9.640  23.811  0.00  0.00    +0.000 NA
ATOM     17  H   UNL     1       0.899  10.518  23.979  0.00  0.00    +0.000 HD
ATOM     18  H   UNL     1       1.133   9.010  23.476  0.00  0.00    +0.000 HD
ENDBRANCH  15  16
ENDBRANCH  14  15
ENDBRANCH  13  14
ENDBRANCH   1  13
TORSDOF 5
ENDMDL
MODEL 9
REMARK VINA RESULT:      -5.7      2.542      6.668
REMARK  Name = 
REMARK  5 active torsions:
REMARK  status: ('A' for Active; 'I' for Inactive)
REMARK    1  A    between atoms: N_1  and  C_2
REMARK    2  A    between atoms: C_2  and  C_3
REMARK    3  A    between atoms: C_3  and  C_4
REMARK    4  A    between atoms: C_4  and  N_5
REMARK    5  A    between atoms: C_8  and  C_9
REMARK                            x       y       z     vdW  Elec       q    Type
REMARK                         _______ _______ _______ _____ _____    ______ ____
ROOT
ATOM      1  N   UNL     1       6.283   6.560  17.736  0.00  0.00    +0.000 N 
ATOM      2  C   UNL     1       6.378   5.641  18.721  0.00  0.00    +0.000 A 
ATOM      3  C   UNL     1       5.253   4.926  19.132  0.00  0.00    +0.000 A 
ATOM      4  C   UNL     1       3.999   5.158  18.550  0.00  0.00    +0.000 A 
ATOM      5  C   UNL     1       3.937   6.169  17.583  0.00  0.00    +0.000 A 
ATOM      6  C   UNL     1       5.086   6.836  17.175  0.00  0.00    +0.000 A 
ENDROOT
BRANCH   4   7
ATOM      7  C   UNL     1       2.807   4.345  18.893  0.00  0.00    +0.000 A 
ATOM      8  C   UNL     1       2.013   4.616  20.017  0.00  0.00    +0.000 A 
ATOM      9  C   UNL     1       0.939   3.786  20.314  0.00  0.00    +0.000 A 
ATOM     10  N   UNL     1       0.589   2.721  19.570  0.00  0.00    +0.000 NA
ATOM     11  C   UNL     1       1.342   2.467  18.485  0.00  0.00    +0.000 A 
ATOM     12  C   UNL     1       2.439   3.231  18.119  0.00  0.00    +0.000 A 
ENDBRANCH   4   7
BRANCH   1  13
ATOM     13  C   UNL     1       7.511   7.214  17.217  0.00  0.00    +0.000 C 
BRANCH  13  14
ATOM     14  C   UNL     1       8.270   7.943  18.321  0.00  0.00    +0.000 C 
BRANCH  14  15
ATOM     15  C   UNL     1       8.369   9.449  18.103  0.00  0.00    +0.000 C 
BRANCH  15  16
ATOM     16  N   UNL     1       9.185  10.055  19.144  0.00  0.00    +0.000 NA
ATOM     17  H   UNL     1      10.151  10.127  18.807  0.00  0.00    +0.000 HD
ATOM     18  H   UNL     1       9.264   9.404  19.934  0.00  0.00    +0.000 HD
ENDBRANCH  15  16
ENDBRANCH  14  15
ENDBRANCH  13  14
ENDBRANCH   1  13
TORSDOF 5
ENDMDL
