MODEL 1
REMARK VINA RESULT:      -7.7      0.000      0.000
REMARK  Name = 
REMARK  7 active torsions:
REMARK  status: ('A' for Active; 'I' for Inactive)
REMARK    1  A    between atoms: C_1  and  C_2
REMARK    2  A    between atoms: C_2  and  C_3
REMARK    3  A    between atoms: C_2  and  N_4
REMARK    4  A    between atoms: C_6  and  N_7
REMARK    5  A    between atoms: N_10  and  C_11
REMARK    6  A    between atoms: C_11  and  C_12
REMARK    7  A    between atoms: N_21  and  C_22
REMARK                            x       y       z     vdW  Elec       q    Type
REMARK                         _______ _______ _______ _____ _____    ______ ____
ROOT
ATOM      1  N   UNL     1       6.879   4.608  15.724  0.00  0.00    +0.000 N 
ATOM      2  C   UNL     1       5.969   5.379  16.408  0.00  0.00    +0.000 C 
ATOM      3  O   UNL     1       5.033   5.999  15.914  0.00  0.00    +0.000 OA
ATOM      4  N   UNL     1       6.162   5.361  17.767  0.00  0.00    +0.000 N 
ATOM      5  H   UNL     1       7.583   4.108  16.245  0.00  0.00    +0.000 HD
ATOM      6  H   UNL     1       7.107   5.242  18.102  0.00  0.00    +0.000 HD
ENDROOT
BRANCH   1   9
ATOM      7  N   UNL     1       6.272   3.639  12.366  0.00  0.00    +0.000 N 
ATOM      8  C   UNL     1       5.932   3.577  13.682  0.00  0.00    +0.000 A 
ATOM      9  C   UNL     1       6.813   4.387  14.359  0.00  0.00    +0.000 A 
ATOM     10  C   UNL     1       7.629   4.925  13.343  0.00  0.00    +0.000 A 
ATOM     11  N   UNL     1       7.304   4.475  12.125  0.00  0.00    +0.000 NA
BRANCH   7  13
ATOM     12  C   UNL     1       6.025   1.402  11.349  0.00  0.00    +0.000 C 
ATOM     13  C   UNL     1       5.644   2.878  11.291  0.00  0.00    +0.000 C 
ATOM     14  C   UNL     1       4.129   3.065  11.279  0.00  0.00    +0.000 C 
ENDBRANCH   7  13
ENDBRANCH   1   9
BRANCH   4  15
ATOM     15  C   UNL     1       5.236   6.097  18.618  0.00  0.00    +0.000 C 
BRANCH  15  16
ATOM     16  C   UNL     1       3.758   5.635  18.542  0.00  0.00    +0.000 C 
ATOM     17  C   UNL     1       3.470   4.487  19.473  0.00  0.00    +0.000 A 
ATOM     18  C   UNL     1       3.982   3.198  19.479  0.00  0.00    +0.000 A 
ATOM     19  C   UNL     1       3.563   2.321  20.483  0.00  0.00    +0.000 A 
ATOM     20  C   UNL     1       2.627   2.727  21.450  0.00  0.00    +0.000 A 
ATOM     21  C   UNL     1       2.089   4.015  21.421  0.00  0.00    +0.000 A 
ATOM     22  C   UNL     1       2.527   4.868  20.424  0.00  0.00    +0.000 A 
ATOM     23  C   UNL     1       2.108   6.246  20.139  0.00  0.00    +0.000 C 
ATOM     24  O   UNL     1       1.258   6.853  20.759  0.00  0.00    +0.000 OA
ATOM     25  N   UNL     1       2.842   6.665  19.043  0.00  0.00    +0.000 N 
ATOM     26  C   UNL     1       2.592   7.891  18.322  0.00  0.00    +0.000 C 
ENDBRANCH  15  16
ENDBRANCH   4  15
TORSDOF 4
ENDMDL
MODEL 2
REMARK VINA RESULT:      -7.7      6.405      8.628
REMARK  Name = 
REMARK  7 active torsions:
REMARK  status: ('A' for Active; 'I' for Inactive)
REMARK    1  A    between atoms: C_1  and  C_2
REMARK    2  A    between atoms: C_2  and  C_3
REMARK    3  A    between atoms: C_2  and  N_4
REMARK    4  A    between atoms: C_6  and  N_7
REMARK    5  A    between atoms: N_10  and  C_11
REMARK    6  A    between atoms: C_11  and  C_12
REMARK    7  A    between atoms: N_21  and  C_22
REMARK                            x       y       z     vdW  Elec       q    Type
REMARK                         _______ _______ _______ _____ _____    ______ ____
ROOT
ATOM      1  N   UNL     1       7.919   6.806  18.526  0.00  0.00    +0.000 N 
ATOM      2  C   UNL     1       8.034   8.108  18.100  0.00  0.00    +0.000 C 
ATOM      3  O   UNL     1       7.462   8.604  17.136  0.00  0.00    +0.000 OA
ATOM      4  N   UNL     1       8.837   8.871  18.911  0.00  0.00    +0.000 N 
ATOM      5  H   UNL     1       8.406   6.522  19.363  0.00  0.00    +0.000 HD
ATOM      6  H   UNL     1       9.596   8.404  19.386  0.00  0.00    +0.000 HD
ENDROOT
BRANCH   1   9
ATOM      7  N   UNL     1       5.321   4.702  17.340  0.00  0.00    +0.000 N 
ATOM      8  C   UNL     1       5.713   5.777  18.076  0.00  0.00    +0.000 A 
ATOM      9  C   UNL     1       7.076   5.884  17.931  0.00  0.00    +0.000 A 
ATOM     10  C   UNL     1       7.406   4.834  17.049  0.00  0.00    +0.000 A 
ATOM     11  N   UNL     1       6.341   4.111  16.683  0.00  0.00    +0.000 NA
BRANCH   7  13
ATOM     12  C   UNL     1       3.851   2.800  17.905  0.00  0.00    +0.000 C 
ATOM     13  C   UNL     1       3.962   4.178  17.260  0.00  0.00    +0.000 C 
ATOM     14  C   UNL     1       2.946   5.155  17.848  0.00  0.00    +0.000 C 
ENDBRANCH   7  13
ENDBRANCH   1   9
BRANCH   4  15
ATOM     15  C   UNL     1       9.005  10.285  18.603  0.00  0.00    +0.000 C 
BRANCH  15  16
ATOM     16  C   UNL     1      10.063  11.027  19.460  0.00  0.00    +0.000 C 
ATOM     17  C   UNL     1      10.777  12.101  18.683  0.00  0.00    +0.000 A 
ATOM     18  C   UNL     1      11.599  11.996  17.571  0.00  0.00    +0.000 A 
ATOM     19  C   UNL     1      12.123  13.167  17.017  0.00  0.00    +0.000 A 
ATOM     20  C   UNL     1      11.843  14.421  17.588  0.00  0.00    +0.000 A 
ATOM     21  C   UNL     1      11.041  14.520  18.727  0.00  0.00    +0.000 A 
ATOM     22  C   UNL     1      10.526  13.347  19.251  0.00  0.00    +0.000 A 
ATOM     23  C   UNL     1       9.695  13.157  20.445  0.00  0.00    +0.000 C 
ATOM     24  O   UNL     1       9.343  14.049  21.192  0.00  0.00    +0.000 OA
ATOM     25  N   UNL     1       9.441  11.801  20.539  0.00  0.00    +0.000 N 
ATOM     26  C   UNL     1       8.821  11.170  21.682  0.00  0.00    +0.000 C 
ENDBRANCH  15  16
ENDBRANCH   4  15
TORSDOF 4
ENDMDL
MODEL 3
REMARK VINA RESULT:      -7.7      4.034      8.939
REMARK  Name = 
REMARK  7 active torsions:
REMARK  status: ('A' for Active; 'I' for Inactive)
REMARK    1  A    between atoms: C_1  and  C_2
REMARK    2  A    between atoms: C_2  and  C_3
REMARK    3  A    between atoms: C_2  and  N_4
REMARK    4  A    between atoms: C_6  and  N_7
REMARK    5  A    between atoms: N_10  and  C_11
REMARK    6  A    between atoms: C_11  and  C_12
REMARK    7  A    between atoms: N_21  and  C_22
REMARK                            x       y       z     vdW  Elec       q    Type
REMARK                         _______ _______ _______ _____ _____    ______ ____
ROOT
ATOM      1  N   UNL     1       1.525   7.766  20.477  0.00  0.00    +0.000 N 
ATOM      2  C   UNL     1       2.017   7.941  19.206  0.00  0.00    +0.000 C 
ATOM      3  O   UNL     1       1.953   8.970  18.543  0.00  0.00    +0.000 OA
ATOM      4  N   UNL     1       2.671   6.834  18.725  0.00  0.00    +0.000 N 
ATOM      5  H   UNL     1       1.676   6.882  20.941  0.00  0.00    +0.000 HD
ATOM      6  H   UNL     1       2.356   5.930  19.046  0.00  0.00    +0.000 HD
ENDROOT
BRANCH   1   9
ATOM      7  N   UNL     1      -0.286  10.503  21.823  0.00  0.00    +0.000 N 
ATOM      8  C   UNL     1      -0.037   9.662  20.782  0.00  0.00    +0.000 A 
ATOM      9  C   UNL     1       0.928   8.779  21.207  0.00  0.00    +0.000 A 
ATOM     10  C   UNL     1       1.168   9.156  22.545  0.00  0.00    +0.000 A 
ATOM     11  N   UNL     1       0.430  10.204  22.928  0.00  0.00    +0.000 NA
BRANCH   7  13
ATOM     12  C   UNL     1      -2.017  11.742  23.075  0.00  0.00    +0.000 C 
ATOM     13  C   UNL     1      -1.196  11.643  21.793  0.00  0.00    +0.000 C 
ATOM     14  C   UNL     1      -0.456  12.946  21.500  0.00  0.00    +0.000 C 
ENDBRANCH   7  13
ENDBRANCH   1   9
BRANCH   4  15
ATOM     15  C   UNL     1       3.286   6.899  17.405  0.00  0.00    +0.000 C 
BRANCH  15  16
ATOM     16  C   UNL     1       4.370   5.827  17.127  0.00  0.00    +0.000 C 
ATOM     17  C   UNL     1       5.732   6.251  17.610  0.00  0.00    +0.000 A 
ATOM     18  C   UNL     1       6.528   7.312  17.205  0.00  0.00    +0.000 A 
ATOM     19  C   UNL     1       7.756   7.504  17.842  0.00  0.00    +0.000 A 
ATOM     20  C   UNL     1       8.186   6.629  18.855  0.00  0.00    +0.000 A 
ATOM     21  C   UNL     1       7.396   5.543  19.238  0.00  0.00    +0.000 A 
ATOM     22  C   UNL     1       6.180   5.380  18.599  0.00  0.00    +0.000 A 
ATOM     23  C   UNL     1       5.181   4.320  18.775  0.00  0.00    +0.000 C 
ATOM     24  O   UNL     1       5.298   3.376  19.531  0.00  0.00    +0.000 OA
ATOM     25  N   UNL     1       4.141   4.608  17.909  0.00  0.00    +0.000 N 
ATOM     26  C   UNL     1       3.046   3.708  17.630  0.00  0.00    +0.000 C 
ENDBRANCH  15  16
ENDBRANCH   4  15
TORSDOF 4
ENDMDL
MODEL 4
REMARK VINA RESULT:      -7.6      3.720      8.570
REMARK  Name = 
REMARK  7 active torsions:
REMARK  status: ('A' for Active; 'I' for Inactive)
REMARK    1  A    between atoms: C_1  and  C_2
REMARK    2  A    between atoms: C_2  and  C_3
REMARK    3  A    between atoms: C_2  and  N_4
REMARK    4  A    between atoms: C_6  and  N_7
REMARK    5  A    between atoms: N_10  and  C_11
REMARK    6  A    between atoms: C_11  and  C_12
REMARK    7  A    between atoms: N_21  and  C_22
REMARK                            x       y       z     vdW  Elec       q    Type
REMARK                         _______ _______ _______ _____ _____    ______ ____
ROOT
ATOM      1  N   UNL     1       0.886   8.447  20.861  0.00  0.00    +0.000 N 
ATOM      2  C   UNL     1       1.810   7.805  20.071  0.00  0.00    +0.000 C 
ATOM      3  O   UNL     1       2.306   8.243  19.039  0.00  0.00    +0.000 OA
ATOM      4  N   UNL     1       2.201   6.591  20.579  0.00  0.00    +0.000 N 
ATOM      5  H   UNL     1       0.582   8.003  21.714  0.00  0.00    +0.000 HD
ATOM      6  H   UNL     1       1.526   6.074  21.124  0.00  0.00    +0.000 HD
ENDROOT
BRANCH   1   9
ATOM      7  N   UNL     1      -0.689  11.460  19.849  0.00  0.00    +0.000 N 
ATOM      8  C   UNL     1      -0.657  10.100  19.852  0.00  0.00    +0.000 A 
ATOM      9  C   UNL     1       0.431   9.729  20.607  0.00  0.00    +0.000 A 
ATOM     10  C   UNL     1       0.972  10.955  21.048  0.00  0.00    +0.000 A 
ATOM     11  N   UNL     1       0.293  12.014  20.591  0.00  0.00    +0.000 NA
BRANCH   7  13
ATOM     12  C   UNL     1      -1.947  11.697  17.737  0.00  0.00    +0.000 C 
ATOM     13  C   UNL     1      -1.641  12.284  19.112  0.00  0.00    +0.000 C 
ATOM     14  C   UNL     1      -2.917  12.525  19.914  0.00  0.00    +0.000 C 
ENDBRANCH   7  13
ENDBRANCH   1   9
BRANCH   4  15
ATOM     15  C   UNL     1       3.216   5.825  19.867  0.00  0.00    +0.000 C 
BRANCH  15  16
ATOM     16  C   UNL     1       2.749   5.191  18.531  0.00  0.00    +0.000 C 
ATOM     17  C   UNL     1       3.812   5.254  17.466  0.00  0.00    +0.000 A 
ATOM     18  C   UNL     1       4.398   6.355  16.860  0.00  0.00    +0.000 A 
ATOM     19  C   UNL     1       5.395   6.137  15.905  0.00  0.00    +0.000 A 
ATOM     20  C   UNL     1       5.778   4.831  15.550  0.00  0.00    +0.000 A 
ATOM     21  C   UNL     1       5.163   3.725  16.139  0.00  0.00    +0.000 A 
ATOM     22  C   UNL     1       4.186   3.967  17.089  0.00  0.00    +0.000 A 
ATOM     23  C   UNL     1       3.363   3.005  17.831  0.00  0.00    +0.000 C 
ATOM     24  O   UNL     1       3.412   1.799  17.691  0.00  0.00    +0.000 OA
ATOM     25  N   UNL     1       2.540   3.745  18.661  0.00  0.00    +0.000 N 
ATOM     26  C   UNL     1       1.441   3.190  19.417  0.00  0.00    +0.000 C 
ENDBRANCH  15  16
ENDBRANCH   4  15
TORSDOF 4
ENDMDL
MODEL 5
REMARK VINA RESULT:      -7.4      4.466      8.892
REMARK  Name = 
REMARK  7 active torsions:
REMARK  status: ('A' for Active; 'I' for Inactive)
REMARK    1  A    between atoms: C_1  and  C_2
REMARK    2  A    between atoms: C_2  and  C_3
REMARK    3  A    between atoms: C_2  and  N_4
REMARK    4  A    between atoms: C_6  and  N_7
REMARK    5  A    between atoms: N_10  and  C_11
REMARK    6  A    between atoms: C_11  and  C_12
REMARK    7  A    between atoms: N_21  and  C_22
REMARK                            x       y       z     vdW  Elec       q    Type
REMARK                         _______ _______ _______ _____ _____    ______ ____
ROOT
ATOM      1  N   UNL     1       0.229   9.842  17.631  0.00  0.00    +0.000 N 
ATOM      2  C   UNL     1       1.060   9.120  18.454  0.00  0.00    +0.000 C 
ATOM      3  O   UNL     1       0.991   9.063  19.677  0.00  0.00    +0.000 OA
ATOM      4  N   UNL     1       1.991   8.383  17.767  0.00  0.00    +0.000 N 
ATOM      5  H   UNL     1       0.357   9.776  16.632  0.00  0.00    +0.000 HD
ATOM      6  H   UNL     1       2.316   8.749  16.883  0.00  0.00    +0.000 HD
ENDROOT
BRANCH   1   9
ATOM      7  N   UNL     1      -2.881  11.309  18.500  0.00  0.00    +0.000 N 
ATOM      8  C   UNL     1      -2.188  10.300  17.905  0.00  0.00    +0.000 A 
ATOM      9  C   UNL     1      -0.853  10.570  18.093  0.00  0.00    +0.000 A 
ATOM     10  C   UNL     1      -0.851  11.758  18.854  0.00  0.00    +0.000 A 
ATOM     11  N   UNL     1      -2.084  12.213  19.107  0.00  0.00    +0.000 NA
BRANCH   7  13
ATOM     12  C   UNL     1      -4.796  12.509  19.497  0.00  0.00    +0.000 C 
ATOM     13  C   UNL     1      -4.332  11.464  18.486  0.00  0.00    +0.000 C 
ATOM     14  C   UNL     1      -4.852  11.773  17.084  0.00  0.00    +0.000 C 
ENDBRANCH   7  13
ENDBRANCH   1   9
BRANCH   4  15
ATOM     15  C   UNL     1       2.905   7.530  18.517  0.00  0.00    +0.000 C 
BRANCH  15  16
ATOM     16  C   UNL     1       3.478   6.323  17.731  0.00  0.00    +0.000 C 
ATOM     17  C   UNL     1       4.983   6.289  17.753  0.00  0.00    +0.000 A 
ATOM     18  C   UNL     1       5.901   7.193  17.238  0.00  0.00    +0.000 A 
ATOM     19  C   UNL     1       7.262   6.936  17.419  0.00  0.00    +0.000 A 
ATOM     20  C   UNL     1       7.693   5.775  18.086  0.00  0.00    +0.000 A 
ATOM     21  C   UNL     1       6.767   4.851  18.574  0.00  0.00    +0.000 A 
ATOM     22  C   UNL     1       5.425   5.133  18.392  0.00  0.00    +0.000 A 
ATOM     23  C   UNL     1       4.255   4.331  18.767  0.00  0.00    +0.000 C 
ATOM     24  O   UNL     1       4.306   3.240  19.299  0.00  0.00    +0.000 OA
ATOM     25  N   UNL     1       3.140   5.049  18.373  0.00  0.00    +0.000 N 
ATOM     26  C   UNL     1       1.794   4.523  18.381  0.00  0.00    +0.000 C 
ENDBRANCH  15  16
ENDBRANCH   4  15
TORSDOF 4
ENDMDL
MODEL 6
REMARK VINA RESULT:      -7.4      4.167      8.640
REMARK  Name = 
REMARK  7 active torsions:
REMARK  status: ('A' for Active; 'I' for Inactive)
REMARK    1  A    between atoms: C_1  and  C_2
REMARK    2  A    between atoms: C_2  and  C_3
REMARK    3  A    between atoms: C_2  and  N_4
REMARK    4  A    between atoms: C_6  and  N_7
REMARK    5  A    between atoms: N_10  and  C_11
REMARK    6  A    between atoms: C_11  and  C_12
REMARK    7  A    between atoms: N_21  and  C_22
REMARK                            x       y       z     vdW  Elec       q    Type
REMARK                         _______ _______ _______ _____ _____    ______ ____
ROOT
ATOM      1  N   UNL     1       1.027   9.848  19.591  0.00  0.00    +0.000 N 
ATOM      2  C   UNL     1       1.689   9.220  18.563  0.00  0.00    +0.000 C 
ATOM      3  O   UNL     1       1.921   9.696  17.457  0.00  0.00    +0.000 OA
ATOM      4  N   UNL     1       2.146   7.971  18.902  0.00  0.00    +0.000 N 
ATOM      5  H   UNL     1       0.934   9.371  20.475  0.00  0.00    +0.000 HD
ATOM      6  H   UNL     1       1.612   7.447  19.581  0.00  0.00    +0.000 HD
ENDROOT
BRANCH   1   9
ATOM      7  N   UNL     1       0.464  13.347  19.426  0.00  0.00    +0.000 N 
ATOM      8  C   UNL     1       1.334  12.300  19.430  0.00  0.00    +0.000 A 
ATOM      9  C   UNL     1       0.577  11.155  19.518  0.00  0.00    +0.000 A 
ATOM     10  C   UNL     1      -0.753  11.627  19.525  0.00  0.00    +0.000 A 
ATOM     11  N   UNL     1      -0.828  12.962  19.468  0.00  0.00    +0.000 NA
BRANCH   7  13
ATOM     12  C   UNL     1       2.175  14.981  18.715  0.00  0.00    +0.000 C 
ATOM     13  C   UNL     1       0.837  14.758  19.414  0.00  0.00    +0.000 C 
ATOM     14  C   UNL     1      -0.263  15.626  18.808  0.00  0.00    +0.000 C 
ENDBRANCH   7  13
ENDBRANCH   1   9
BRANCH   4  15
ATOM     15  C   UNL     1       2.910   7.212  17.920  0.00  0.00    +0.000 C 
BRANCH  15  16
ATOM     16  C   UNL     1       3.691   5.998  18.484  0.00  0.00    +0.000 C 
ATOM     17  C   UNL     1       2.822   4.777  18.633  0.00  0.00    +0.000 A 
ATOM     18  C   UNL     1       1.712   4.570  19.438  0.00  0.00    +0.000 A 
ATOM     19  C   UNL     1       1.060   3.336  19.367  0.00  0.00    +0.000 A 
ATOM     20  C   UNL     1       1.533   2.320  18.517  0.00  0.00    +0.000 A 
ATOM     21  C   UNL     1       2.670   2.521  17.733  0.00  0.00    +0.000 A 
ATOM     22  C   UNL     1       3.292   3.754  17.813  0.00  0.00    +0.000 A 
ATOM     23  C   UNL     1       4.508   4.220  17.137  0.00  0.00    +0.000 C 
ATOM     24  O   UNL     1       5.186   3.543  16.389  0.00  0.00    +0.000 OA
ATOM     25  N   UNL     1       4.713   5.526  17.544  0.00  0.00    +0.000 N 
ATOM     26  C   UNL     1       5.910   6.284  17.262  0.00  0.00    +0.000 C 
ENDBRANCH  15  16
ENDBRANCH   4  15
TORSDOF 4
ENDMDL
MODEL 7
REMARK VINA RESULT:      -7.4      3.892      8.954
REMARK  Name = 
REMARK  7 active torsions:
REMARK  status: ('A' for Active; 'I' for Inactive)
REMARK    1  A    between atoms: C_1  and  C_2
REMARK    2  A    between atoms: C_2  and  C_3
REMARK    3  A    between atoms: C_2  and  N_4
REMARK    4  A    between atoms: C_6  and  N_7
REMARK    5  A    between atoms: N_10  and  C_11
REMARK    6  A    between atoms: C_11  and  C_12
REMARK    7  A    between atoms: N_21  and  C_22
REMARK                            x       y       z     vdW  Elec       q    Type
REMARK                         _______ _______ _______ _____ _____    ______ ____
ROOT
ATOM      1  N   UNL     1       0.800   8.519  20.769  0.00  0.00    +0.000 N 
ATOM      2  C   UNL     1       1.746   7.876  20.006  0.00  0.00    +0.000 C 
ATOM      3  O   UNL     1       2.266   8.310  18.984  0.00  0.00    +0.000 OA
ATOM      4  N   UNL     1       2.128   6.666  20.531  0.00  0.00    +0.000 N 
ATOM      5  H   UNL     1       0.477   8.079  21.617  0.00  0.00    +0.000 HD
ATOM      6  H   UNL     1       1.441   6.150  21.062  0.00  0.00    +0.000 HD
ENDROOT
BRANCH   1   9
ATOM      7  N   UNL     1      -0.031  11.961  20.557  0.00  0.00    +0.000 N 
ATOM      8  C   UNL     1       0.695  10.965  21.135  0.00  0.00    +0.000 A 
ATOM      9  C   UNL     1       0.348   9.798  20.496  0.00  0.00    +0.000 A 
ATOM     10  C   UNL     1      -0.578  10.211  19.515  0.00  0.00    +0.000 A 
ATOM     11  N   UNL     1      -0.811  11.528  19.545  0.00  0.00    +0.000 NA
BRANCH   7  13
ATOM     12  C   UNL     1      -0.775  14.243  19.973  0.00  0.00    +0.000 C 
ATOM     13  C   UNL     1      -0.029  13.360  20.971  0.00  0.00    +0.000 C 
ATOM     14  C   UNL     1      -0.575  13.531  22.386  0.00  0.00    +0.000 C 
ENDBRANCH   7  13
ENDBRANCH   1   9
BRANCH   4  15
ATOM     15  C   UNL     1       3.163   5.900  19.848  0.00  0.00    +0.000 C 
BRANCH  15  16
ATOM     16  C   UNL     1       2.721   5.225  18.524  0.00  0.00    +0.000 C 
ATOM     17  C   UNL     1       3.786   5.299  17.462  0.00  0.00    +0.000 A 
ATOM     18  C   UNL     1       4.343   6.404  16.836  0.00  0.00    +0.000 A 
ATOM     19  C   UNL     1       5.350   6.196  15.890  0.00  0.00    +0.000 A 
ATOM     20  C   UNL     1       5.773   4.896  15.563  0.00  0.00    +0.000 A 
ATOM     21  C   UNL     1       5.187   3.784  16.171  0.00  0.00    +0.000 A 
ATOM     22  C   UNL     1       4.200   4.016  17.112  0.00  0.00    +0.000 A 
ATOM     23  C   UNL     1       3.401   3.046  17.869  0.00  0.00    +0.000 C 
ATOM     24  O   UNL     1       3.486   1.839  17.753  0.00  0.00    +0.000 OA
ATOM     25  N   UNL     1       2.554   3.778  18.682  0.00  0.00    +0.000 N 
ATOM     26  C   UNL     1       1.467   3.206  19.443  0.00  0.00    +0.000 C 
ENDBRANCH  15  16
ENDBRANCH   4  15
TORSDOF 4
ENDMDL
MODEL 8
REMARK VINA RESULT:      -7.4      4.150      8.668
REMARK  Name = 
REMARK  7 active torsions:
REMARK  status: ('A' for Active; 'I' for Inactive)
REMARK    1  A    between atoms: C_1  and  C_2
REMARK    2  A    between atoms: C_2  and  C_3
REMARK    3  A    between atoms: C_2  and  N_4
REMARK    4  A    between atoms: C_6  and  N_7
REMARK    5  A    between atoms: N_10  and  C_11
REMARK    6  A    between atoms: C_11  and  C_12
REMARK    7  A    between atoms: N_21  and  C_22
REMARK                            x       y       z     vdW  Elec       q    Type
REMARK                         _______ _______ _______ _____ _____    ______ ____
ROOT
ATOM      1  N   UNL     1       0.684   9.714  17.587  0.00  0.00    +0.000 N 
ATOM      2  C   UNL     1       1.506   8.945  18.376  0.00  0.00    +0.000 C 
ATOM      3  O   UNL     1       1.391   8.773  19.585  0.00  0.00    +0.000 OA
ATOM      4  N   UNL     1       2.488   8.301  17.665  0.00  0.00    +0.000 N 
ATOM      5  H   UNL     1       0.853   9.744  16.593  0.00  0.00    +0.000 HD
ATOM      6  H   UNL     1       2.834   8.757  16.833  0.00  0.00    +0.000 HD
ENDROOT
BRANCH   1   9
ATOM      7  N   UNL     1      -2.501  11.039  18.414  0.00  0.00    +0.000 N 
ATOM      8  C   UNL     1      -1.751  10.137  17.723  0.00  0.00    +0.000 A 
ATOM      9  C   UNL     1      -0.440  10.363  18.068  0.00  0.00    +0.000 A 
ATOM     10  C   UNL     1      -0.512  11.411  19.010  0.00  0.00    +0.000 A 
ATOM     11  N   UNL     1      -1.765  11.826  19.227  0.00  0.00    +0.000 NA
BRANCH   7  13
ATOM     12  C   UNL     1      -4.473  12.242  19.288  0.00  0.00    +0.000 C 
ATOM     13  C   UNL     1      -3.946  11.205  18.300  0.00  0.00    +0.000 C 
ATOM     14  C   UNL     1      -4.365  11.531  16.869  0.00  0.00    +0.000 C 
ENDBRANCH   7  13
ENDBRANCH   1   9
BRANCH   4  15
ATOM     15  C   UNL     1       3.400   7.412  18.372  0.00  0.00    +0.000 C 
BRANCH  15  16
ATOM     16  C   UNL     1       3.414   5.944  17.871  0.00  0.00    +0.000 C 
ATOM     17  C   UNL     1       4.624   5.640  17.028  0.00  0.00    +0.000 A 
ATOM     18  C   UNL     1       5.012   6.171  15.806  0.00  0.00    +0.000 A 
ATOM     19  C   UNL     1       6.211   5.730  15.240  0.00  0.00    +0.000 A 
ATOM     20  C   UNL     1       6.993   4.753  15.881  0.00  0.00    +0.000 A 
ATOM     21  C   UNL     1       6.582   4.197  17.094  0.00  0.00    +0.000 A 
ATOM     22  C   UNL     1       5.397   4.658  17.640  0.00  0.00    +0.000 A 
ATOM     23  C   UNL     1       4.720   4.229  18.868  0.00  0.00    +0.000 C 
ATOM     24  O   UNL     1       5.116   3.348  19.606  0.00  0.00    +0.000 OA
ATOM     25  N   UNL     1       3.573   4.996  18.977  0.00  0.00    +0.000 N 
ATOM     26  C   UNL     1       2.526   4.754  19.942  0.00  0.00    +0.000 C 
ENDBRANCH  15  16
ENDBRANCH   4  15
TORSDOF 4
ENDMDL
MODEL 9
REMARK VINA RESULT:      -7.3      4.528      9.413
REMARK  Name = 
REMARK  7 active torsions:
REMARK  status: ('A' for Active; 'I' for Inactive)
REMARK    1  A    between atoms: C_1  and  C_2
REMARK    2  A    between atoms: C_2  and  C_3
REMARK    3  A    between atoms: C_2  and  N_4
REMARK    4  A    between atoms: C_6  and  N_7
REMARK    5  A    between atoms: N_10  and  C_11
REMARK    6  A    between atoms: C_11  and  C_12
REMARK    7  A    between atoms: N_21  and  C_22
REMARK                            x       y       z     vdW  Elec       q    Type
REMARK                         _______ _______ _______ _____ _____    ______ ____
ROOT
ATOM      1  N   UNL     1       0.984   9.711  21.219  0.00  0.00    +0.000 N 
ATOM      2  C   UNL     1       1.194   9.102  20.005  0.00  0.00    +0.000 C 
ATOM      3  O   UNL     1       0.762   9.482  18.922  0.00  0.00    +0.000 OA
ATOM      4  N   UNL     1       2.017   8.006  20.088  0.00  0.00    +0.000 N 
ATOM      5  H   UNL     1       1.430   9.329  22.039  0.00  0.00    +0.000 HD
ATOM      6  H   UNL     1       1.999   7.474  20.946  0.00  0.00    +0.000 HD
ENDROOT
BRANCH   1   9
ATOM      7  N   UNL     1      -1.268  12.390  21.796  0.00  0.00    +0.000 N 
ATOM      8  C   UNL     1      -0.969  11.067  21.908  0.00  0.00    +0.000 A 
ATOM      9  C   UNL     1       0.281  10.894  21.363  0.00  0.00    +0.000 A 
ATOM     10  C   UNL     1       0.667  12.196  20.980  0.00  0.00    +0.000 A 
ATOM     11  N   UNL     1      -0.271  13.113  21.243  0.00  0.00    +0.000 NA
BRANCH   7  13
ATOM     12  C   UNL     1      -3.519  13.050  21.025  0.00  0.00    +0.000 C 
ATOM     13  C   UNL     1      -2.529  13.011  22.186  0.00  0.00    +0.000 C 
ATOM     14  C   UNL     1      -3.134  12.334  23.414  0.00  0.00    +0.000 C 
ENDBRANCH   7  13
ENDBRANCH   1   9
BRANCH   4  15
ATOM     15  C   UNL     1       2.364   7.294  18.865  0.00  0.00    +0.000 C 
BRANCH  15  16
ATOM     16  C   UNL     1       3.235   6.026  19.062  0.00  0.00    +0.000 C 
ATOM     17  C   UNL     1       2.404   4.777  19.198  0.00  0.00    +0.000 A 
ATOM     18  C   UNL     1       1.483   4.425  20.174  0.00  0.00    +0.000 A 
ATOM     19  C   UNL     1       0.819   3.201  20.050  0.00  0.00    +0.000 A 
ATOM     20  C   UNL     1       1.095   2.338  18.976  0.00  0.00    +0.000 A 
ATOM     21  C   UNL     1       2.046   2.681  18.014  0.00  0.00    +0.000 A 
ATOM     22  C   UNL     1       2.683   3.902  18.152  0.00  0.00    +0.000 A 
ATOM     23  C   UNL     1       3.736   4.493  17.319  0.00  0.00    +0.000 C 
ATOM     24  O   UNL     1       4.238   3.953  16.352  0.00  0.00    +0.000 OA
ATOM     25  N   UNL     1       4.034   5.726  17.870  0.00  0.00    +0.000 N 
ATOM     26  C   UNL     1       5.154   6.545  17.467  0.00  0.00    +0.000 C 
ENDBRANCH  15  16
ENDBRANCH   4  15
TORSDOF 4
ENDMDL
