MODEL 1
REMARK VINA RESULT:      -9.8      0.000      0.000
REMARK  Name = 
REMARK  9 active torsions:
REMARK  status: ('A' for Active; 'I' for Inactive)
REMARK    1  A    between atoms: C_1  and  C_2
REMARK    2  A    between atoms: C_5  and  N_6
REMARK    3  A    between atoms: C_7  and  C_9
REMARK    4  A    between atoms: C_14  and  C_15
REMARK    5  A    between atoms: C_16  and  C_17
REMARK    6  A    between atoms: C_17  and  C_18
REMARK    7  A    between atoms: C_27  and  C_28
REMARK    8  A    between atoms: C_30  and  C_31
REMARK    9  A    between atoms: C_33  and  C_34
REMARK                            x       y       z     vdW  Elec       q    Type
REMARK                         _______ _______ _______ _____ _____    ______ ____
ROOT
ATOM      1  C   UNL     1       0.949  10.174  20.741  0.00  0.00    +0.000 A 
ATOM      2  S   UNL     1       1.232   8.685  21.549  0.00  0.00    +0.000 S 
ATOM      3  C   UNL     1       1.648   7.951  20.062  0.00  0.00    +0.000 A 
ATOM      4  N   UNL     1       1.962   6.578  20.018  0.00  0.00    +0.000 N 
ATOM      5  N   UNL     1       1.811   5.836  21.148  0.00  0.00    +0.000 NA
ATOM      6  C   UNL     1       2.130   4.590  20.801  0.00  0.00    +0.000 A 
ATOM      7  C   UNL     1       2.003   3.496  21.797  0.00  0.00    +0.000 C 
ATOM      8  C   UNL     1       2.564   4.499  19.451  0.00  0.00    +0.000 A 
ATOM      9  C   UNL     1       2.402   5.790  18.956  0.00  0.00    +0.000 A 
ATOM     10  C   UNL     1       2.628   6.341  17.591  0.00  0.00    +0.000 C 
ATOM     11  N   UNL     1       1.648   8.744  19.011  0.00  0.00    +0.000 NA
ATOM     12  C   UNL     1       1.212  10.011  19.384  0.00  0.00    +0.000 A 
ATOM     13  C   UNL     1       1.068  11.040  18.313  0.00  0.00    +0.000 C 
ENDROOT
BRANCH   1  15
ATOM     14  N   UNL     1      -0.767  11.258  22.055  0.00  0.00    +0.000 N 
ATOM     15  C   UNL     1       0.470  11.371  21.429  0.00  0.00    +0.000 C 
ATOM     16  O   UNL     1       1.153  12.394  21.439  0.00  0.00    +0.000 OA
ATOM     17  H   UNL     1      -1.220  10.359  21.978  0.00  0.00    +0.000 HD
BRANCH  14  22
ATOM     18  C   UNL     1      -3.703  15.191  25.066  0.00  0.00    +0.000 C 
ATOM     19  C   UNL     1      -2.960  14.153  24.270  0.00  0.00    +0.000 A 
ATOM     20  C   UNL     1      -1.661  14.437  23.830  0.00  0.00    +0.000 A 
ATOM     21  C   UNL     1      -0.925  13.502  23.097  0.00  0.00    +0.000 A 
ATOM     22  C   UNL     1      -1.463  12.254  22.783  0.00  0.00    +0.000 A 
ATOM     23  C   UNL     1      -2.769  11.969  23.216  0.00  0.00    +0.000 A 
ATOM     24  C   UNL     1      -3.524  12.907  23.954  0.00  0.00    +0.000 A 
ATOM     25  C   UNL     1      -4.923  12.565  24.394  0.00  0.00    +0.000 C 
ENDBRANCH  14  22
ENDBRANCH   1  15
BRANCH   8  26
ATOM     26  C   UNL     1       3.084   3.273  18.758  0.00  0.00    +0.000 C 
BRANCH  26  27
ATOM     27  C   UNL     1       4.352   3.681  18.042  0.00  0.00    +0.000 A 
ATOM     28  C   UNL     1       5.446   4.215  18.764  0.00  0.00    +0.000 A 
ATOM     29  C   UNL     1       6.587   4.690  18.115  0.00  0.00    +0.000 A 
ATOM     30  C   UNL     1       6.620   4.605  16.742  0.00  0.00    +0.000 A 
ATOM     31  C   UNL     1       5.592   4.041  16.027  0.00  0.00    +0.000 A 
ATOM     32  C   UNL     1       4.455   3.556  16.645  0.00  0.00    +0.000 A 
ATOM     33  O   UNL     1       5.828   4.052  14.687  0.00  0.00    +0.000 OA
ATOM     34  C   UNL     1       7.084   4.761  14.642  0.00  0.00    +0.000 C 
ATOM     35  O   UNL     1       7.624   5.058  15.946  0.00  0.00    +0.000 OA
ENDBRANCH  26  27
ENDBRANCH   8  26
TORSDOF 4
ENDMDL
MODEL 2
REMARK VINA RESULT:      -9.6      0.917      1.243
REMARK  Name = 
REMARK  9 active torsions:
REMARK  status: ('A' for Active; 'I' for Inactive)
REMARK    1  A    between atoms: C_1  and  C_2
REMARK    2  A    between atoms: C_5  and  N_6
REMARK    3  A    between atoms: C_7  and  C_9
REMARK    4  A    between atoms: C_14  and  C_15
REMARK    5  A    between atoms: C_16  and  C_17
REMARK    6  A    between atoms: C_17  and  C_18
REMARK    7  A    between atoms: C_27  and  C_28
REMARK    8  A    between atoms: C_30  and  C_31
REMARK    9  A    between atoms: C_33  and  C_34
REMARK                            x       y       z     vdW  Elec       q    Type
REMARK                         _______ _______ _______ _____ _____    ______ ____
ROOT
ATOM      1  C   UNL     1       0.870  10.026  20.617  0.00  0.00    +0.000 A 
ATOM      2  S   UNL     1       1.122   8.533  21.427  0.00  0.00    +0.000 S 
ATOM      3  C   UNL     1       1.725   7.845  19.982  0.00  0.00    +0.000 A 
ATOM      4  N   UNL     1       2.096   6.486  19.951  0.00  0.00    +0.000 N 
ATOM      5  N   UNL     1       1.852   5.716  21.045  0.00  0.00    +0.000 NA
ATOM      6  C   UNL     1       2.255   4.490  20.714  0.00  0.00    +0.000 A 
ATOM      7  C   UNL     1       2.063   3.372  21.672  0.00  0.00    +0.000 C 
ATOM      8  C   UNL     1       2.837   4.443  19.418  0.00  0.00    +0.000 A 
ATOM      9  C   UNL     1       2.680   5.737  18.930  0.00  0.00    +0.000 A 
ATOM     10  C   UNL     1       3.031   6.325  17.608  0.00  0.00    +0.000 C 
ATOM     11  N   UNL     1       1.809   8.659  18.951  0.00  0.00    +0.000 NA
ATOM     12  C   UNL     1       1.286   9.901  19.294  0.00  0.00    +0.000 A 
ATOM     13  C   UNL     1       1.219  10.947  18.231  0.00  0.00    +0.000 C 
ENDROOT
BRANCH   1  15
ATOM     14  N   UNL     1      -1.104  11.139  21.460  0.00  0.00    +0.000 N 
ATOM     15  C   UNL     1       0.273  11.191  21.268  0.00  0.00    +0.000 C 
ATOM     16  O   UNL     1       0.980  12.134  21.618  0.00  0.00    +0.000 OA
ATOM     17  H   UNL     1      -1.564  10.302  21.133  0.00  0.00    +0.000 HD
BRANCH  14  22
ATOM     18  C   UNL     1      -4.492  15.202  23.733  0.00  0.00    +0.000 C 
ATOM     19  C   UNL     1      -3.593  14.160  23.125  0.00  0.00    +0.000 A 
ATOM     20  C   UNL     1      -3.332  12.987  23.843  0.00  0.00    +0.000 A 
ATOM     21  C   UNL     1      -2.513  11.983  23.316  0.00  0.00    +0.000 A 
ATOM     22  C   UNL     1      -1.933  12.122  22.056  0.00  0.00    +0.000 A 
ATOM     23  C   UNL     1      -2.186  13.301  21.337  0.00  0.00    +0.000 A 
ATOM     24  C   UNL     1      -3.009  14.323  21.860  0.00  0.00    +0.000 A 
ATOM     25  C   UNL     1      -3.251  15.576  21.059  0.00  0.00    +0.000 C 
ENDBRANCH  14  22
ENDBRANCH   1  15
BRANCH   8  26
ATOM     26  C   UNL     1       3.477   3.252  18.767  0.00  0.00    +0.000 C 
BRANCH  26  27
ATOM     27  C   UNL     1       4.656   3.769  17.973  0.00  0.00    +0.000 A 
ATOM     28  C   UNL     1       5.725   4.431  18.621  0.00  0.00    +0.000 A 
ATOM     29  C   UNL     1       6.774   5.003  17.900  0.00  0.00    +0.000 A 
ATOM     30  C   UNL     1       6.742   4.887  16.530  0.00  0.00    +0.000 A 
ATOM     31  C   UNL     1       5.741   4.202  15.885  0.00  0.00    +0.000 A 
ATOM     32  C   UNL     1       4.696   3.619  16.575  0.00  0.00    +0.000 A 
ATOM     33  O   UNL     1       5.902   4.203  14.534  0.00  0.00    +0.000 OA
ATOM     34  C   UNL     1       7.074   5.036  14.404  0.00  0.00    +0.000 C 
ATOM     35  O   UNL     1       7.649   5.420  15.669  0.00  0.00    +0.000 OA
ENDBRANCH  26  27
ENDBRANCH   8  26
TORSDOF 4
ENDMDL
MODEL 3
REMARK VINA RESULT:      -9.1      2.847     11.766
REMARK  Name = 
REMARK  9 active torsions:
REMARK  status: ('A' for Active; 'I' for Inactive)
REMARK    1  A    between atoms: C_1  and  C_2
REMARK    2  A    between atoms: C_5  and  N_6
REMARK    3  A    between atoms: C_7  and  C_9
REMARK    4  A    between atoms: C_14  and  C_15
REMARK    5  A    between atoms: C_16  and  C_17
REMARK    6  A    between atoms: C_17  and  C_18
REMARK    7  A    between atoms: C_27  and  C_28
REMARK    8  A    between atoms: C_30  and  C_31
REMARK    9  A    between atoms: C_33  and  C_34
REMARK                            x       y       z     vdW  Elec       q    Type
REMARK                         _______ _______ _______ _____ _____    ______ ____
ROOT
ATOM      1  C   UNL     1       1.302   9.468  19.292  0.00  0.00    +0.000 A 
ATOM      2  S   UNL     1       0.882  11.122  19.104  0.00  0.00    +0.000 S 
ATOM      3  C   UNL     1       0.065  11.091  20.606  0.00  0.00    +0.000 A 
ATOM      4  N   UNL     1      -0.618  12.237  21.060  0.00  0.00    +0.000 N 
ATOM      5  N   UNL     1      -0.713  13.312  20.233  0.00  0.00    +0.000 NA
ATOM      6  C   UNL     1      -1.440  14.210  20.898  0.00  0.00    +0.000 A 
ATOM      7  C   UNL     1      -1.798  15.493  20.243  0.00  0.00    +0.000 C 
ATOM      8  C   UNL     1      -1.780  13.768  22.205  0.00  0.00    +0.000 A 
ATOM      9  C   UNL     1      -1.275  12.473  22.266  0.00  0.00    +0.000 A 
ATOM     10  C   UNL     1      -1.350  11.452  23.348  0.00  0.00    +0.000 C 
ATOM     11  N   UNL     1       0.128   9.956  21.269  0.00  0.00    +0.000 NA
ATOM     12  C   UNL     1       0.802   9.007  20.507  0.00  0.00    +0.000 A 
ATOM     13  C   UNL     1       0.912   7.624  21.054  0.00  0.00    +0.000 C 
ENDROOT
BRANCH   1  15
ATOM     14  N   UNL     1       2.677   7.563  18.721  0.00  0.00    +0.000 N 
ATOM     15  C   UNL     1       2.037   8.716  18.277  0.00  0.00    +0.000 C 
ATOM     16  O   UNL     1       2.056   9.105  17.111  0.00  0.00    +0.000 OA
ATOM     17  H   UNL     1       2.574   7.352  19.703  0.00  0.00    +0.000 HD
BRANCH  14  22
ATOM     18  C   UNL     1       5.722   3.766  15.646  0.00  0.00    +0.000 C 
ATOM     19  C   UNL     1       4.921   4.738  16.468  0.00  0.00    +0.000 A 
ATOM     20  C   UNL     1       5.230   6.102  16.396  0.00  0.00    +0.000 A 
ATOM     21  C   UNL     1       4.508   7.046  17.132  0.00  0.00    +0.000 A 
ATOM     22  C   UNL     1       3.455   6.657  17.959  0.00  0.00    +0.000 A 
ATOM     23  C   UNL     1       3.148   5.288  18.040  0.00  0.00    +0.000 A 
ATOM     24  C   UNL     1       3.873   4.324  17.304  0.00  0.00    +0.000 A 
ATOM     25  C   UNL     1       3.516   2.866  17.423  0.00  0.00    +0.000 C 
ENDBRANCH  14  22
ENDBRANCH   1  15
BRANCH   8  26
ATOM     26  C   UNL     1      -2.507  14.556  23.255  0.00  0.00    +0.000 C 
BRANCH  26  27
ATOM     27  C   UNL     1      -3.829  13.860  23.487  0.00  0.00    +0.000 A 
ATOM     28  C   UNL     1      -4.049  13.107  24.665  0.00  0.00    +0.000 A 
ATOM     29  C   UNL     1      -5.223  12.375  24.855  0.00  0.00    +0.000 A 
ATOM     30  C   UNL     1      -6.171  12.425  23.861  0.00  0.00    +0.000 A 
ATOM     31  C   UNL     1      -6.000  13.193  22.735  0.00  0.00    +0.000 A 
ATOM     32  C   UNL     1      -4.853  13.933  22.525  0.00  0.00    +0.000 A 
ATOM     33  O   UNL     1      -7.058  13.104  21.883  0.00  0.00    +0.000 OA
ATOM     34  C   UNL     1      -7.873  12.129  22.568  0.00  0.00    +0.000 C 
ATOM     35  O   UNL     1      -7.347  11.742  23.854  0.00  0.00    +0.000 OA
ENDBRANCH  26  27
ENDBRANCH   8  26
TORSDOF 4
ENDMDL
MODEL 4
REMARK VINA RESULT:      -9.0      1.979      2.257
REMARK  Name = 
REMARK  9 active torsions:
REMARK  status: ('A' for Active; 'I' for Inactive)
REMARK    1  A    between atoms: C_1  and  C_2
REMARK    2  A    between atoms: C_5  and  N_6
REMARK    3  A    between atoms: C_7  and  C_9
REMARK    4  A    between atoms: C_14  and  C_15
REMARK    5  A    between atoms: C_16  and  C_17
REMARK    6  A    between atoms: C_17  and  C_18
REMARK    7  A    between atoms: C_27  and  C_28
REMARK    8  A    between atoms: C_30  and  C_31
REMARK    9  A    between atoms: C_33  and  C_34
REMARK                            x       y       z     vdW  Elec       q    Type
REMARK                         _______ _______ _______ _____ _____    ______ ____
ROOT
ATOM      1  C   UNL     1      -0.300  10.738  21.362  0.00  0.00    +0.000 A 
ATOM      2  S   UNL     1       0.201   9.172  21.857  0.00  0.00    +0.000 S 
ATOM      3  C   UNL     1       0.896   8.902  20.319  0.00  0.00    +0.000 A 
ATOM      4  N   UNL     1       1.483   7.656  20.021  0.00  0.00    +0.000 N 
ATOM      5  N   UNL     1       1.380   6.650  20.929  0.00  0.00    +0.000 NA
ATOM      6  C   UNL     1       1.975   5.599  20.366  0.00  0.00    +0.000 A 
ATOM      7  C   UNL     1       1.977   4.293  21.072  0.00  0.00    +0.000 C 
ATOM      8  C   UNL     1       2.545   5.913  19.103  0.00  0.00    +0.000 A 
ATOM      9  C   UNL     1       2.173   7.237  18.884  0.00  0.00    +0.000 A 
ATOM     10  C   UNL     1       2.411   8.132  17.718  0.00  0.00    +0.000 C 
ATOM     11  N   UNL     1       0.836   9.912  19.477  0.00  0.00    +0.000 NA
ATOM     12  C   UNL     1       0.119  10.956  20.052  0.00  0.00    +0.000 A 
ATOM     13  C   UNL     1      -0.128  12.172  19.223  0.00  0.00    +0.000 C 
ENDROOT
BRANCH   1  15
ATOM     14  N   UNL     1      -2.148  12.276  21.615  0.00  0.00    +0.000 N 
ATOM     15  C   UNL     1      -1.074  11.633  22.221  0.00  0.00    +0.000 C 
ATOM     16  O   UNL     1      -0.768  11.773  23.404  0.00  0.00    +0.000 OA
ATOM     17  H   UNL     1      -2.294  12.067  20.639  0.00  0.00    +0.000 HD
BRANCH  14  22
ATOM     18  C   UNL     1      -5.907  15.867  24.090  0.00  0.00    +0.000 C 
ATOM     19  C   UNL     1      -4.946  14.912  23.437  0.00  0.00    +0.000 A 
ATOM     20  C   UNL     1      -3.749  15.411  22.908  0.00  0.00    +0.000 A 
ATOM     21  C   UNL     1      -2.818  14.562  22.302  0.00  0.00    +0.000 A 
ATOM     22  C   UNL     1      -3.054  13.191  22.206  0.00  0.00    +0.000 A 
ATOM     23  C   UNL     1      -4.258  12.690  22.728  0.00  0.00    +0.000 A 
ATOM     24  C   UNL     1      -5.208  13.537  23.340  0.00  0.00    +0.000 A 
ATOM     25  C   UNL     1      -6.489  12.960  23.882  0.00  0.00    +0.000 C 
ENDBRANCH  14  22
ENDBRANCH   1  15
BRANCH   8  26
ATOM     26  C   UNL     1       3.366   5.001  18.238  0.00  0.00    +0.000 C 
BRANCH  26  27
ATOM     27  C   UNL     1       4.789   5.509  18.295  0.00  0.00    +0.000 A 
ATOM     28  C   UNL     1       5.710   4.966  19.221  0.00  0.00    +0.000 A 
ATOM     29  C   UNL     1       6.999   5.486  19.360  0.00  0.00    +0.000 A 
ATOM     30  C   UNL     1       7.350   6.539  18.549  0.00  0.00    +0.000 A 
ATOM     31  C   UNL     1       6.489   7.046  17.606  0.00  0.00    +0.000 A 
ATOM     32  C   UNL     1       5.212   6.545  17.442  0.00  0.00    +0.000 A 
ATOM     33  O   UNL     1       7.035   8.079  16.910  0.00  0.00    +0.000 OA
ATOM     34  C   UNL     1       8.306   8.213  17.580  0.00  0.00    +0.000 C 
ATOM     35  O   UNL     1       8.538   7.198  18.578  0.00  0.00    +0.000 OA
ENDBRANCH  26  27
ENDBRANCH   8  26
TORSDOF 4
ENDMDL
MODEL 5
REMARK VINA RESULT:      -8.9      2.050      2.520
REMARK  Name = 
REMARK  9 active torsions:
REMARK  status: ('A' for Active; 'I' for Inactive)
REMARK    1  A    between atoms: C_1  and  C_2
REMARK    2  A    between atoms: C_5  and  N_6
REMARK    3  A    between atoms: C_7  and  C_9
REMARK    4  A    between atoms: C_14  and  C_15
REMARK    5  A    between atoms: C_16  and  C_17
REMARK    6  A    between atoms: C_17  and  C_18
REMARK    7  A    between atoms: C_27  and  C_28
REMARK    8  A    between atoms: C_30  and  C_31
REMARK    9  A    between atoms: C_33  and  C_34
REMARK                            x       y       z     vdW  Elec       q    Type
REMARK                         _______ _______ _______ _____ _____    ______ ____
ROOT
ATOM      1  C   UNL     1      -0.237  10.881  21.275  0.00  0.00    +0.000 A 
ATOM      2  S   UNL     1       0.218   9.302  21.772  0.00  0.00    +0.000 S 
ATOM      3  C   UNL     1       0.940   9.025  20.247  0.00  0.00    +0.000 A 
ATOM      4  N   UNL     1       1.507   7.768  19.955  0.00  0.00    +0.000 N 
ATOM      5  N   UNL     1       1.361   6.759  20.855  0.00  0.00    +0.000 NA
ATOM      6  C   UNL     1       1.946   5.699  20.299  0.00  0.00    +0.000 A 
ATOM      7  C   UNL     1       1.904   4.389  20.997  0.00  0.00    +0.000 C 
ATOM      8  C   UNL     1       2.550   6.007  19.050  0.00  0.00    +0.000 A 
ATOM      9  C   UNL     1       2.212   7.340  18.832  0.00  0.00    +0.000 A 
ATOM     10  C   UNL     1       2.495   8.235  17.676  0.00  0.00    +0.000 C 
ATOM     11  N   UNL     1       0.921  10.040  19.411  0.00  0.00    +0.000 NA
ATOM     12  C   UNL     1       0.215  11.097  19.976  0.00  0.00    +0.000 A 
ATOM     13  C   UNL     1       0.013  12.322  19.149  0.00  0.00    +0.000 C 
ENDROOT
BRANCH   1  15
ATOM     14  N   UNL     1      -2.267  12.142  21.643  0.00  0.00    +0.000 N 
ATOM     15  C   UNL     1      -1.010  11.788  22.122  0.00  0.00    +0.000 C 
ATOM     16  O   UNL     1      -0.546  12.183  23.190  0.00  0.00    +0.000 OA
ATOM     17  H   UNL     1      -2.531  11.740  20.756  0.00  0.00    +0.000 HD
BRANCH  14  22
ATOM     18  C   UNL     1      -6.150  15.698  23.973  0.00  0.00    +0.000 C 
ATOM     19  C   UNL     1      -5.125  14.790  23.350  0.00  0.00    +0.000 A 
ATOM     20  C   UNL     1      -4.727  13.641  24.044  0.00  0.00    +0.000 A 
ATOM     21  C   UNL     1      -3.787  12.759  23.503  0.00  0.00    +0.000 A 
ATOM     22  C   UNL     1      -3.216  13.000  22.253  0.00  0.00    +0.000 A 
ATOM     23  C   UNL     1      -3.606  14.157  21.559  0.00  0.00    +0.000 A 
ATOM     24  C   UNL     1      -4.553  15.056  22.097  0.00  0.00    +0.000 A 
ATOM     25  C   UNL     1      -4.941  16.290  21.323  0.00  0.00    +0.000 C 
ENDBRANCH  14  22
ENDBRANCH   1  15
BRANCH   8  26
ATOM     26  C   UNL     1       3.369   5.081  18.199  0.00  0.00    +0.000 C 
BRANCH  26  27
ATOM     27  C   UNL     1       4.800   5.564  18.281  0.00  0.00    +0.000 A 
ATOM     28  C   UNL     1       5.689   5.021  19.239  0.00  0.00    +0.000 A 
ATOM     29  C   UNL     1       6.983   5.519  19.399  0.00  0.00    +0.000 A 
ATOM     30  C   UNL     1       7.373   6.551  18.578  0.00  0.00    +0.000 A 
ATOM     31  C   UNL     1       6.544   7.056  17.606  0.00  0.00    +0.000 A 
ATOM     32  C   UNL     1       5.262   6.576  17.420  0.00  0.00    +0.000 A 
ATOM     33  O   UNL     1       7.126   8.066  16.905  0.00  0.00    +0.000 OA
ATOM     34  C   UNL     1       8.384   8.189  17.604  0.00  0.00    +0.000 C 
ATOM     35  O   UNL     1       8.573   7.188  18.625  0.00  0.00    +0.000 OA
ENDBRANCH  26  27
ENDBRANCH   8  26
TORSDOF 4
ENDMDL
MODEL 6
REMARK VINA RESULT:      -8.8      0.895      1.361
REMARK  Name = 
REMARK  9 active torsions:
REMARK  status: ('A' for Active; 'I' for Inactive)
REMARK    1  A    between atoms: C_1  and  C_2
REMARK    2  A    between atoms: C_5  and  N_6
REMARK    3  A    between atoms: C_7  and  C_9
REMARK    4  A    between atoms: C_14  and  C_15
REMARK    5  A    between atoms: C_16  and  C_17
REMARK    6  A    between atoms: C_17  and  C_18
REMARK    7  A    between atoms: C_27  and  C_28
REMARK    8  A    between atoms: C_30  and  C_31
REMARK    9  A    between atoms: C_33  and  C_34
REMARK                            x       y       z     vdW  Elec       q    Type
REMARK                         _______ _______ _______ _____ _____    ______ ____
ROOT
ATOM      1  C   UNL     1       0.329   9.775  20.330  0.00  0.00    +0.000 A 
ATOM      2  S   UNL     1       0.480   8.257  21.118  0.00  0.00    +0.000 S 
ATOM      3  C   UNL     1       1.687   7.791  20.000  0.00  0.00    +0.000 A 
ATOM      4  N   UNL     1       2.246   6.499  20.066  0.00  0.00    +0.000 N 
ATOM      5  N   UNL     1       1.726   5.606  20.949  0.00  0.00    +0.000 NA
ATOM      6  C   UNL     1       2.409   4.477  20.757  0.00  0.00    +0.000 A 
ATOM      7  C   UNL     1       2.041   3.259  21.523  0.00  0.00    +0.000 C 
ATOM      8  C   UNL     1       3.440   4.627  19.791  0.00  0.00    +0.000 A 
ATOM      9  C   UNL     1       3.283   5.931  19.329  0.00  0.00    +0.000 A 
ATOM     10  C   UNL     1       4.016   6.679  18.271  0.00  0.00    +0.000 C 
ATOM     11  N   UNL     1       2.030   8.702  19.115  0.00  0.00    +0.000 NA
ATOM     12  C   UNL     1       1.231   9.830  19.271  0.00  0.00    +0.000 A 
ATOM     13  C   UNL     1       1.413  10.952  18.306  0.00  0.00    +0.000 C 
ENDROOT
BRANCH   1  15
ATOM     14  N   UNL     1      -0.470  11.316  22.013  0.00  0.00    +0.000 N 
ATOM     15  C   UNL     1      -0.643  10.788  20.738  0.00  0.00    +0.000 C 
ATOM     16  O   UNL     1      -1.539  11.131  19.969  0.00  0.00    +0.000 OA
ATOM     17  H   UNL     1       0.312  10.952  22.539  0.00  0.00    +0.000 HD
BRANCH  14  22
ATOM     18  C   UNL     1      -3.763  15.191  24.715  0.00  0.00    +0.000 C 
ATOM     19  C   UNL     1      -2.925  14.163  24.004  0.00  0.00    +0.000 A 
ATOM     20  C   UNL     1      -1.734  14.567  23.388  0.00  0.00    +0.000 A 
ATOM     21  C   UNL     1      -0.915  13.649  22.725  0.00  0.00    +0.000 A 
ATOM     22  C   UNL     1      -1.260  12.299  22.659  0.00  0.00    +0.000 A 
ATOM     23  C   UNL     1      -2.458  11.892  23.268  0.00  0.00    +0.000 A 
ATOM     24  C   UNL     1      -3.296  12.811  23.938  0.00  0.00    +0.000 A 
ATOM     25  C   UNL     1      -4.576  12.335  24.574  0.00  0.00    +0.000 C 
ENDBRANCH  14  22
ENDBRANCH   1  15
BRANCH   8  26
ATOM     26  C   UNL     1       4.456   3.594  19.398  0.00  0.00    +0.000 C 
BRANCH  26  27
ATOM     27  C   UNL     1       4.832   3.876  17.961  0.00  0.00    +0.000 A 
ATOM     28  C   UNL     1       3.911   3.630  16.915  0.00  0.00    +0.000 A 
ATOM     29  C   UNL     1       4.269   3.789  15.575  0.00  0.00    +0.000 A 
ATOM     30  C   UNL     1       5.549   4.211  15.304  0.00  0.00    +0.000 A 
ATOM     31  C   UNL     1       6.441   4.507  16.307  0.00  0.00    +0.000 A 
ATOM     32  C   UNL     1       6.111   4.367  17.641  0.00  0.00    +0.000 A 
ATOM     33  O   UNL     1       7.647   4.912  15.823  0.00  0.00    +0.000 OA
ATOM     34  C   UNL     1       7.432   4.757  14.404  0.00  0.00    +0.000 C 
ATOM     35  O   UNL     1       6.083   4.374  14.065  0.00  0.00    +0.000 OA
ENDBRANCH  26  27
ENDBRANCH   8  26
TORSDOF 4
ENDMDL
MODEL 7
REMARK VINA RESULT:      -8.8      2.062      2.522
REMARK  Name = 
REMARK  9 active torsions:
REMARK  status: ('A' for Active; 'I' for Inactive)
REMARK    1  A    between atoms: C_1  and  C_2
REMARK    2  A    between atoms: C_5  and  N_6
REMARK    3  A    between atoms: C_7  and  C_9
REMARK    4  A    between atoms: C_14  and  C_15
REMARK    5  A    between atoms: C_16  and  C_17
REMARK    6  A    between atoms: C_17  and  C_18
REMARK    7  A    between atoms: C_27  and  C_28
REMARK    8  A    between atoms: C_30  and  C_31
REMARK    9  A    between atoms: C_33  and  C_34
REMARK                            x       y       z     vdW  Elec       q    Type
REMARK                         _______ _______ _______ _____ _____    ______ ____
ROOT
ATOM      1  C   UNL     1      -0.353  10.650  21.578  0.00  0.00    +0.000 A 
ATOM      2  S   UNL     1       0.163   9.066  21.993  0.00  0.00    +0.000 S 
ATOM      3  C   UNL     1       0.856   8.879  20.441  0.00  0.00    +0.000 A 
ATOM      4  N   UNL     1       1.453   7.655  20.080  0.00  0.00    +0.000 N 
ATOM      5  N   UNL     1       1.362   6.604  20.937  0.00  0.00    +0.000 NA
ATOM      6  C   UNL     1       1.965   5.588  20.320  0.00  0.00    +0.000 A 
ATOM      7  C   UNL     1       1.981   4.248  20.960  0.00  0.00    +0.000 C 
ATOM      8  C   UNL     1       2.527   5.970  19.073  0.00  0.00    +0.000 A 
ATOM      9  C   UNL     1       2.143   7.300  18.922  0.00  0.00    +0.000 A 
ATOM     10  C   UNL     1       2.369   8.253  17.801  0.00  0.00    +0.000 C 
ATOM     11  N   UNL     1       0.784   9.929  19.651  0.00  0.00    +0.000 NA
ATOM     12  C   UNL     1       0.060  10.937  20.280  0.00  0.00    +0.000 A 
ATOM     13  C   UNL     1      -0.201  12.190  19.513  0.00  0.00    +0.000 C 
ENDROOT
BRANCH   1  15
ATOM     14  N   UNL     1      -1.166  12.849  22.170  0.00  0.00    +0.000 N 
ATOM     15  C   UNL     1      -1.132  11.494  22.483  0.00  0.00    +0.000 C 
ATOM     16  O   UNL     1      -1.714  10.996  23.445  0.00  0.00    +0.000 OA
ATOM     17  H   UNL     1      -0.651  13.125  21.347  0.00  0.00    +0.000 HD
BRANCH  14  22
ATOM     18  C   UNL     1      -3.747  17.076  25.107  0.00  0.00    +0.000 C 
ATOM     19  C   UNL     1      -3.062  15.962  24.363  0.00  0.00    +0.000 A 
ATOM     20  C   UNL     1      -3.614  15.511  23.158  0.00  0.00    +0.000 A 
ATOM     21  C   UNL     1      -3.009  14.487  22.424  0.00  0.00    +0.000 A 
ATOM     22  C   UNL     1      -1.835  13.883  22.871  0.00  0.00    +0.000 A 
ATOM     23  C   UNL     1      -1.283  14.326  24.085  0.00  0.00    +0.000 A 
ATOM     24  C   UNL     1      -1.887  15.358  24.837  0.00  0.00    +0.000 A 
ATOM     25  C   UNL     1      -1.267  15.801  26.136  0.00  0.00    +0.000 C 
ENDBRANCH  14  22
ENDBRANCH   1  15
BRANCH   8  26
ATOM     26  C   UNL     1       3.354   5.109  18.162  0.00  0.00    +0.000 C 
BRANCH  26  27
ATOM     27  C   UNL     1       4.777   5.608  18.263  0.00  0.00    +0.000 A 
ATOM     28  C   UNL     1       5.652   5.093  19.249  0.00  0.00    +0.000 A 
ATOM     29  C   UNL     1       6.938   5.607  19.424  0.00  0.00    +0.000 A 
ATOM     30  C   UNL     1       7.335   6.626  18.591  0.00  0.00    +0.000 A 
ATOM     31  C   UNL     1       6.521   7.103  17.592  0.00  0.00    +0.000 A 
ATOM     32  C   UNL     1       5.247   6.607  17.391  0.00  0.00    +0.000 A 
ATOM     33  O   UNL     1       7.107   8.105  16.882  0.00  0.00    +0.000 OA
ATOM     34  C   UNL     1       8.349   8.254  17.603  0.00  0.00    +0.000 C 
ATOM     35  O   UNL     1       8.527   7.276  18.648  0.00  0.00    +0.000 OA
ENDBRANCH  26  27
ENDBRANCH   8  26
TORSDOF 4
ENDMDL
MODEL 8
REMARK VINA RESULT:      -8.8      2.964     11.963
REMARK  Name = 
REMARK  9 active torsions:
REMARK  status: ('A' for Active; 'I' for Inactive)
REMARK    1  A    between atoms: C_1  and  C_2
REMARK    2  A    between atoms: C_5  and  N_6
REMARK    3  A    between atoms: C_7  and  C_9
REMARK    4  A    between atoms: C_14  and  C_15
REMARK    5  A    between atoms: C_16  and  C_17
REMARK    6  A    between atoms: C_17  and  C_18
REMARK    7  A    between atoms: C_27  and  C_28
REMARK    8  A    between atoms: C_30  and  C_31
REMARK    9  A    between atoms: C_33  and  C_34
REMARK                            x       y       z     vdW  Elec       q    Type
REMARK                         _______ _______ _______ _____ _____    ______ ____
ROOT
ATOM      1  C   UNL     1       1.399   9.400  19.255  0.00  0.00    +0.000 A 
ATOM      2  S   UNL     1       1.035  11.071  19.095  0.00  0.00    +0.000 S 
ATOM      3  C   UNL     1       0.189  11.035  20.581  0.00  0.00    +0.000 A 
ATOM      4  N   UNL     1      -0.466  12.192  21.046  0.00  0.00    +0.000 N 
ATOM      5  N   UNL     1      -0.511  13.287  20.241  0.00  0.00    +0.000 NA
ATOM      6  C   UNL     1      -1.222  14.193  20.911  0.00  0.00    +0.000 A 
ATOM      7  C   UNL     1      -1.527  15.500  20.276  0.00  0.00    +0.000 C 
ATOM      8  C   UNL     1      -1.601  13.736  22.202  0.00  0.00    +0.000 A 
ATOM      9  C   UNL     1      -1.138  12.424  22.245  0.00  0.00    +0.000 A 
ATOM     10  C   UNL     1      -1.266  11.384  23.303  0.00  0.00    +0.000 C 
ATOM     11  N   UNL     1       0.203   9.885  21.220  0.00  0.00    +0.000 NA
ATOM     12  C   UNL     1       0.862   8.931  20.451  0.00  0.00    +0.000 A 
ATOM     13  C   UNL     1       0.917   7.533  20.971  0.00  0.00    +0.000 C 
ENDROOT
BRANCH   1  15
ATOM     14  N   UNL     1       2.783   7.502  18.684  0.00  0.00    +0.000 N 
ATOM     15  C   UNL     1       2.129   8.646  18.238  0.00  0.00    +0.000 C 
ATOM     16  O   UNL     1       2.132   9.027  17.069  0.00  0.00    +0.000 OA
ATOM     17  H   UNL     1       2.693   7.298  19.669  0.00  0.00    +0.000 HD
BRANCH  14  22
ATOM     18  C   UNL     1       5.828   3.704  15.610  0.00  0.00    +0.000 C 
ATOM     19  C   UNL     1       5.028   4.677  16.432  0.00  0.00    +0.000 A 
ATOM     20  C   UNL     1       5.301   6.046  16.319  0.00  0.00    +0.000 A 
ATOM     21  C   UNL     1       4.578   6.990  17.053  0.00  0.00    +0.000 A 
ATOM     22  C   UNL     1       3.561   6.596  17.921  0.00  0.00    +0.000 A 
ATOM     23  C   UNL     1       3.290   5.223  18.044  0.00  0.00    +0.000 A 
ATOM     24  C   UNL     1       4.016   4.259  17.310  0.00  0.00    +0.000 A 
ATOM     25  C   UNL     1       3.699   2.796  17.475  0.00  0.00    +0.000 C 
ENDBRANCH  14  22
ENDBRANCH   1  15
BRANCH   8  26
ATOM     26  C   UNL     1      -2.323  14.525  23.255  0.00  0.00    +0.000 C 
BRANCH  26  27
ATOM     27  C   UNL     1      -3.802  14.318  23.019  0.00  0.00    +0.000 A 
ATOM     28  C   UNL     1      -4.561  15.285  22.318  0.00  0.00    +0.000 A 
ATOM     29  C   UNL     1      -5.944  15.164  22.173  0.00  0.00    +0.000 A 
ATOM     30  C   UNL     1      -6.546  14.056  22.724  0.00  0.00    +0.000 A 
ATOM     31  C   UNL     1      -5.820  13.079  23.360  0.00  0.00    +0.000 A 
ATOM     32  C   UNL     1      -4.450  13.170  23.510  0.00  0.00    +0.000 A 
ATOM     33  O   UNL     1      -6.607  12.071  23.825  0.00  0.00    +0.000 OA
ATOM     34  C   UNL     1      -7.916  12.571  23.477  0.00  0.00    +0.000 C 
ATOM     35  O   UNL     1      -7.880  13.799  22.721  0.00  0.00    +0.000 OA
ENDBRANCH  26  27
ENDBRANCH   8  26
TORSDOF 4
ENDMDL
MODEL 9
REMARK VINA RESULT:      -8.7      2.817     11.780
REMARK  Name = 
REMARK  9 active torsions:
REMARK  status: ('A' for Active; 'I' for Inactive)
REMARK    1  A    between atoms: C_1  and  C_2
REMARK    2  A    between atoms: C_5  and  N_6
REMARK    3  A    between atoms: C_7  and  C_9
REMARK    4  A    between atoms: C_14  and  C_15
REMARK    5  A    between atoms: C_16  and  C_17
REMARK    6  A    between atoms: C_17  and  C_18
REMARK    7  A    between atoms: C_27  and  C_28
REMARK    8  A    between atoms: C_30  and  C_31
REMARK    9  A    between atoms: C_33  and  C_34
REMARK                            x       y       z     vdW  Elec       q    Type
REMARK                         _______ _______ _______ _____ _____    ______ ____
ROOT
ATOM      1  C   UNL     1       1.413   9.225  19.319  0.00  0.00    +0.000 A 
ATOM      2  S   UNL     1       1.047  10.890  19.111  0.00  0.00    +0.000 S 
ATOM      3  C   UNL     1       0.201  10.895  20.597  0.00  0.00    +0.000 A 
ATOM      4  N   UNL     1      -0.457  12.064  21.029  0.00  0.00    +0.000 N 
ATOM      5  N   UNL     1      -0.502  13.135  20.193  0.00  0.00    +0.000 NA
ATOM      6  C   UNL     1      -1.215  14.059  20.837  0.00  0.00    +0.000 A 
ATOM      7  C   UNL     1      -1.521  15.348  20.165  0.00  0.00    +0.000 C 
ATOM      8  C   UNL     1      -1.594  13.639  22.140  0.00  0.00    +0.000 A 
ATOM      9  C   UNL     1      -1.129  12.329  22.221  0.00  0.00    +0.000 A 
ATOM     10  C   UNL     1      -1.256  11.320  23.308  0.00  0.00    +0.000 C 
ATOM     11  N   UNL     1       0.216   9.763  21.269  0.00  0.00    +0.000 NA
ATOM     12  C   UNL     1       0.876   8.789  20.527  0.00  0.00    +0.000 A 
ATOM     13  C   UNL     1       0.933   7.407  21.087  0.00  0.00    +0.000 C 
ENDROOT
BRANCH   1  15
ATOM     14  N   UNL     1       2.708   7.256  18.780  0.00  0.00    +0.000 N 
ATOM     15  C   UNL     1       2.145   8.443  18.324  0.00  0.00    +0.000 C 
ATOM     16  O   UNL     1       2.226   8.840  17.163  0.00  0.00    +0.000 OA
ATOM     17  H   UNL     1       2.560   7.043  19.756  0.00  0.00    +0.000 HD
BRANCH  14  22
ATOM     18  C   UNL     1       5.924   3.520  15.805  0.00  0.00    +0.000 C 
ATOM     19  C   UNL     1       5.098   4.517  16.571  0.00  0.00    +0.000 A 
ATOM     20  C   UNL     1       3.793   4.173  16.943  0.00  0.00    +0.000 A 
ATOM     21  C   UNL     1       2.989   5.060  17.665  0.00  0.00    +0.000 A 
ATOM     22  C   UNL     1       3.466   6.316  18.039  0.00  0.00    +0.000 A 
ATOM     23  C   UNL     1       4.772   6.667  17.660  0.00  0.00    +0.000 A 
ATOM     24  C   UNL     1       5.592   5.781  16.927  0.00  0.00    +0.000 A 
ATOM     25  C   UNL     1       6.985   6.198  16.535  0.00  0.00    +0.000 C 
ENDBRANCH  14  22
ENDBRANCH   1  15
BRANCH   8  26
ATOM     26  C   UNL     1      -2.317  14.456  23.170  0.00  0.00    +0.000 C 
BRANCH  26  27
ATOM     27  C   UNL     1      -3.677  13.821  23.355  0.00  0.00    +0.000 A 
ATOM     28  C   UNL     1      -3.995  13.138  24.553  0.00  0.00    +0.000 A 
ATOM     29  C   UNL     1      -5.206  12.461  24.708  0.00  0.00    +0.000 A 
ATOM     30  C   UNL     1      -6.092  12.494  23.657  0.00  0.00    +0.000 A 
ATOM     31  C   UNL     1      -5.825  13.197  22.507  0.00  0.00    +0.000 A 
ATOM     32  C   UNL     1      -4.639  13.883  22.331  0.00  0.00    +0.000 A 
ATOM     33  O   UNL     1      -6.834  13.103  21.599  0.00  0.00    +0.000 OA
ATOM     34  C   UNL     1      -7.726  12.195  22.281  0.00  0.00    +0.000 C 
ATOM     35  O   UNL     1      -7.291  11.856  23.614  0.00  0.00    +0.000 OA
ENDBRANCH  26  27
ENDBRANCH   8  26
TORSDOF 4
ENDMDL
