MODEL 1
REMARK VINA RESULT:      -7.7      0.000      0.000
REMARK  Name = 
REMARK  8 active torsions:
REMARK  status: ('A' for Active; 'I' for Inactive)
REMARK    1  A    between atoms: CB_1  and  CA_2
REMARK    2  A    between atoms: CA_2  and  N_3
REMARK    3  A    between atoms: CA_2  and  C_15
REMARK    4  A    between atoms: C_4  and  C_6
REMARK    5  A    between atoms: C_6  and  C_7
REMARK    6  A    between atoms: N_17  and  CA_18
REMARK    7  A    between atoms: CA_18  and  C_19
REMARK    8  A    between atoms: C_19  and  O_20
REMARK                            x       y       z     vdW  Elec       q    Type
REMARK                         _______ _______ _______ _____ _____    ______ ____
ROOT
ATOM      1  N   ALA A   1       4.247   4.656  16.698  0.00  0.00    +0.000 N 
ATOM      2  C   UNK A   0       4.121   5.858  17.355  0.00  0.00    +0.000 C 
ATOM      3  O   UNK A   0       5.029   6.675  17.485  0.00  0.00    +0.000 OA
ATOM      4  H   ALA A   1       3.423   4.071  16.624  0.00  0.00    +0.000 HD
ENDROOT
BRANCH   1   6
ATOM      5  CB  ALA A   1       5.463   4.358  14.479  0.00  0.00    +0.000 C 
ATOM      6  CA  ALA A   1       5.439   4.151  15.987  0.00  0.00    +0.000 C 
BRANCH   6   7
ATOM      7  C   ALA A   1       6.738   4.730  16.590  0.00  0.00    +0.000 C 
ATOM      8  O   ALA A   1       7.422   5.560  15.996  0.00  0.00    +0.000 OA
ATOM      9  N   GLY A   2       7.003   4.343  17.885  0.00  0.00    +0.000 N 
ATOM     10  H   GLY A   2       6.306   3.789  18.370  0.00  0.00    +0.000 HD
BRANCH   9  11
ATOM     11  CA  GLY A   2       8.168   4.819  18.614  0.00  0.00    +0.000 C 
BRANCH  11  12
ATOM     12  C   GLY A   2       7.798   5.798  19.727  0.00  0.00    +0.000 C 
BRANCH  12  13
ATOM     13  O   GLY A   2       8.272   5.309  20.981  0.00  0.00    +0.000 OA
ATOM     14  H   GLY A   2       9.136   5.730  21.131  0.00  0.00    +0.000 HD
ENDBRANCH  12  13
ENDBRANCH  11  12
ENDBRANCH   9  11
ENDBRANCH   6   7
ENDBRANCH   1   6
BRANCH   2  15
ATOM     15  C   UNK A   0       2.748   6.117  17.949  0.00  0.00    +0.000 C 
BRANCH  15  16
ATOM     16  C   UNK A   0       2.238   4.987  18.808  0.00  0.00    +0.000 A 
ATOM     17  C   UNK A   0       1.468   3.959  18.246  0.00  0.00    +0.000 A 
ATOM     18  C   UNK A   0       1.033   2.894  19.035  0.00  0.00    +0.000 A 
ATOM     19  F   UNK A   0       0.298   1.924  18.478  0.00  0.00    +0.000 F 
ATOM     20  C   UNK A   0       1.350   2.822  20.385  0.00  0.00    +0.000 A 
ATOM     21  C   UNK A   0       2.118   3.834  20.941  0.00  0.00    +0.000 A 
ATOM     22  F   UNK A   0       2.441   3.773  22.239  0.00  0.00    +0.000 F 
ATOM     23  C   UNK A   0       2.567   4.907  20.171  0.00  0.00    +0.000 A 
ENDBRANCH  15  16
ENDBRANCH   2  15
TORSDOF 7
ENDMDL
MODEL 2
REMARK VINA RESULT:      -7.6      1.217      2.318
REMARK  Name = 
REMARK  8 active torsions:
REMARK  status: ('A' for Active; 'I' for Inactive)
REMARK    1  A    between atoms: CB_1  and  CA_2
REMARK    2  A    between atoms: CA_2  and  N_3
REMARK    3  A    between atoms: CA_2  and  C_15
REMARK    4  A    between atoms: C_4  and  C_6
REMARK    5  A    between atoms: C_6  and  C_7
REMARK    6  A    between atoms: N_17  and  CA_18
REMARK    7  A    between atoms: CA_18  and  C_19
REMARK    8  A    between atoms: C_19  and  O_20
REMARK                            x       y       z     vdW  Elec       q    Type
REMARK                         _______ _______ _______ _____ _____    ______ ____
ROOT
ATOM      1  N   ALA A   1       4.473   4.631  17.403  0.00  0.00    +0.000 N 
ATOM      2  C   UNK A   0       4.019   5.926  17.311  0.00  0.00    +0.000 C 
ATOM      3  O   UNK A   0       4.582   6.814  16.678  0.00  0.00    +0.000 OA
ATOM      4  H   ALA A   1       3.912   3.971  17.929  0.00  0.00    +0.000 HD
ENDROOT
BRANCH   1   6
ATOM      5  CB  ALA A   1       5.685   4.164  15.211  0.00  0.00    +0.000 C 
ATOM      6  CA  ALA A   1       5.653   4.052  16.729  0.00  0.00    +0.000 C 
BRANCH   6   7
ATOM      7  C   ALA A   1       6.965   4.633  17.299  0.00  0.00    +0.000 C 
ATOM      8  O   ALA A   1       8.070   4.263  16.907  0.00  0.00    +0.000 OA
ATOM      9  N   GLY A   2       6.805   5.678  18.182  0.00  0.00    +0.000 N 
ATOM     10  H   GLY A   2       5.870   6.040  18.329  0.00  0.00    +0.000 HD
BRANCH   9  11
ATOM     11  CA  GLY A   2       7.937   6.361  18.789  0.00  0.00    +0.000 C 
BRANCH  11  12
ATOM     12  C   GLY A   2       8.084   7.798  18.292  0.00  0.00    +0.000 C 
BRANCH  12  13
ATOM     13  O   GLY A   2       7.524   7.918  16.985  0.00  0.00    +0.000 OA
ATOM     14  H   GLY A   2       8.089   7.390  16.394  0.00  0.00    +0.000 HD
ENDBRANCH  12  13
ENDBRANCH  11  12
ENDBRANCH   9  11
ENDBRANCH   6   7
ENDBRANCH   1   6
BRANCH   2  15
ATOM     15  C   UNK A   0       2.744   6.209  18.086  0.00  0.00    +0.000 C 
BRANCH  15  16
ATOM     16  C   UNK A   0       2.248   5.030  18.886  0.00  0.00    +0.000 A 
ATOM     17  C   UNK A   0       2.551   4.918  20.249  0.00  0.00    +0.000 A 
ATOM     18  C   UNK A   0       2.056   3.848  20.995  0.00  0.00    +0.000 A 
ATOM     19  F   UNK A   0       2.360   3.761  22.295  0.00  0.00    +0.000 F 
ATOM     20  C   UNK A   0       1.254   2.877  20.413  0.00  0.00    +0.000 A 
ATOM     21  C   UNK A   0       0.946   2.989  19.066  0.00  0.00    +0.000 A 
ATOM     22  F   UNK A   0       0.164   2.065  18.493  0.00  0.00    +0.000 F 
ATOM     23  C   UNK A   0       1.427   4.052  18.301  0.00  0.00    +0.000 A 
ENDBRANCH  15  16
ENDBRANCH   2  15
TORSDOF 7
ENDMDL
MODEL 3
REMARK VINA RESULT:      -7.6      1.687      3.319
REMARK  Name = 
REMARK  8 active torsions:
REMARK  status: ('A' for Active; 'I' for Inactive)
REMARK    1  A    between atoms: CB_1  and  CA_2
REMARK    2  A    between atoms: CA_2  and  N_3
REMARK    3  A    between atoms: CA_2  and  C_15
REMARK    4  A    between atoms: C_4  and  C_6
REMARK    5  A    between atoms: C_6  and  C_7
REMARK    6  A    between atoms: N_17  and  CA_18
REMARK    7  A    between atoms: CA_18  and  C_19
REMARK    8  A    between atoms: C_19  and  O_20
REMARK                            x       y       z     vdW  Elec       q    Type
REMARK                         _______ _______ _______ _____ _____    ______ ____
ROOT
ATOM      1  N   ALA A   1       5.177   6.666  17.204  0.00  0.00    +0.000 N 
ATOM      2  C   UNK A   0       4.499   5.654  17.845  0.00  0.00    +0.000 C 
ATOM      3  O   UNK A   0       4.990   4.566  18.135  0.00  0.00    +0.000 OA
ATOM      4  H   ALA A   1       4.682   7.535  17.041  0.00  0.00    +0.000 HD
ENDROOT
BRANCH   1   6
ATOM      5  CB  ALA A   1       7.606   6.969  17.912  0.00  0.00    +0.000 C 
ATOM      6  CA  ALA A   1       6.600   6.671  16.808  0.00  0.00    +0.000 C 
BRANCH   6   7
ATOM      7  C   ALA A   1       6.995   5.348  16.118  0.00  0.00    +0.000 C 
ATOM      8  O   ALA A   1       7.874   4.614  16.563  0.00  0.00    +0.000 OA
ATOM      9  N   GLY A   2       6.208   4.992  15.044  0.00  0.00    +0.000 N 
ATOM     10  H   GLY A   2       5.396   5.562  14.838  0.00  0.00    +0.000 HD
BRANCH   9  11
ATOM     11  CA  GLY A   2       6.422   3.762  14.299  0.00  0.00    +0.000 C 
BRANCH  11  12
ATOM     12  C   GLY A   2       5.683   3.755  12.962  0.00  0.00    +0.000 C 
BRANCH  12  13
ATOM     13  O   GLY A   2       6.204   2.723  12.126  0.00  0.00    +0.000 OA
ATOM     14  H   GLY A   2       5.566   1.989  12.164  0.00  0.00    +0.000 HD
ENDBRANCH  12  13
ENDBRANCH  11  12
ENDBRANCH   9  11
ENDBRANCH   6   7
ENDBRANCH   1   6
BRANCH   2  15
ATOM     15  C   UNK A   0       3.048   5.965  18.165  0.00  0.00    +0.000 C 
BRANCH  15  16
ATOM     16  C   UNK A   0       2.367   4.898  18.985  0.00  0.00    +0.000 A 
ATOM     17  C   UNK A   0       1.533   3.954  18.370  0.00  0.00    +0.000 A 
ATOM     18  C   UNK A   0       0.937   2.943  19.125  0.00  0.00    +0.000 A 
ATOM     19  F   UNK A   0       0.143   2.054  18.518  0.00  0.00    +0.000 F 
ATOM     20  C   UNK A   0       1.155   2.844  20.492  0.00  0.00    +0.000 A 
ATOM     21  C   UNK A   0       1.987   3.771  21.101  0.00  0.00    +0.000 A 
ATOM     22  F   UNK A   0       2.216   3.682  22.418  0.00  0.00    +0.000 F 
ATOM     23  C   UNK A   0       2.596   4.789  20.367  0.00  0.00    +0.000 A 
ENDBRANCH  15  16
ENDBRANCH   2  15
TORSDOF 7
ENDMDL
MODEL 4
REMARK VINA RESULT:      -7.4      2.263      3.807
REMARK  Name = 
REMARK  8 active torsions:
REMARK  status: ('A' for Active; 'I' for Inactive)
REMARK    1  A    between atoms: CB_1  and  CA_2
REMARK    2  A    between atoms: CA_2  and  N_3
REMARK    3  A    between atoms: CA_2  and  C_15
REMARK    4  A    between atoms: C_4  and  C_6
REMARK    5  A    between atoms: C_6  and  C_7
REMARK    6  A    between atoms: N_17  and  CA_18
REMARK    7  A    between atoms: CA_18  and  C_19
REMARK    8  A    between atoms: C_19  and  O_20
REMARK                            x       y       z     vdW  Elec       q    Type
REMARK                         _______ _______ _______ _____ _____    ______ ____
ROOT
ATOM      1  N   ALA A   1       5.385   6.259  17.914  0.00  0.00    +0.000 N 
ATOM      2  C   UNK A   0       5.343   5.557  19.096  0.00  0.00    +0.000 C 
ATOM      3  O   UNK A   0       6.326   5.076  19.652  0.00  0.00    +0.000 OA
ATOM      4  H   ALA A   1       4.515   6.639  17.560  0.00  0.00    +0.000 HD
ENDROOT
BRANCH   1   6
ATOM      5  CB  ALA A   1       7.759   7.186  17.928  0.00  0.00    +0.000 C 
ATOM      6  CA  ALA A   1       6.588   6.619  17.136  0.00  0.00    +0.000 C 
BRANCH   6   7
ATOM      7  C   ALA A   1       7.088   5.426  16.293  0.00  0.00    +0.000 C 
ATOM      8  O   ALA A   1       7.816   4.554  16.760  0.00  0.00    +0.000 OA
ATOM      9  N   GLY A   2       6.560   5.347  15.023  0.00  0.00    +0.000 N 
ATOM     10  H   GLY A   2       5.836   6.008  14.765  0.00  0.00    +0.000 HD
BRANCH   9  11
ATOM     11  CA  GLY A   2       6.900   4.270  14.107  0.00  0.00    +0.000 C 
BRANCH  11  12
ATOM     12  C   GLY A   2       5.699   3.805  13.284  0.00  0.00    +0.000 C 
BRANCH  12  13
ATOM     13  O   GLY A   2       6.091   2.748  12.409  0.00  0.00    +0.000 OA
ATOM     14  H   GLY A   2       5.743   1.927  12.797  0.00  0.00    +0.000 HD
ENDBRANCH  12  13
ENDBRANCH  11  12
ENDBRANCH   9  11
ENDBRANCH   6   7
ENDBRANCH   1   6
BRANCH   2  15
ATOM     15  C   UNK A   0       3.953   5.387  19.684  0.00  0.00    +0.000 C 
BRANCH  15  16
ATOM     16  C   UNK A   0       3.276   4.101  19.277  0.00  0.00    +0.000 A 
ATOM     17  C   UNK A   0       4.036   3.002  18.853  0.00  0.00    +0.000 A 
ATOM     18  C   UNK A   0       3.409   1.802  18.516  0.00  0.00    +0.000 A 
ATOM     19  F   UNK A   0       4.154   0.766  18.112  0.00  0.00    +0.000 F 
ATOM     20  C   UNK A   0       2.031   1.664  18.594  0.00  0.00    +0.000 A 
ATOM     21  C   UNK A   0       1.278   2.747  19.021  0.00  0.00    +0.000 A 
ATOM     22  F   UNK A   0      -0.053   2.627  19.112  0.00  0.00    +0.000 F 
ATOM     23  C   UNK A   0       1.882   3.957  19.366  0.00  0.00    +0.000 A 
ENDBRANCH  15  16
ENDBRANCH   2  15
TORSDOF 7
ENDMDL
MODEL 5
REMARK VINA RESULT:      -7.3      1.705      3.516
REMARK  Name = 
REMARK  8 active torsions:
REMARK  status: ('A' for Active; 'I' for Inactive)
REMARK    1  A    between atoms: CB_1  and  CA_2
REMARK    2  A    between atoms: CA_2  and  N_3
REMARK    3  A    between atoms: CA_2  and  C_15
REMARK    4  A    between atoms: C_4  and  C_6
REMARK    5  A    between atoms: C_6  and  C_7
REMARK    6  A    between atoms: N_17  and  CA_18
REMARK    7  A    between atoms: CA_18  and  C_19
REMARK    8  A    between atoms: C_19  and  O_20
REMARK                            x       y       z     vdW  Elec       q    Type
REMARK                         _______ _______ _______ _____ _____    ______ ____
ROOT
ATOM      1  N   ALA A   1       5.608   6.307  18.154  0.00  0.00    +0.000 N 
ATOM      2  C   UNK A   0       4.578   6.605  17.291  0.00  0.00    +0.000 C 
ATOM      3  O   UNK A   0       4.731   6.996  16.138  0.00  0.00    +0.000 OA
ATOM      4  H   ALA A   1       5.366   5.962  19.075  0.00  0.00    +0.000 HD
ENDROOT
BRANCH   1   6
ATOM      5  CB  ALA A   1       7.992   6.159  19.041  0.00  0.00    +0.000 C 
ATOM      6  CA  ALA A   1       7.054   6.334  17.854  0.00  0.00    +0.000 C 
BRANCH   6   7
ATOM      7  C   ALA A   1       7.422   5.297  16.771  0.00  0.00    +0.000 C 
ATOM      8  O   ALA A   1       7.860   4.184  17.052  0.00  0.00    +0.000 OA
ATOM      9  N   GLY A   2       7.107   5.665  15.481  0.00  0.00    +0.000 N 
ATOM     10  H   GLY A   2       6.594   6.527  15.342  0.00  0.00    +0.000 HD
BRANCH   9  11
ATOM     11  CA  GLY A   2       7.358   4.794  14.343  0.00  0.00    +0.000 C 
BRANCH  11  12
ATOM     12  C   GLY A   2       6.167   3.890  14.029  0.00  0.00    +0.000 C 
BRANCH  12  13
ATOM     13  O   GLY A   2       4.972   4.459  14.563  0.00  0.00    +0.000 OA
ATOM     14  H   GLY A   2       4.251   4.197  13.965  0.00  0.00    +0.000 HD
ENDBRANCH  12  13
ENDBRANCH  11  12
ENDBRANCH   9  11
ENDBRANCH   6   7
ENDBRANCH   1   6
BRANCH   2  15
ATOM     15  C   UNK A   0       3.188   6.435  17.879  0.00  0.00    +0.000 C 
BRANCH  15  16
ATOM     16  C   UNK A   0       2.942   5.066  18.464  0.00  0.00    +0.000 A 
ATOM     17  C   UNK A   0       2.793   4.902  19.848  0.00  0.00    +0.000 A 
ATOM     18  C   UNK A   0       2.524   3.641  20.382  0.00  0.00    +0.000 A 
ATOM     19  F   UNK A   0       2.387   3.507  21.706  0.00  0.00    +0.000 F 
ATOM     20  C   UNK A   0       2.394   2.527  19.565  0.00  0.00    +0.000 A 
ATOM     21  C   UNK A   0       2.532   2.689  18.195  0.00  0.00    +0.000 A 
ATOM     22  F   UNK A   0       2.399   1.625  17.392  0.00  0.00    +0.000 F 
ATOM     23  C   UNK A   0       2.799   3.940  17.638  0.00  0.00    +0.000 A 
ENDBRANCH  15  16
ENDBRANCH   2  15
TORSDOF 7
ENDMDL
MODEL 6
REMARK VINA RESULT:      -7.3      1.872      3.485
REMARK  Name = 
REMARK  8 active torsions:
REMARK  status: ('A' for Active; 'I' for Inactive)
REMARK    1  A    between atoms: CB_1  and  CA_2
REMARK    2  A    between atoms: CA_2  and  N_3
REMARK    3  A    between atoms: CA_2  and  C_15
REMARK    4  A    between atoms: C_4  and  C_6
REMARK    5  A    between atoms: C_6  and  C_7
REMARK    6  A    between atoms: N_17  and  CA_18
REMARK    7  A    between atoms: CA_18  and  C_19
REMARK    8  A    between atoms: C_19  and  O_20
REMARK                            x       y       z     vdW  Elec       q    Type
REMARK                         _______ _______ _______ _____ _____    ______ ____
ROOT
ATOM      1  N   ALA A   1       5.551   6.599  18.061  0.00  0.00    +0.000 N 
ATOM      2  C   UNK A   0       5.151   5.759  19.075  0.00  0.00    +0.000 C 
ATOM      3  O   UNK A   0       5.891   4.964  19.648  0.00  0.00    +0.000 OA
ATOM      4  H   ALA A   1       4.863   7.237  17.679  0.00  0.00    +0.000 HD
ENDROOT
BRANCH   1   6
ATOM      5  CB  ALA A   1       8.036   6.888  18.546  0.00  0.00    +0.000 C 
ATOM      6  CA  ALA A   1       6.917   6.755  17.522  0.00  0.00    +0.000 C 
BRANCH   6   7
ATOM      7  C   ALA A   1       7.269   5.610  16.547  0.00  0.00    +0.000 C 
ATOM      8  O   ALA A   1       7.808   4.572  16.923  0.00  0.00    +0.000 OA
ATOM      9  N   GLY A   2       6.822   5.787  15.255  0.00  0.00    +0.000 N 
ATOM     10  H   GLY A   2       6.238   6.591  15.057  0.00  0.00    +0.000 HD
BRANCH   9  11
ATOM     11  CA  GLY A   2       7.041   4.792  14.216  0.00  0.00    +0.000 C 
BRANCH  11  12
ATOM     12  C   GLY A   2       5.923   3.752  14.163  0.00  0.00    +0.000 C 
BRANCH  12  13
ATOM     13  O   GLY A   2       5.942   2.958  15.349  0.00  0.00    +0.000 OA
ATOM     14  H   GLY A   2       6.653   2.304  15.230  0.00  0.00    +0.000 HD
ENDBRANCH  12  13
ENDBRANCH  11  12
ENDBRANCH   9  11
ENDBRANCH   6   7
ENDBRANCH   1   6
BRANCH   2  15
ATOM     15  C   UNK A   0       3.681   5.861  19.442  0.00  0.00    +0.000 C 
BRANCH  15  16
ATOM     16  C   UNK A   0       2.970   4.531  19.468  0.00  0.00    +0.000 A 
ATOM     17  C   UNK A   0       2.264   4.125  20.608  0.00  0.00    +0.000 A 
ATOM     18  C   UNK A   0       1.573   2.913  20.615  0.00  0.00    +0.000 A 
ATOM     19  F   UNK A   0       0.907   2.545  21.715  0.00  0.00    +0.000 F 
ATOM     20  C   UNK A   0       1.563   2.086  19.500  0.00  0.00    +0.000 A 
ATOM     21  C   UNK A   0       2.253   2.489  18.367  0.00  0.00    +0.000 A 
ATOM     22  F   UNK A   0       2.244   1.707  17.280  0.00  0.00    +0.000 F 
ATOM     23  C   UNK A   0       2.949   3.698  18.337  0.00  0.00    +0.000 A 
ENDBRANCH  15  16
ENDBRANCH   2  15
TORSDOF 7
ENDMDL
MODEL 7
REMARK VINA RESULT:      -7.3      1.881      3.124
REMARK  Name = 
REMARK  8 active torsions:
REMARK  status: ('A' for Active; 'I' for Inactive)
REMARK    1  A    between atoms: CB_1  and  CA_2
REMARK    2  A    between atoms: CA_2  and  N_3
REMARK    3  A    between atoms: CA_2  and  C_15
REMARK    4  A    between atoms: C_4  and  C_6
REMARK    5  A    between atoms: C_6  and  C_7
REMARK    6  A    between atoms: N_17  and  CA_18
REMARK    7  A    between atoms: CA_18  and  C_19
REMARK    8  A    between atoms: C_19  and  O_20
REMARK                            x       y       z     vdW  Elec       q    Type
REMARK                         _______ _______ _______ _____ _____    ______ ____
ROOT
ATOM      1  N   ALA A   1       5.213   5.980  18.372  0.00  0.00    +0.000 N 
ATOM      2  C   UNK A   0       4.046   6.580  17.958  0.00  0.00    +0.000 C 
ATOM      3  O   UNK A   0       3.926   7.214  16.913  0.00  0.00    +0.000 OA
ATOM      4  H   ALA A   1       5.191   5.455  19.239  0.00  0.00    +0.000 HD
ENDROOT
BRANCH   1   6
ATOM      5  CB  ALA A   1       7.730   5.593  18.462  0.00  0.00    +0.000 C 
ATOM      6  CA  ALA A   1       6.494   5.923  17.638  0.00  0.00    +0.000 C 
BRANCH   6   7
ATOM      7  C   ALA A   1       6.413   4.944  16.446  0.00  0.00    +0.000 C 
ATOM      8  O   ALA A   1       5.725   3.927  16.480  0.00  0.00    +0.000 OA
ATOM      9  N   GLY A   2       7.067   5.358  15.306  0.00  0.00    +0.000 N 
ATOM     10  H   GLY A   2       7.472   6.287  15.298  0.00  0.00    +0.000 HD
BRANCH   9  11
ATOM     11  CA  GLY A   2       7.066   4.571  14.083  0.00  0.00    +0.000 C 
BRANCH  11  12
ATOM     12  C   GLY A   2       7.767   5.287  12.930  0.00  0.00    +0.000 C 
BRANCH  12  13
ATOM     13  O   GLY A   2       8.908   5.991  13.419  0.00  0.00    +0.000 OA
ATOM     14  H   GLY A   2       9.604   5.889  12.746  0.00  0.00    +0.000 HD
ENDBRANCH  12  13
ENDBRANCH  11  12
ENDBRANCH   9  11
ENDBRANCH   6   7
ENDBRANCH   1   6
BRANCH   2  15
ATOM     15  C   UNK A   0       2.878   6.425  18.915  0.00  0.00    +0.000 C 
BRANCH  15  16
ATOM     16  C   UNK A   0       2.391   5.004  19.050  0.00  0.00    +0.000 A 
ATOM     17  C   UNK A   0       2.552   4.094  17.996  0.00  0.00    +0.000 A 
ATOM     18  C   UNK A   0       2.138   2.770  18.140  0.00  0.00    +0.000 A 
ATOM     19  F   UNK A   0       2.301   1.919  17.121  0.00  0.00    +0.000 F 
ATOM     20  C   UNK A   0       1.564   2.320  19.321  0.00  0.00    +0.000 A 
ATOM     21  C   UNK A   0       1.411   3.216  20.368  0.00  0.00    +0.000 A 
ATOM     22  F   UNK A   0       0.869   2.795  21.518  0.00  0.00    +0.000 F 
ATOM     23  C   UNK A   0       1.820   4.545  20.249  0.00  0.00    +0.000 A 
ENDBRANCH  15  16
ENDBRANCH   2  15
TORSDOF 7
ENDMDL
MODEL 8
REMARK VINA RESULT:      -7.3      1.772      2.124
REMARK  Name = 
REMARK  8 active torsions:
REMARK  status: ('A' for Active; 'I' for Inactive)
REMARK    1  A    between atoms: CB_1  and  CA_2
REMARK    2  A    between atoms: CA_2  and  N_3
REMARK    3  A    between atoms: CA_2  and  C_15
REMARK    4  A    between atoms: C_4  and  C_6
REMARK    5  A    between atoms: C_6  and  C_7
REMARK    6  A    between atoms: N_17  and  CA_18
REMARK    7  A    between atoms: CA_18  and  C_19
REMARK    8  A    between atoms: C_19  and  O_20
REMARK                            x       y       z     vdW  Elec       q    Type
REMARK                         _______ _______ _______ _____ _____    ______ ____
ROOT
ATOM      1  N   ALA A   1       4.991   4.130  15.823  0.00  0.00    +0.000 N 
ATOM      2  C   UNK A   0       4.407   3.750  17.009  0.00  0.00    +0.000 C 
ATOM      3  O   UNK A   0       5.022   3.295  17.970  0.00  0.00    +0.000 OA
ATOM      4  H   ALA A   1       4.391   4.522  15.106  0.00  0.00    +0.000 HD
ENDROOT
BRANCH   1   6
ATOM      5  CB  ALA A   1       6.843   4.869  14.235  0.00  0.00    +0.000 C 
ATOM      6  CA  ALA A   1       6.433   4.129  15.501  0.00  0.00    +0.000 C 
BRANCH   6   7
ATOM      7  C   ALA A   1       7.271   4.663  16.683  0.00  0.00    +0.000 C 
ATOM      8  O   ALA A   1       8.272   4.080  17.093  0.00  0.00    +0.000 OA
ATOM      9  N   GLY A   2       6.888   5.899  17.158  0.00  0.00    +0.000 N 
ATOM     10  H   GLY A   2       6.159   6.397  16.661  0.00  0.00    +0.000 HD
BRANCH   9  11
ATOM     11  CA  GLY A   2       7.588   6.562  18.248  0.00  0.00    +0.000 C 
BRANCH  11  12
ATOM     12  C   GLY A   2       7.374   5.862  19.588  0.00  0.00    +0.000 C 
BRANCH  12  13
ATOM     13  O   GLY A   2       8.581   5.222  20.000  0.00  0.00    +0.000 OA
ATOM     14  H   GLY A   2       9.090   5.888  20.495  0.00  0.00    +0.000 HD
ENDBRANCH  12  13
ENDBRANCH  11  12
ENDBRANCH   9  11
ENDBRANCH   6   7
ENDBRANCH   1   6
BRANCH   2  15
ATOM     15  C   UNK A   0       2.898   3.912  17.055  0.00  0.00    +0.000 C 
BRANCH  15  16
ATOM     16  C   UNK A   0       2.385   4.437  18.372  0.00  0.00    +0.000 A 
ATOM     17  C   UNK A   0       1.813   3.567  19.310  0.00  0.00    +0.000 A 
ATOM     18  C   UNK A   0       1.377   4.049  20.545  0.00  0.00    +0.000 A 
ATOM     19  F   UNK A   0       0.833   3.201  21.424  0.00  0.00    +0.000 F 
ATOM     20  C   UNK A   0       1.500   5.392  20.875  0.00  0.00    +0.000 A 
ATOM     21  C   UNK A   0       2.073   6.253  19.952  0.00  0.00    +0.000 A 
ATOM     22  F   UNK A   0       2.209   7.550  20.261  0.00  0.00    +0.000 F 
ATOM     23  C   UNK A   0       2.519   5.793  18.713  0.00  0.00    +0.000 A 
ENDBRANCH  15  16
ENDBRANCH   2  15
TORSDOF 7
ENDMDL
MODEL 9
REMARK VINA RESULT:      -7.3      1.633      1.947
REMARK  Name = 
REMARK  8 active torsions:
REMARK  status: ('A' for Active; 'I' for Inactive)
REMARK    1  A    between atoms: CB_1  and  CA_2
REMARK    2  A    between atoms: CA_2  and  N_3
REMARK    3  A    between atoms: CA_2  and  C_15
REMARK    4  A    between atoms: C_4  and  C_6
REMARK    5  A    between atoms: C_6  and  C_7
REMARK    6  A    between atoms: N_17  and  CA_18
REMARK    7  A    between atoms: CA_18  and  C_19
REMARK    8  A    between atoms: C_19  and  O_20
REMARK                            x       y       z     vdW  Elec       q    Type
REMARK                         _______ _______ _______ _____ _____    ______ ____
ROOT
ATOM      1  N   ALA A   1       5.122   3.391  16.067  0.00  0.00    +0.000 N 
ATOM      2  C   UNK A   0       4.217   4.168  16.753  0.00  0.00    +0.000 C 
ATOM      3  O   UNK A   0       4.355   5.370  16.965  0.00  0.00    +0.000 OA
ATOM      4  H   ALA A   1       4.892   2.415  15.924  0.00  0.00    +0.000 HD
ENDROOT
BRANCH   1   6
ATOM      5  CB  ALA A   1       6.212   4.515  14.056  0.00  0.00    +0.000 C 
ATOM      6  CA  ALA A   1       6.367   3.844  15.414  0.00  0.00    +0.000 C 
BRANCH   6   7
ATOM      7  C   ALA A   1       7.178   4.777  16.340  0.00  0.00    +0.000 C 
ATOM      8  O   ALA A   1       7.504   5.913  16.003  0.00  0.00    +0.000 OA
ATOM      9  N   GLY A   2       7.399   4.290  17.610  0.00  0.00    +0.000 N 
ATOM     10  H   GLY A   2       6.955   3.417  17.871  0.00  0.00    +0.000 HD
BRANCH   9  11
ATOM     11  CA  GLY A   2       8.118   5.052  18.619  0.00  0.00    +0.000 C 
BRANCH  11  12
ATOM     12  C   GLY A   2       7.180   5.723  19.620  0.00  0.00    +0.000 C 
BRANCH  12  13
ATOM     13  O   GLY A   2       5.967   4.979  19.721  0.00  0.00    +0.000 OA
ATOM     14  H   GLY A   2       6.083   4.363  20.466  0.00  0.00    +0.000 HD
ENDBRANCH  12  13
ENDBRANCH  11  12
ENDBRANCH   9  11
ENDBRANCH   6   7
ENDBRANCH   1   6
BRANCH   2  15
ATOM     15  C   UNK A   0       3.001   3.419  17.271  0.00  0.00    +0.000 C 
BRANCH  15  16
ATOM     16  C   UNK A   0       2.708   3.675  18.728  0.00  0.00    +0.000 A 
ATOM     17  C   UNK A   0       2.093   4.869  19.130  0.00  0.00    +0.000 A 
ATOM     18  C   UNK A   0       1.785   5.084  20.474  0.00  0.00    +0.000 A 
ATOM     19  F   UNK A   0       1.199   6.231  20.835  0.00  0.00    +0.000 F 
ATOM     20  C   UNK A   0       2.075   4.130  21.439  0.00  0.00    +0.000 A 
ATOM     21  C   UNK A   0       2.676   2.945  21.043  0.00  0.00    +0.000 A 
ATOM     22  F   UNK A   0       2.952   2.010  21.962  0.00  0.00    +0.000 F 
ATOM     23  C   UNK A   0       2.990   2.706  19.705  0.00  0.00    +0.000 A 
ENDBRANCH  15  16
ENDBRANCH   2  15
TORSDOF 7
ENDMDL
