MODEL 1
REMARK VINA RESULT:      -7.2      0.000      0.000
REMARK  Name = 
REMARK  4 active torsions:
REMARK  status: ('A' for Active; 'I' for Inactive)
REMARK    1  A    between atoms: C_2  and  C_3
REMARK    2  A    between atoms: C_6  and  C_7
REMARK    3  A    between atoms: C_8  and  C_9
REMARK    4  A    between atoms: C_14  and  O_15
REMARK                            x       y       z     vdW  Elec       q    Type
REMARK                         _______ _______ _______ _____ _____    ______ ____
ROOT
ATOM      1  C   UNL     1       4.492   4.202  16.192  0.00  0.00    +0.000 C 
ATOM      2  C   UNL     1       5.680   3.737  15.767  0.00  0.00    +0.000 C 
ENDROOT
BRANCH   1   6
ATOM      3  C   UNL     1       2.579   3.236  19.895  0.00  0.00    +0.000 A 
ATOM      4  C   UNL     1       1.827   3.499  18.749  0.00  0.00    +0.000 A 
ATOM      5  C   UNL     1       2.469   3.828  17.553  0.00  0.00    +0.000 A 
ATOM      6  C   UNL     1       3.868   3.912  17.489  0.00  0.00    +0.000 A 
ATOM      7  C   UNL     1       4.614   3.639  18.642  0.00  0.00    +0.000 A 
ATOM      8  C   UNL     1       3.973   3.308  19.841  0.00  0.00    +0.000 A 
BRANCH   3  10
ATOM      9  N   UNL     1       1.396   2.588  22.112  0.00  0.00    +0.000 NA
ATOM     10  C   UNL     1       1.925   2.879  21.119  0.00  0.00    +0.000 C 
ENDBRANCH   3  10
ENDBRANCH   1   6
BRANCH   2  11
ATOM     11  C   UNL     1       6.250   4.055  14.441  0.00  0.00    +0.000 A 
ATOM     12  C   UNL     1       5.851   3.339  13.301  0.00  0.00    +0.000 A 
ATOM     13  C   UNL     1       6.384   3.623  12.043  0.00  0.00    +0.000 A 
ATOM     14  C   UNL     1       7.344   4.620  11.904  0.00  0.00    +0.000 A 
ATOM     15  C   UNL     1       7.780   5.326  13.025  0.00  0.00    +0.000 A 
ATOM     16  C   UNL     1       7.243   5.037  14.285  0.00  0.00    +0.000 A 
BRANCH  16  17
ATOM     17  O   UNL     1       7.695   5.729  15.378  0.00  0.00    +0.000 OA
ATOM     18  H   UNL     1       7.615   5.162  16.162  0.00  0.00    +0.000 HD
ENDBRANCH  16  17
ENDBRANCH   2  11
TORSDOF 4
ENDMDL
MODEL 2
REMARK VINA RESULT:      -7.2      0.212      1.176
REMARK  Name = 
REMARK  4 active torsions:
REMARK  status: ('A' for Active; 'I' for Inactive)
REMARK    1  A    between atoms: C_2  and  C_3
REMARK    2  A    between atoms: C_6  and  C_7
REMARK    3  A    between atoms: C_8  and  C_9
REMARK    4  A    between atoms: C_14  and  O_15
REMARK                            x       y       z     vdW  Elec       q    Type
REMARK                         _______ _______ _______ _____ _____    ______ ____
ROOT
ATOM      1  C   UNL     1       4.357   4.083  16.185  0.00  0.00    +0.000 C 
ATOM      2  C   UNL     1       5.601   3.713  15.833  0.00  0.00    +0.000 C 
ENDROOT
BRANCH   1   6
ATOM      3  C   UNL     1       2.513   3.191  19.941  0.00  0.00    +0.000 A 
ATOM      4  C   UNL     1       3.881   2.989  19.751  0.00  0.00    +0.000 A 
ATOM      5  C   UNL     1       4.462   3.272  18.512  0.00  0.00    +0.000 A 
ATOM      6  C   UNL     1       3.683   3.745  17.445  0.00  0.00    +0.000 A 
ATOM      7  C   UNL     1       2.314   3.952  17.648  0.00  0.00    +0.000 A 
ATOM      8  C   UNL     1       1.729   3.671  18.888  0.00  0.00    +0.000 A 
BRANCH   3  10
ATOM      9  N   UNL     1       1.433   2.698  22.249  0.00  0.00    +0.000 NA
ATOM     10  C   UNL     1       1.917   2.921  21.216  0.00  0.00    +0.000 C 
ENDBRANCH   3  10
ENDBRANCH   1   6
BRANCH   2  11
ATOM     11  C   UNL     1       6.221   4.074  14.541  0.00  0.00    +0.000 A 
ATOM     12  C   UNL     1       5.862   3.399  13.363  0.00  0.00    +0.000 A 
ATOM     13  C   UNL     1       6.443   3.724  12.136  0.00  0.00    +0.000 A 
ATOM     14  C   UNL     1       7.410   4.721  12.067  0.00  0.00    +0.000 A 
ATOM     15  C   UNL     1       7.807   5.386  13.227  0.00  0.00    +0.000 A 
ATOM     16  C   UNL     1       7.222   5.056  14.455  0.00  0.00    +0.000 A 
BRANCH  16  17
ATOM     17  O   UNL     1       7.635   5.708  15.588  0.00  0.00    +0.000 OA
ATOM     18  H   UNL     1       7.685   6.660  15.400  0.00  0.00    +0.000 HD
ENDBRANCH  16  17
ENDBRANCH   2  11
TORSDOF 4
ENDMDL
MODEL 3
REMARK VINA RESULT:      -6.8      6.523      7.701
REMARK  Name = 
REMARK  4 active torsions:
REMARK  status: ('A' for Active; 'I' for Inactive)
REMARK    1  A    between atoms: C_2  and  C_3
REMARK    2  A    between atoms: C_6  and  C_7
REMARK    3  A    between atoms: C_8  and  C_9
REMARK    4  A    between atoms: C_14  and  O_15
REMARK                            x       y       z     vdW  Elec       q    Type
REMARK                         _______ _______ _______ _____ _____    ______ ____
ROOT
ATOM      1  C   UNL     1       8.750   8.439  18.445  0.00  0.00    +0.000 C 
ATOM      2  C   UNL     1       8.539   9.768  18.456  0.00  0.00    +0.000 C 
ENDROOT
BRANCH   1   6
ATOM      3  C   UNL     1       5.818   5.430  17.633  0.00  0.00    +0.000 A 
ATOM      4  C   UNL     1       6.833   5.207  18.566  0.00  0.00    +0.000 A 
ATOM      5  C   UNL     1       7.790   6.196  18.805  0.00  0.00    +0.000 A 
ATOM      6  C   UNL     1       7.755   7.413  18.108  0.00  0.00    +0.000 A 
ATOM      7  C   UNL     1       6.729   7.630  17.181  0.00  0.00    +0.000 A 
ATOM      8  C   UNL     1       5.768   6.642  16.940  0.00  0.00    +0.000 A 
BRANCH   3  10
ATOM      9  N   UNL     1       4.019   3.610  17.207  0.00  0.00    +0.000 NA
ATOM     10  C   UNL     1       4.824   4.426  17.398  0.00  0.00    +0.000 C 
ENDBRANCH   3  10
ENDBRANCH   1   6
BRANCH   2  11
ATOM     11  C   UNL     1       9.580  10.753  18.817  0.00  0.00    +0.000 A 
ATOM     12  C   UNL     1      10.348  11.378  17.821  0.00  0.00    +0.000 A 
ATOM     13  C   UNL     1      11.339  12.306  18.145  0.00  0.00    +0.000 A 
ATOM     14  C   UNL     1      11.593  12.613  19.477  0.00  0.00    +0.000 A 
ATOM     15  C   UNL     1      10.865  11.984  20.488  0.00  0.00    +0.000 A 
ATOM     16  C   UNL     1       9.873  11.054  20.158  0.00  0.00    +0.000 A 
BRANCH  16  17
ATOM     17  O   UNL     1       9.179  10.434  21.163  0.00  0.00    +0.000 OA
ATOM     18  H   UNL     1       8.287  10.223  20.843  0.00  0.00    +0.000 HD
ENDBRANCH  16  17
ENDBRANCH   2  11
TORSDOF 4
ENDMDL
MODEL 4
REMARK VINA RESULT:      -6.8      6.567      7.689
REMARK  Name = 
REMARK  4 active torsions:
REMARK  status: ('A' for Active; 'I' for Inactive)
REMARK    1  A    between atoms: C_2  and  C_3
REMARK    2  A    between atoms: C_6  and  C_7
REMARK    3  A    between atoms: C_8  and  C_9
REMARK    4  A    between atoms: C_14  and  O_15
REMARK                            x       y       z     vdW  Elec       q    Type
REMARK                         _______ _______ _______ _____ _____    ______ ____
ROOT
ATOM      1  C   UNL     1       8.791   8.430  18.543  0.00  0.00    +0.000 C 
ATOM      2  C   UNL     1       8.587   9.759  18.500  0.00  0.00    +0.000 C 
ENDROOT
BRANCH   1   6
ATOM      3  C   UNL     1       5.908   5.439  17.519  0.00  0.00    +0.000 A 
ATOM      4  C   UNL     1       5.897   6.686  16.893  0.00  0.00    +0.000 A 
ATOM      5  C   UNL     1       6.837   7.656  17.252  0.00  0.00    +0.000 A 
ATOM      6  C   UNL     1       7.790   7.397  18.249  0.00  0.00    +0.000 A 
ATOM      7  C   UNL     1       7.798   6.141  18.865  0.00  0.00    +0.000 A 
ATOM      8  C   UNL     1       6.859   5.167  18.506  0.00  0.00    +0.000 A 
BRANCH   3  10
ATOM      9  N   UNL     1       4.190   3.620  16.830  0.00  0.00    +0.000 NA
ATOM     10  C   UNL     1       4.958   4.435  17.140  0.00  0.00    +0.000 C 
ENDBRANCH   3  10
ENDBRANCH   1   6
BRANCH   2  11
ATOM     11  C   UNL     1       9.634  10.752  18.820  0.00  0.00    +0.000 A 
ATOM     12  C   UNL     1      10.390  11.348  17.798  0.00  0.00    +0.000 A 
ATOM     13  C   UNL     1      11.387  12.283  18.083  0.00  0.00    +0.000 A 
ATOM     14  C   UNL     1      11.658  12.627  19.403  0.00  0.00    +0.000 A 
ATOM     15  C   UNL     1      10.942  12.028  20.440  0.00  0.00    +0.000 A 
ATOM     16  C   UNL     1       9.945  11.091  20.148  0.00  0.00    +0.000 A 
BRANCH  16  17
ATOM     17  O   UNL     1       9.262  10.500  21.179  0.00  0.00    +0.000 OA
ATOM     18  H   UNL     1       8.319  10.463  20.949  0.00  0.00    +0.000 HD
ENDBRANCH  16  17
ENDBRANCH   2  11
TORSDOF 4
ENDMDL
MODEL 5
REMARK VINA RESULT:      -6.7      7.553      9.025
REMARK  Name = 
REMARK  4 active torsions:
REMARK  status: ('A' for Active; 'I' for Inactive)
REMARK    1  A    between atoms: C_2  and  C_3
REMARK    2  A    between atoms: C_6  and  C_7
REMARK    3  A    between atoms: C_8  and  C_9
REMARK    4  A    between atoms: C_14  and  O_15
REMARK                            x       y       z     vdW  Elec       q    Type
REMARK                         _______ _______ _______ _____ _____    ______ ____
ROOT
ATOM      1  C   UNL     1       8.245   9.341  18.101  0.00  0.00    +0.000 C 
ATOM      2  C   UNL     1       8.404   8.073  18.520  0.00  0.00    +0.000 C 
ENDROOT
BRANCH   1   6
ATOM      3  C   UNL     1      10.374  12.819  19.395  0.00  0.00    +0.000 A 
ATOM      4  C   UNL     1       9.665  12.821  18.193  0.00  0.00    +0.000 A 
ATOM      5  C   UNL     1       8.989  11.670  17.779  0.00  0.00    +0.000 A 
ATOM      6  C   UNL     1       9.023  10.500  18.553  0.00  0.00    +0.000 A 
ATOM      7  C   UNL     1       9.730  10.511  19.761  0.00  0.00    +0.000 A 
ATOM      8  C   UNL     1      10.407  11.662  20.179  0.00  0.00    +0.000 A 
BRANCH   3  10
ATOM      9  N   UNL     1      11.606  14.962  20.185  0.00  0.00    +0.000 NA
ATOM     10  C   UNL     1      11.053  14.002  19.832  0.00  0.00    +0.000 C 
ENDBRANCH   3  10
ENDBRANCH   1   6
BRANCH   2  11
ATOM     11  C   UNL     1       7.578   6.947  18.035  0.00  0.00    +0.000 A 
ATOM     12  C   UNL     1       6.747   7.101  16.913  0.00  0.00    +0.000 A 
ATOM     13  C   UNL     1       5.957   6.050  16.446  0.00  0.00    +0.000 A 
ATOM     14  C   UNL     1       5.969   4.826  17.105  0.00  0.00    +0.000 A 
ATOM     15  C   UNL     1       6.763   4.655  18.240  0.00  0.00    +0.000 A 
ATOM     16  C   UNL     1       7.553   5.712  18.705  0.00  0.00    +0.000 A 
BRANCH  16  17
ATOM     17  O   UNL     1       8.314   5.532  19.830  0.00  0.00    +0.000 OA
ATOM     18  H   UNL     1       9.251   5.625  19.592  0.00  0.00    +0.000 HD
ENDBRANCH  16  17
ENDBRANCH   2  11
TORSDOF 4
ENDMDL
MODEL 6
REMARK VINA RESULT:      -6.7      7.524      9.068
REMARK  Name = 
REMARK  4 active torsions:
REMARK  status: ('A' for Active; 'I' for Inactive)
REMARK    1  A    between atoms: C_2  and  C_3
REMARK    2  A    between atoms: C_6  and  C_7
REMARK    3  A    between atoms: C_8  and  C_9
REMARK    4  A    between atoms: C_14  and  O_15
REMARK                            x       y       z     vdW  Elec       q    Type
REMARK                         _______ _______ _______ _____ _____    ______ ____
ROOT
ATOM      1  C   UNL     1       8.182   9.358  18.018  0.00  0.00    +0.000 C 
ATOM      2  C   UNL     1       8.379   8.110  18.480  0.00  0.00    +0.000 C 
ENDROOT
BRANCH   1   6
ATOM      3  C   UNL     1      10.423  12.767  19.308  0.00  0.00    +0.000 A 
ATOM      4  C   UNL     1      10.445  11.578  20.040  0.00  0.00    +0.000 A 
ATOM      5  C   UNL     1       9.694  10.481  19.610  0.00  0.00    +0.000 A 
ATOM      6  C   UNL     1       8.903  10.561  18.455  0.00  0.00    +0.000 A 
ATOM      7  C   UNL     1       8.893  11.754  17.725  0.00  0.00    +0.000 A 
ATOM      8  C   UNL     1       9.645  12.854  18.151  0.00  0.00    +0.000 A 
BRANCH   3  10
ATOM      9  N   UNL     1      11.843  14.799  20.077  0.00  0.00    +0.000 NA
ATOM     10  C   UNL     1      11.207  13.888  19.734  0.00  0.00    +0.000 C 
ENDBRANCH   3  10
ENDBRANCH   1   6
BRANCH   2  11
ATOM     11  C   UNL     1       7.611   6.939  18.009  0.00  0.00    +0.000 A 
ATOM     12  C   UNL     1       6.807   7.026  16.860  0.00  0.00    +0.000 A 
ATOM     13  C   UNL     1       6.071   5.931  16.405  0.00  0.00    +0.000 A 
ATOM     14  C   UNL     1       6.112   4.729  17.103  0.00  0.00    +0.000 A 
ATOM     15  C   UNL     1       6.879   4.624  18.263  0.00  0.00    +0.000 A 
ATOM     16  C   UNL     1       7.614   5.725  18.716  0.00  0.00    +0.000 A 
BRANCH  16  17
ATOM     17  O   UNL     1       8.349   5.609  19.867  0.00  0.00    +0.000 OA
ATOM     18  H   UNL     1       8.514   4.668  20.039  0.00  0.00    +0.000 HD
ENDBRANCH  16  17
ENDBRANCH   2  11
TORSDOF 4
ENDMDL
MODEL 7
REMARK VINA RESULT:      -6.6      6.367      7.553
REMARK  Name = 
REMARK  4 active torsions:
REMARK  status: ('A' for Active; 'I' for Inactive)
REMARK    1  A    between atoms: C_2  and  C_3
REMARK    2  A    between atoms: C_6  and  C_7
REMARK    3  A    between atoms: C_8  and  C_9
REMARK    4  A    between atoms: C_14  and  O_15
REMARK                            x       y       z     vdW  Elec       q    Type
REMARK                         _______ _______ _______ _____ _____    ______ ____
ROOT
ATOM      1  C   UNL     1       8.491   8.635  18.172  0.00  0.00    +0.000 C 
ATOM      2  C   UNL     1       8.155   9.930  18.037  0.00  0.00    +0.000 C 
ENDROOT
BRANCH   1   6
ATOM      3  C   UNL     1       5.890   5.277  17.662  0.00  0.00    +0.000 A 
ATOM      4  C   UNL     1       6.970   5.217  18.544  0.00  0.00    +0.000 A 
ATOM      5  C   UNL     1       7.817   6.319  18.685  0.00  0.00    +0.000 A 
ATOM      6  C   UNL     1       7.605   7.487  17.938  0.00  0.00    +0.000 A 
ATOM      7  C   UNL     1       6.515   7.540  17.063  0.00  0.00    +0.000 A 
ATOM      8  C   UNL     1       5.664   6.439  16.920  0.00  0.00    +0.000 A 
BRANCH   3  10
ATOM      9  N   UNL     1       4.293   3.245  17.420  0.00  0.00    +0.000 NA
ATOM     10  C   UNL     1       5.007   4.156  17.529  0.00  0.00    +0.000 C 
ENDBRANCH   3  10
ENDBRANCH   1   6
BRANCH   2  11
ATOM     11  C   UNL     1       9.090  11.044  18.300  0.00  0.00    +0.000 A 
ATOM     12  C   UNL     1      10.189  10.867  19.155  0.00  0.00    +0.000 A 
ATOM     13  C   UNL     1      11.078  11.911  19.419  0.00  0.00    +0.000 A 
ATOM     14  C   UNL     1      10.873  13.160  18.843  0.00  0.00    +0.000 A 
ATOM     15  C   UNL     1       9.772  13.371  18.012  0.00  0.00    +0.000 A 
ATOM     16  C   UNL     1       8.883  12.322  17.752  0.00  0.00    +0.000 A 
BRANCH  16  17
ATOM     17  O   UNL     1       7.798  12.550  16.948  0.00  0.00    +0.000 OA
ATOM     18  H   UNL     1       7.025  12.728  17.508  0.00  0.00    +0.000 HD
ENDBRANCH  16  17
ENDBRANCH   2  11
TORSDOF 4
ENDMDL
MODEL 8
REMARK VINA RESULT:      -6.5      6.478      7.605
REMARK  Name = 
REMARK  4 active torsions:
REMARK  status: ('A' for Active; 'I' for Inactive)
REMARK    1  A    between atoms: C_2  and  C_3
REMARK    2  A    between atoms: C_6  and  C_7
REMARK    3  A    between atoms: C_8  and  C_9
REMARK    4  A    between atoms: C_14  and  O_15
REMARK                            x       y       z     vdW  Elec       q    Type
REMARK                         _______ _______ _______ _____ _____    ______ ____
ROOT
ATOM      1  C   UNL     1       8.591   8.716  18.305  0.00  0.00    +0.000 C 
ATOM      2  C   UNL     1       8.285   9.999  18.043  0.00  0.00    +0.000 C 
ENDROOT
BRANCH   1   6
ATOM      3  C   UNL     1       6.032   5.372  17.546  0.00  0.00    +0.000 A 
ATOM      4  C   UNL     1       5.824   6.592  16.901  0.00  0.00    +0.000 A 
ATOM      5  C   UNL     1       6.661   7.677  17.174  0.00  0.00    +0.000 A 
ATOM      6  C   UNL     1       7.706   7.561  18.103  0.00  0.00    +0.000 A 
ATOM      7  C   UNL     1       7.911   6.332  18.739  0.00  0.00    +0.000 A 
ATOM      8  C   UNL     1       7.076   5.243  18.466  0.00  0.00    +0.000 A 
BRANCH   3  10
ATOM      9  N   UNL     1       4.502   3.344  17.015  0.00  0.00    +0.000 NA
ATOM     10  C   UNL     1       5.188   4.251  17.254  0.00  0.00    +0.000 C 
ENDBRANCH   3  10
ENDBRANCH   1   6
BRANCH   2  11
ATOM     11  C   UNL     1       9.216  11.121  18.281  0.00  0.00    +0.000 A 
ATOM     12  C   UNL     1      10.343  10.953  19.103  0.00  0.00    +0.000 A 
ATOM     13  C   UNL     1      11.229  12.004  19.342  0.00  0.00    +0.000 A 
ATOM     14  C   UNL     1      10.994  13.253  18.777  0.00  0.00    +0.000 A 
ATOM     15  C   UNL     1       9.867  13.455  17.981  0.00  0.00    +0.000 A 
ATOM     16  C   UNL     1       8.981  12.398  17.744  0.00  0.00    +0.000 A 
BRANCH  16  17
ATOM     17  O   UNL     1       7.870  12.618  16.973  0.00  0.00    +0.000 OA
ATOM     18  H   UNL     1       7.112  12.170  17.382  0.00  0.00    +0.000 HD
ENDBRANCH  16  17
ENDBRANCH   2  11
TORSDOF 4
ENDMDL
MODEL 9
REMARK VINA RESULT:      -6.4      4.993      5.768
REMARK  Name = 
REMARK  4 active torsions:
REMARK  status: ('A' for Active; 'I' for Inactive)
REMARK    1  A    between atoms: C_2  and  C_3
REMARK    2  A    between atoms: C_6  and  C_7
REMARK    3  A    between atoms: C_8  and  C_9
REMARK    4  A    between atoms: C_14  and  O_15
REMARK                            x       y       z     vdW  Elec       q    Type
REMARK                         _______ _______ _______ _____ _____    ______ ____
ROOT
ATOM      1  C   UNL     1       2.570   7.622  18.182  0.00  0.00    +0.000 C 
ATOM      2  C   UNL     1       3.387   6.582  18.425  0.00  0.00    +0.000 C 
ENDROOT
BRANCH   1   6
ATOM      3  C   UNL     1       0.479   9.786  21.224  0.00  0.00    +0.000 A 
ATOM      4  C   UNL     1       1.070   8.552  21.502  0.00  0.00    +0.000 A 
ATOM      5  C   UNL     1       1.735   7.853  20.491  0.00  0.00    +0.000 A 
ATOM      6  C   UNL     1       1.807   8.370  19.189  0.00  0.00    +0.000 A 
ATOM      7  C   UNL     1       1.217   9.611  18.922  0.00  0.00    +0.000 A 
ATOM      8  C   UNL     1       0.552  10.314  19.933  0.00  0.00    +0.000 A 
BRANCH   3  10
ATOM      9  N   UNL     1      -0.728  11.108  23.102  0.00  0.00    +0.000 NA
ATOM     10  C   UNL     1      -0.187  10.514  22.262  0.00  0.00    +0.000 C 
ENDBRANCH   3  10
ENDBRANCH   1   6
BRANCH   2  11
ATOM     11  C   UNL     1       4.120   5.860  17.364  0.00  0.00    +0.000 A 
ATOM     12  C   UNL     1       4.809   6.565  16.364  0.00  0.00    +0.000 A 
ATOM     13  C   UNL     1       5.501   5.898  15.352  0.00  0.00    +0.000 A 
ATOM     14  C   UNL     1       5.502   4.508  15.311  0.00  0.00    +0.000 A 
ATOM     15  C   UNL     1       4.801   3.783  16.276  0.00  0.00    +0.000 A 
ATOM     16  C   UNL     1       4.109   4.457  17.288  0.00  0.00    +0.000 A 
BRANCH  16  17
ATOM     17  O   UNL     1       3.412   3.730  18.217  0.00  0.00    +0.000 OA
ATOM     18  H   UNL     1       4.044   3.307  18.821  0.00  0.00    +0.000 HD
ENDBRANCH  16  17
ENDBRANCH   2  11
TORSDOF 4
ENDMDL
