MODEL 1
REMARK VINA RESULT:      -7.9      0.000      0.000
REMARK  Name = 
REMARK  10 active torsions:
REMARK  status: ('A' for Active; 'I' for Inactive)
REMARK    1  A    between atoms: C_1  and  O_2
REMARK    2  A    between atoms: O_2  and  C_3
REMARK    3  A    between atoms: C_6  and  C_7
REMARK    4  A    between atoms: N_9  and  C_10
REMARK    5  A    between atoms: C_14  and  S_15
REMARK    6  A    between atoms: S_15  and  C_16
REMARK    7  A    between atoms: C_16  and  C_17
REMARK    8  A    between atoms: C_27  and  O_28
REMARK    9  A    between atoms: C_30  and  O_31
REMARK   10  A    between atoms: O_31  and  C_32
REMARK                            x       y       z     vdW  Elec       q    Type
REMARK                         _______ _______ _______ _____ _____    ______ ____
ROOT
ATOM      1  C   UNL     1       1.362   8.751  19.370  0.00  0.00    +0.000 A 
ATOM      2  C   UNL     1       1.873   9.155  18.150  0.00  0.00    +0.000 A 
ATOM      3  N   UNL     1       1.373  10.316  17.523  0.00  0.00    +0.000 N 
ATOM      4  N   UNL     1       2.880   8.529  17.528  0.00  0.00    +0.000 NA
ATOM      5  C   UNL     1       3.383   7.434  18.134  0.00  0.00    +0.000 A 
ATOM      6  N   UNL     1       2.968   6.939  19.313  0.00  0.00    +0.000 NA
ATOM      7  C   UNL     1       1.960   7.620  19.889  0.00  0.00    +0.000 A 
ATOM      8  H   UNL     1       1.490  11.114  18.141  0.00  0.00    +0.000 HD
ATOM      9  H   UNL     1       1.928  10.436  16.677  0.00  0.00    +0.000 HD
ENDROOT
BRANCH   1  12
ATOM     10  C   UNL     1       0.450  10.145  21.166  0.00  0.00    +0.000 C 
ATOM     11  O   UNL     1       1.510  10.211  21.783  0.00  0.00    +0.000 OA
ATOM     12  N   UNL     1       0.298   9.480  19.959  0.00  0.00    +0.000 N 
ATOM     13  H   UNL     1      -0.362   9.861  19.290  0.00  0.00    +0.000 HD
BRANCH  10  17
ATOM     14  C   UNL     1      -2.826  12.512  22.715  0.00  0.00    +0.000 A 
ATOM     15  C   UNL     1      -2.072  11.666  23.540  0.00  0.00    +0.000 A 
ATOM     16  C   UNL     1      -1.016  10.910  23.021  0.00  0.00    +0.000 A 
ATOM     17  C   UNL     1      -0.724  10.944  21.652  0.00  0.00    +0.000 A 
ATOM     18  C   UNL     1      -1.527  11.721  20.818  0.00  0.00    +0.000 A 
ATOM     19  C   UNL     1      -2.579  12.509  21.331  0.00  0.00    +0.000 A 
BRANCH  14  21
ATOM     20  C   UNL     1      -4.556  12.750  24.324  0.00  0.00    +0.000 C 
ATOM     21  O   UNL     1      -3.820  13.296  23.230  0.00  0.00    +0.000 OA
ENDBRANCH  14  21
BRANCH  19  22
ATOM     22  O   UNL     1      -3.225  13.207  20.344  0.00  0.00    +0.000 OA
ATOM     23  C   UNL     1      -4.415  12.672  19.780  0.00  0.00    +0.000 C 
ENDBRANCH  19  22
ENDBRANCH  10  17
ENDBRANCH   1  12
BRANCH   7  24
ATOM     24  O   UNL     1       1.482   7.012  21.009  0.00  0.00    +0.000 OA
ATOM     25  H   UNL     1       0.537   6.944  20.796  0.00  0.00    +0.000 HD
ENDBRANCH   7  24
BRANCH   5  26
ATOM     26  S   UNL     1       4.808   6.703  17.353  0.00  0.00    +0.000 S 
BRANCH  26  27
ATOM     27  C   UNL     1       5.175   5.341  18.508  0.00  0.00    +0.000 C 
BRANCH  27  28
ATOM     28  C   UNL     1       4.554   4.009  18.093  0.00  0.00    +0.000 C 
ATOM     29  O   UNL     1       4.746   3.513  16.980  0.00  0.00    +0.000 OA
ATOM     30  N   UNL     1       3.758   3.350  19.042  0.00  0.00    +0.000 N 
ATOM     31  C   UNL     1       3.246   2.030  18.679  0.00  0.00    +0.000 C 
ATOM     32  C   UNL     1       1.862   2.134  18.049  0.00  0.00    +0.000 C 
ATOM     33  C   UNL     1       0.737   2.326  19.064  0.00  0.00    +0.000 C 
ATOM     34  C   UNL     1       0.894   3.528  19.996  0.00  0.00    +0.000 C 
ATOM     35  C   UNL     1       2.083   3.403  20.951  0.00  0.00    +0.000 C 
ATOM     36  C   UNL     1       3.409   3.892  20.358  0.00  0.00    +0.000 C 
ENDBRANCH  27  28
ENDBRANCH  26  27
ENDBRANCH   5  26
TORSDOF 8
ENDMDL
MODEL 2
REMARK VINA RESULT:      -7.7      2.766      9.849
REMARK  Name = 
REMARK  10 active torsions:
REMARK  status: ('A' for Active; 'I' for Inactive)
REMARK    1  A    between atoms: C_1  and  O_2
REMARK    2  A    between atoms: O_2  and  C_3
REMARK    3  A    between atoms: C_6  and  C_7
REMARK    4  A    between atoms: N_9  and  C_10
REMARK    5  A    between atoms: C_14  and  S_15
REMARK    6  A    between atoms: S_15  and  C_16
REMARK    7  A    between atoms: C_16  and  C_17
REMARK    8  A    between atoms: C_27  and  O_28
REMARK    9  A    between atoms: C_30  and  O_31
REMARK   10  A    between atoms: O_31  and  C_32
REMARK                            x       y       z     vdW  Elec       q    Type
REMARK                         _______ _______ _______ _____ _____    ______ ____
ROOT
ATOM      1  C   UNL     1       0.888   9.502  20.808  0.00  0.00    +0.000 A 
ATOM      2  C   UNL     1      -0.165  10.171  20.211  0.00  0.00    +0.000 A 
ATOM      3  N   UNL     1      -0.382  10.053  18.822  0.00  0.00    +0.000 N 
ATOM      4  N   UNL     1      -1.053  10.905  20.892  0.00  0.00    +0.000 NA
ATOM      5  C   UNL     1      -0.871  11.001  22.225  0.00  0.00    +0.000 A 
ATOM      6  N   UNL     1       0.116  10.406  22.918  0.00  0.00    +0.000 NA
ATOM      7  C   UNL     1       0.969   9.676  22.176  0.00  0.00    +0.000 A 
ATOM      8  H   UNL     1      -0.513   9.075  18.580  0.00  0.00    +0.000 HD
ATOM      9  H   UNL     1      -1.229  10.584  18.626  0.00  0.00    +0.000 HD
ENDROOT
BRANCH   1  12
ATOM     10  C   UNL     1       1.958   7.381  20.209  0.00  0.00    +0.000 C 
ATOM     11  O   UNL     1       1.333   6.723  21.037  0.00  0.00    +0.000 OA
ATOM     12  N   UNL     1       1.778   8.741  20.008  0.00  0.00    +0.000 N 
ATOM     13  H   UNL     1       1.895   9.098  19.066  0.00  0.00    +0.000 HD
BRANCH  10  17
ATOM     14  C   UNL     1       4.677   5.499  17.417  0.00  0.00    +0.000 A 
ATOM     15  C   UNL     1       4.023   6.701  17.114  0.00  0.00    +0.000 A 
ATOM     16  C   UNL     1       3.149   7.295  18.030  0.00  0.00    +0.000 A 
ATOM     17  C   UNL     1       2.869   6.670  19.251  0.00  0.00    +0.000 A 
ATOM     18  C   UNL     1       3.454   5.433  19.517  0.00  0.00    +0.000 A 
ATOM     19  C   UNL     1       4.359   4.835  18.614  0.00  0.00    +0.000 A 
BRANCH  14  21
ATOM     20  C   UNL     1       6.817   5.637  16.397  0.00  0.00    +0.000 C 
ATOM     21  O   UNL     1       5.577   4.947  16.549  0.00  0.00    +0.000 OA
ENDBRANCH  14  21
BRANCH  19  22
ATOM     22  O   UNL     1       4.829   3.635  19.080  0.00  0.00    +0.000 OA
ATOM     23  C   UNL     1       3.915   2.698  19.634  0.00  0.00    +0.000 C 
ENDBRANCH  19  22
ENDBRANCH  10  17
ENDBRANCH   1  12
BRANCH   7  24
ATOM     24  O   UNL     1       2.024   9.203  22.892  0.00  0.00    +0.000 OA
ATOM     25  H   UNL     1       2.766   9.648  22.450  0.00  0.00    +0.000 HD
ENDBRANCH   7  24
BRANCH   5  26
ATOM     26  S   UNL     1      -2.142  11.870  23.121  0.00  0.00    +0.000 S 
BRANCH  26  27
ATOM     27  C   UNL     1      -2.951  12.790  21.771  0.00  0.00    +0.000 C 
BRANCH  27  28
ATOM     28  C   UNL     1      -4.467  12.615  21.740  0.00  0.00    +0.000 C 
ATOM     29  O   UNL     1      -5.139  12.527  22.771  0.00  0.00    +0.000 OA
ATOM     30  N   UNL     1      -5.082  12.574  20.479  0.00  0.00    +0.000 N 
ATOM     31  C   UNL     1      -6.542  12.507  20.453  0.00  0.00    +0.000 C 
ATOM     32  C   UNL     1      -7.022  11.062  20.390  0.00  0.00    +0.000 C 
ATOM     33  C   UNL     1      -6.937  10.446  18.994  0.00  0.00    +0.000 C 
ATOM     34  C   UNL     1      -5.554  10.486  18.344  0.00  0.00    +0.000 C 
ATOM     35  C   UNL     1      -5.072  11.904  18.030  0.00  0.00    +0.000 C 
ATOM     36  C   UNL     1      -4.365  12.593  19.202  0.00  0.00    +0.000 C 
ENDBRANCH  27  28
ENDBRANCH  26  27
ENDBRANCH   5  26
TORSDOF 8
ENDMDL
MODEL 3
REMARK VINA RESULT:      -7.6      1.356      1.536
REMARK  Name = 
REMARK  10 active torsions:
REMARK  status: ('A' for Active; 'I' for Inactive)
REMARK    1  A    between atoms: C_1  and  O_2
REMARK    2  A    between atoms: O_2  and  C_3
REMARK    3  A    between atoms: C_6  and  C_7
REMARK    4  A    between atoms: N_9  and  C_10
REMARK    5  A    between atoms: C_14  and  S_15
REMARK    6  A    between atoms: S_15  and  C_16
REMARK    7  A    between atoms: C_16  and  C_17
REMARK    8  A    between atoms: C_27  and  O_28
REMARK    9  A    between atoms: C_30  and  O_31
REMARK   10  A    between atoms: O_31  and  C_32
REMARK                            x       y       z     vdW  Elec       q    Type
REMARK                         _______ _______ _______ _____ _____    ______ ____
ROOT
ATOM      1  C   UNL     1       0.819   9.374  19.865  0.00  0.00    +0.000 A 
ATOM      2  C   UNL     1       0.973   9.594  18.508  0.00  0.00    +0.000 A 
ATOM      3  N   UNL     1       0.254  10.630  17.874  0.00  0.00    +0.000 N 
ATOM      4  N   UNL     1       1.824   8.904  17.740  0.00  0.00    +0.000 NA
ATOM      5  C   UNL     1       2.536   7.930  18.343  0.00  0.00    +0.000 A 
ATOM      6  N   UNL     1       2.470   7.615  19.649  0.00  0.00    +0.000 NA
ATOM      7  C   UNL     1       1.602   8.353  20.366  0.00  0.00    +0.000 A 
ATOM      8  H   UNL     1       0.475  11.518  18.317  0.00  0.00    +0.000 HD
ATOM      9  H   UNL     1       0.565  10.631  16.903  0.00  0.00    +0.000 HD
ENDROOT
BRANCH   1  12
ATOM     10  C   UNL     1       0.305  11.262  21.338  0.00  0.00    +0.000 C 
ATOM     11  O   UNL     1       1.461  11.679  21.366  0.00  0.00    +0.000 OA
ATOM     12  N   UNL     1      -0.102  10.161  20.602  0.00  0.00    +0.000 N 
ATOM     13  H   UNL     1      -1.039  10.172  20.214  0.00  0.00    +0.000 HD
BRANCH  10  17
ATOM     14  C   UNL     1      -2.764  13.460  23.456  0.00  0.00    +0.000 A 
ATOM     15  C   UNL     1      -2.686  12.062  23.512  0.00  0.00    +0.000 A 
ATOM     16  C   UNL     1      -1.686  11.369  22.821  0.00  0.00    +0.000 A 
ATOM     17  C   UNL     1      -0.772  12.059  22.016  0.00  0.00    +0.000 A 
ATOM     18  C   UNL     1      -0.900  13.442  21.895  0.00  0.00    +0.000 A 
ATOM     19  C   UNL     1      -1.888  14.157  22.606  0.00  0.00    +0.000 A 
BRANCH  14  21
ATOM     20  C   UNL     1      -5.067  13.885  23.845  0.00  0.00    +0.000 C 
ATOM     21  O   UNL     1      -3.703  14.144  24.176  0.00  0.00    +0.000 OA
ENDBRANCH  14  21
BRANCH  19  22
ATOM     22  O   UNL     1      -1.824  15.503  22.357  0.00  0.00    +0.000 OA
ATOM     23  C   UNL     1      -0.638  16.051  21.796  0.00  0.00    +0.000 C 
ENDBRANCH  19  22
ENDBRANCH  10  17
ENDBRANCH   1  12
BRANCH   7  24
ATOM     24  O   UNL     1       1.468   7.917  21.648  0.00  0.00    +0.000 OA
ATOM     25  H   UNL     1       0.825   8.556  21.997  0.00  0.00    +0.000 HD
ENDBRANCH   7  24
BRANCH   5  26
ATOM     26  S   UNL     1       3.756   7.120  17.329  0.00  0.00    +0.000 S 
BRANCH  26  27
ATOM     27  C   UNL     1       4.533   6.005  18.544  0.00  0.00    +0.000 C 
BRANCH  27  28
ATOM     28  C   UNL     1       4.314   4.525  18.237  0.00  0.00    +0.000 C 
ATOM     29  O   UNL     1       4.771   3.990  17.223  0.00  0.00    +0.000 OA
ATOM     30  N   UNL     1       3.578   3.779  19.170  0.00  0.00    +0.000 N 
ATOM     31  C   UNL     1       3.456   2.343  18.925  0.00  0.00    +0.000 C 
ATOM     32  C   UNL     1       2.187   2.030  18.139  0.00  0.00    +0.000 C 
ATOM     33  C   UNL     1       0.921   2.024  18.993  0.00  0.00    +0.000 C 
ATOM     34  C   UNL     1       0.654   3.310  19.776  0.00  0.00    +0.000 C 
ATOM     35  C   UNL     1       1.695   3.586  20.863  0.00  0.00    +0.000 C 
ATOM     36  C   UNL     1       2.933   4.338  20.360  0.00  0.00    +0.000 C 
ENDBRANCH  27  28
ENDBRANCH  26  27
ENDBRANCH   5  26
TORSDOF 8
ENDMDL
MODEL 4
REMARK VINA RESULT:      -7.6      1.527      1.949
REMARK  Name = 
REMARK  10 active torsions:
REMARK  status: ('A' for Active; 'I' for Inactive)
REMARK    1  A    between atoms: C_1  and  O_2
REMARK    2  A    between atoms: O_2  and  C_3
REMARK    3  A    between atoms: C_6  and  C_7
REMARK    4  A    between atoms: N_9  and  C_10
REMARK    5  A    between atoms: C_14  and  S_15
REMARK    6  A    between atoms: S_15  and  C_16
REMARK    7  A    between atoms: C_16  and  C_17
REMARK    8  A    between atoms: C_27  and  O_28
REMARK    9  A    between atoms: C_30  and  O_31
REMARK   10  A    between atoms: O_31  and  C_32
REMARK                            x       y       z     vdW  Elec       q    Type
REMARK                         _______ _______ _______ _____ _____    ______ ____
ROOT
ATOM      1  C   UNL     1       0.655   9.624  20.065  0.00  0.00    +0.000 A 
ATOM      2  C   UNL     1       0.770   9.767  18.694  0.00  0.00    +0.000 A 
ATOM      3  N   UNL     1       0.073  10.799  18.030  0.00  0.00    +0.000 N 
ATOM      4  N   UNL     1       1.564   9.002  17.937  0.00  0.00    +0.000 NA
ATOM      5  C   UNL     1       2.256   8.031  18.567  0.00  0.00    +0.000 A 
ATOM      6  N   UNL     1       2.223   7.787  19.889  0.00  0.00    +0.000 NA
ATOM      7  C   UNL     1       1.412   8.597  20.594  0.00  0.00    +0.000 A 
ATOM      8  H   UNL     1       0.346  11.698  18.417  0.00  0.00    +0.000 HD
ATOM      9  H   UNL     1       0.349  10.736  17.051  0.00  0.00    +0.000 HD
ENDROOT
BRANCH   1  12
ATOM     10  C   UNL     1       0.267  11.621  21.429  0.00  0.00    +0.000 C 
ATOM     11  O   UNL     1       1.433  12.002  21.374  0.00  0.00    +0.000 OA
ATOM     12  N   UNL     1      -0.207  10.487  20.789  0.00  0.00    +0.000 N 
ATOM     13  H   UNL     1      -1.161  10.502  20.445  0.00  0.00    +0.000 HD
BRANCH  10  17
ATOM     14  C   UNL     1      -2.636  14.280  23.230  0.00  0.00    +0.000 A 
ATOM     15  C   UNL     1      -1.346  14.714  22.894  0.00  0.00    +0.000 A 
ATOM     16  C   UNL     1      -0.422  13.840  22.311  0.00  0.00    +0.000 A 
ATOM     17  C   UNL     1      -0.753  12.496  22.100  0.00  0.00    +0.000 A 
ATOM     18  C   UNL     1      -2.006  12.045  22.511  0.00  0.00    +0.000 A 
ATOM     19  C   UNL     1      -2.957  12.920  23.076  0.00  0.00    +0.000 A 
BRANCH  14  21
ATOM     20  C   UNL     1      -3.120  16.486  23.962  0.00  0.00    +0.000 C 
ATOM     21  O   UNL     1      -3.559  15.146  23.745  0.00  0.00    +0.000 OA
ENDBRANCH  14  21
BRANCH  19  22
ATOM     22  O   UNL     1      -4.125  12.275  23.389  0.00  0.00    +0.000 OA
ATOM     23  C   UNL     1      -4.551  12.228  24.744  0.00  0.00    +0.000 C 
ENDBRANCH  19  22
ENDBRANCH  10  17
ENDBRANCH   1  12
BRANCH   7  24
ATOM     24  O   UNL     1       1.305   8.235  21.901  0.00  0.00    +0.000 OA
ATOM     25  H   UNL     1       0.898   9.029  22.283  0.00  0.00    +0.000 HD
ENDBRANCH   7  24
BRANCH   5  26
ATOM     26  S   UNL     1       3.405   7.117  17.557  0.00  0.00    +0.000 S 
BRANCH  26  27
ATOM     27  C   UNL     1       4.366   6.240  18.833  0.00  0.00    +0.000 C 
BRANCH  27  28
ATOM     28  C   UNL     1       4.413   4.728  18.625  0.00  0.00    +0.000 C 
ATOM     29  O   UNL     1       5.135   4.204  17.773  0.00  0.00    +0.000 OA
ATOM     30  N   UNL     1       3.608   3.940  19.462  0.00  0.00    +0.000 N 
ATOM     31  C   UNL     1       3.729   2.490  19.329  0.00  0.00    +0.000 C 
ATOM     32  C   UNL     1       2.701   1.943  18.345  0.00  0.00    +0.000 C 
ATOM     33  C   UNL     1       1.299   1.804  18.934  0.00  0.00    +0.000 C 
ATOM     34  C   UNL     1       0.710   3.082  19.531  0.00  0.00    +0.000 C 
ATOM     35  C   UNL     1       1.461   3.576  20.769  0.00  0.00    +0.000 C 
ATOM     36  C   UNL     1       2.664   4.470  20.449  0.00  0.00    +0.000 C 
ENDBRANCH  27  28
ENDBRANCH  26  27
ENDBRANCH   5  26
TORSDOF 8
ENDMDL
MODEL 5
REMARK VINA RESULT:      -7.4      2.957     10.575
REMARK  Name = 
REMARK  10 active torsions:
REMARK  status: ('A' for Active; 'I' for Inactive)
REMARK    1  A    between atoms: C_1  and  O_2
REMARK    2  A    between atoms: O_2  and  C_3
REMARK    3  A    between atoms: C_6  and  C_7
REMARK    4  A    between atoms: N_9  and  C_10
REMARK    5  A    between atoms: C_14  and  S_15
REMARK    6  A    between atoms: S_15  and  C_16
REMARK    7  A    between atoms: C_16  and  C_17
REMARK    8  A    between atoms: C_27  and  O_28
REMARK    9  A    between atoms: C_30  and  O_31
REMARK   10  A    between atoms: O_31  and  C_32
REMARK                            x       y       z     vdW  Elec       q    Type
REMARK                         _______ _______ _______ _____ _____    ______ ____
ROOT
ATOM      1  C   UNL     1       0.921   9.544  20.806  0.00  0.00    +0.000 A 
ATOM      2  C   UNL     1      -0.102  10.221  20.165  0.00  0.00    +0.000 A 
ATOM      3  N   UNL     1      -0.257  10.109  18.767  0.00  0.00    +0.000 N 
ATOM      4  N   UNL     1      -1.017  10.955  20.809  0.00  0.00    +0.000 NA
ATOM      5  C   UNL     1      -0.894  11.045  22.149  0.00  0.00    +0.000 A 
ATOM      6  N   UNL     1       0.058  10.443  22.883  0.00  0.00    +0.000 NA
ATOM      7  C   UNL     1       0.941   9.713  22.177  0.00  0.00    +0.000 A 
ATOM      8  H   UNL     1      -0.381   9.132  18.516  0.00  0.00    +0.000 HD
ATOM      9  H   UNL     1      -1.092  10.645  18.536  0.00  0.00    +0.000 HD
ENDROOT
BRANCH   1  12
ATOM     10  C   UNL     1       1.979   7.415  20.219  0.00  0.00    +0.000 C 
ATOM     11  O   UNL     1       1.289   6.751  20.988  0.00  0.00    +0.000 OA
ATOM     12  N   UNL     1       1.842   8.783  20.043  0.00  0.00    +0.000 N 
ATOM     13  H   UNL     1       2.027   9.161  19.120  0.00  0.00    +0.000 HD
BRANCH  10  17
ATOM     14  C   UNL     1       4.806   5.545  17.528  0.00  0.00    +0.000 A 
ATOM     15  C   UNL     1       4.047   6.659  17.143  0.00  0.00    +0.000 A 
ATOM     16  C   UNL     1       3.140   7.250  18.029  0.00  0.00    +0.000 A 
ATOM     17  C   UNL     1       2.933   6.706  19.302  0.00  0.00    +0.000 A 
ATOM     18  C   UNL     1       3.626   5.549  19.653  0.00  0.00    +0.000 A 
ATOM     19  C   UNL     1       4.564   4.957  18.782  0.00  0.00    +0.000 A 
BRANCH  14  21
ATOM     20  C   UNL     1       5.237   4.160  15.648  0.00  0.00    +0.000 C 
ATOM     21  O   UNL     1       5.737   5.001  16.687  0.00  0.00    +0.000 OA
ENDBRANCH  14  21
BRANCH  19  22
ATOM     22  O   UNL     1       5.143   3.843  19.332  0.00  0.00    +0.000 OA
ATOM     23  C   UNL     1       4.339   2.702  19.598  0.00  0.00    +0.000 C 
ENDBRANCH  19  22
ENDBRANCH  10  17
ENDBRANCH   1  12
BRANCH   7  24
ATOM     24  O   UNL     1       1.962   9.232  22.937  0.00  0.00    +0.000 OA
ATOM     25  H   UNL     1       2.063   8.338  22.571  0.00  0.00    +0.000 HD
ENDBRANCH   7  24
BRANCH   5  26
ATOM     26  S   UNL     1      -2.200  11.916  22.991  0.00  0.00    +0.000 S 
BRANCH  26  27
ATOM     27  C   UNL     1      -2.971  12.811  21.603  0.00  0.00    +0.000 C 
BRANCH  27  28
ATOM     28  C   UNL     1      -3.853  13.976  22.047  0.00  0.00    +0.000 C 
ATOM     29  O   UNL     1      -3.379  15.040  22.454  0.00  0.00    +0.000 OA
ATOM     30  N   UNL     1      -5.242  13.799  21.958  0.00  0.00    +0.000 N 
ATOM     31  C   UNL     1      -6.081  14.949  22.288  0.00  0.00    +0.000 C 
ATOM     32  C   UNL     1      -6.485  14.927  23.758  0.00  0.00    +0.000 C 
ATOM     33  C   UNL     1      -7.629  13.963  24.067  0.00  0.00    +0.000 C 
ATOM     34  C   UNL     1      -7.393  12.511  23.648  0.00  0.00    +0.000 C 
ATOM     35  C   UNL     1      -7.303  12.325  22.131  0.00  0.00    +0.000 C 
ATOM     36  C   UNL     1      -5.898  12.551  21.561  0.00  0.00    +0.000 C 
ENDBRANCH  27  28
ENDBRANCH  26  27
ENDBRANCH   5  26
TORSDOF 8
ENDMDL
MODEL 6
REMARK VINA RESULT:      -7.4      1.319      1.699
REMARK  Name = 
REMARK  10 active torsions:
REMARK  status: ('A' for Active; 'I' for Inactive)
REMARK    1  A    between atoms: C_1  and  O_2
REMARK    2  A    between atoms: O_2  and  C_3
REMARK    3  A    between atoms: C_6  and  C_7
REMARK    4  A    between atoms: N_9  and  C_10
REMARK    5  A    between atoms: C_14  and  S_15
REMARK    6  A    between atoms: S_15  and  C_16
REMARK    7  A    between atoms: C_16  and  C_17
REMARK    8  A    between atoms: C_27  and  O_28
REMARK    9  A    between atoms: C_30  and  O_31
REMARK   10  A    between atoms: O_31  and  C_32
REMARK                            x       y       z     vdW  Elec       q    Type
REMARK                         _______ _______ _______ _____ _____    ______ ____
ROOT
ATOM      1  C   UNL     1       1.858   7.815  19.514  0.00  0.00    +0.000 A 
ATOM      2  C   UNL     1       2.523   7.997  18.313  0.00  0.00    +0.000 A 
ATOM      3  N   UNL     1       2.272   9.145  17.533  0.00  0.00    +0.000 N 
ATOM      4  N   UNL     1       3.457   7.156  17.853  0.00  0.00    +0.000 NA
ATOM      5  C   UNL     1       3.724   6.070  18.607  0.00  0.00    +0.000 A 
ATOM      6  N   UNL     1       3.142   5.779  19.784  0.00  0.00    +0.000 NA
ATOM      7  C   UNL     1       2.219   6.669  20.194  0.00  0.00    +0.000 A 
ATOM      8  H   UNL     1       2.472   9.978  18.079  0.00  0.00    +0.000 HD
ATOM      9  H   UNL     1       2.904   9.083  16.736  0.00  0.00    +0.000 HD
ENDROOT
BRANCH   1  12
ATOM     10  C   UNL     1       0.863   9.266  21.217  0.00  0.00    +0.000 C 
ATOM     11  O   UNL     1       1.696   8.990  22.077  0.00  0.00    +0.000 OA
ATOM     12  N   UNL     1       0.887   8.763  19.926  0.00  0.00    +0.000 N 
ATOM     13  H   UNL     1       0.550   9.361  19.180  0.00  0.00    +0.000 HD
BRANCH  10  17
ATOM     14  C   UNL     1      -2.005  12.343  22.237  0.00  0.00    +0.000 A 
ATOM     15  C   UNL     1      -1.595  11.379  23.168  0.00  0.00    +0.000 A 
ATOM     16  C   UNL     1      -0.665  10.393  22.820  0.00  0.00    +0.000 A 
ATOM     17  C   UNL     1      -0.166  10.319  21.514  0.00  0.00    +0.000 A 
ATOM     18  C   UNL     1      -0.637  11.227  20.567  0.00  0.00    +0.000 A 
ATOM     19  C   UNL     1      -1.554  12.243  20.910  0.00  0.00    +0.000 A 
BRANCH  14  21
ATOM     20  C   UNL     1      -4.173  12.938  23.004  0.00  0.00    +0.000 C 
ATOM     21  O   UNL     1      -2.868  13.343  22.591  0.00  0.00    +0.000 OA
ENDBRANCH  14  21
BRANCH  19  22
ATOM     22  O   UNL     1      -1.868  13.033  19.836  0.00  0.00    +0.000 OA
ATOM     23  C   UNL     1      -1.269  12.763  18.575  0.00  0.00    +0.000 C 
ENDBRANCH  19  22
ENDBRANCH  10  17
ENDBRANCH   1  12
BRANCH   7  24
ATOM     24  O   UNL     1       1.561   6.272  21.317  0.00  0.00    +0.000 OA
ATOM     25  H   UNL     1       1.461   5.320  21.149  0.00  0.00    +0.000 HD
ENDBRANCH   7  24
BRANCH   5  26
ATOM     26  S   UNL     1       5.064   5.042  18.039  0.00  0.00    +0.000 S 
BRANCH  26  27
ATOM     27  C   UNL     1       4.190   3.948  16.872  0.00  0.00    +0.000 C 
BRANCH  27  28
ATOM     28  C   UNL     1       2.809   3.518  17.360  0.00  0.00    +0.000 C 
ATOM     29  O   UNL     1       1.771   3.902  16.815  0.00  0.00    +0.000 OA
ATOM     30  N   UNL     1       2.760   2.644  18.457  0.00  0.00    +0.000 N 
ATOM     31  C   UNL     1       1.443   2.156  18.860  0.00  0.00    +0.000 C 
ATOM     32  C   UNL     1       0.836   3.047  19.939  0.00  0.00    +0.000 C 
ATOM     33  C   UNL     1       1.394   2.788  21.337  0.00  0.00    +0.000 C 
ATOM     34  C   UNL     1       2.914   2.903  21.466  0.00  0.00    +0.000 C 
ATOM     35  C   UNL     1       3.672   1.829  20.683  0.00  0.00    +0.000 C 
ATOM     36  C   UNL     1       3.929   2.195  19.217  0.00  0.00    +0.000 C 
ENDBRANCH  27  28
ENDBRANCH  26  27
ENDBRANCH   5  26
TORSDOF 8
ENDMDL
MODEL 7
REMARK VINA RESULT:      -7.4      1.795      2.462
REMARK  Name = 
REMARK  10 active torsions:
REMARK  status: ('A' for Active; 'I' for Inactive)
REMARK    1  A    between atoms: C_1  and  O_2
REMARK    2  A    between atoms: O_2  and  C_3
REMARK    3  A    between atoms: C_6  and  C_7
REMARK    4  A    between atoms: N_9  and  C_10
REMARK    5  A    between atoms: C_14  and  S_15
REMARK    6  A    between atoms: S_15  and  C_16
REMARK    7  A    between atoms: C_16  and  C_17
REMARK    8  A    between atoms: C_27  and  O_28
REMARK    9  A    between atoms: C_30  and  O_31
REMARK   10  A    between atoms: O_31  and  C_32
REMARK                            x       y       z     vdW  Elec       q    Type
REMARK                         _______ _______ _______ _____ _____    ______ ____
ROOT
ATOM      1  C   UNL     1       0.033  10.088  20.058  0.00  0.00    +0.000 A 
ATOM      2  C   UNL     1       0.822   9.133  20.676  0.00  0.00    +0.000 A 
ATOM      3  N   UNL     1       0.678   8.882  22.057  0.00  0.00    +0.000 N 
ATOM      4  N   UNL     1       1.705   8.370  20.021  0.00  0.00    +0.000 NA
ATOM      5  C   UNL     1       1.829   8.584  18.695  0.00  0.00    +0.000 A 
ATOM      6  N   UNL     1       1.128   9.484  17.984  0.00  0.00    +0.000 NA
ATOM      7  C   UNL     1       0.252  10.213  18.701  0.00  0.00    +0.000 A 
ATOM      8  H   UNL     1      -0.280   8.608  22.254  0.00  0.00    +0.000 HD
ATOM      9  H   UNL     1       1.317   8.118  22.269  0.00  0.00    +0.000 HD
ENDROOT
BRANCH   1  12
ATOM     10  C   UNL     1      -0.466  11.916  21.609  0.00  0.00    +0.000 C 
ATOM     11  O   UNL     1       0.690  12.329  21.646  0.00  0.00    +0.000 OA
ATOM     12  N   UNL     1      -0.882  10.847  20.832  0.00  0.00    +0.000 N 
ATOM     13  H   UNL     1      -1.820  10.876  20.451  0.00  0.00    +0.000 HD
BRANCH  10  17
ATOM     14  C   UNL     1      -3.441  14.303  23.657  0.00  0.00    +0.000 A 
ATOM     15  C   UNL     1      -2.085  14.351  24.010  0.00  0.00    +0.000 A 
ATOM     16  C   UNL     1      -1.138  13.573  23.335  0.00  0.00    +0.000 A 
ATOM     17  C   UNL     1      -1.536  12.689  22.325  0.00  0.00    +0.000 A 
ATOM     18  C   UNL     1      -2.895  12.579  22.032  0.00  0.00    +0.000 A 
ATOM     19  C   UNL     1      -3.858  13.376  22.686  0.00  0.00    +0.000 A 
BRANCH  14  21
ATOM     20  C   UNL     1      -3.851  16.278  24.910  0.00  0.00    +0.000 C 
ATOM     21  O   UNL     1      -4.359  15.105  24.274  0.00  0.00    +0.000 OA
ENDBRANCH  14  21
BRANCH  19  22
ATOM     22  O   UNL     1      -5.126  13.122  22.232  0.00  0.00    +0.000 OA
ATOM     23  C   UNL     1      -5.300  12.494  20.969  0.00  0.00    +0.000 C 
ENDBRANCH  19  22
ENDBRANCH  10  17
ENDBRANCH   1  12
BRANCH   7  24
ATOM     24  O   UNL     1      -0.338  11.199  17.973  0.00  0.00    +0.000 OA
ATOM     25  H   UNL     1      -0.191  10.878  17.068  0.00  0.00    +0.000 HD
ENDBRANCH   7  24
BRANCH   5  26
ATOM     26  S   UNL     1       2.910   7.463  17.828  0.00  0.00    +0.000 S 
BRANCH  26  27
ATOM     27  C   UNL     1       3.758   6.651  19.221  0.00  0.00    +0.000 C 
BRANCH  27  28
ATOM     28  C   UNL     1       4.103   5.188  18.953  0.00  0.00    +0.000 C 
ATOM     29  O   UNL     1       4.966   4.855  18.137  0.00  0.00    +0.000 OA
ATOM     30  N   UNL     1       3.405   4.219  19.691  0.00  0.00    +0.000 N 
ATOM     31  C   UNL     1       3.805   2.826  19.505  0.00  0.00    +0.000 C 
ATOM     32  C   UNL     1       2.968   2.156  18.422  0.00  0.00    +0.000 C 
ATOM     33  C   UNL     1       1.580   1.727  18.895  0.00  0.00    +0.000 C 
ATOM     34  C   UNL     1       0.722   2.840  19.499  0.00  0.00    +0.000 C 
ATOM     35  C   UNL     1       1.281   3.393  20.812  0.00  0.00    +0.000 C 
ATOM     36  C   UNL     1       2.314   4.510  20.624  0.00  0.00    +0.000 C 
ENDBRANCH  27  28
ENDBRANCH  26  27
ENDBRANCH   5  26
TORSDOF 8
ENDMDL
MODEL 8
REMARK VINA RESULT:      -7.4      3.164      4.754
REMARK  Name = 
REMARK  10 active torsions:
REMARK  status: ('A' for Active; 'I' for Inactive)
REMARK    1  A    between atoms: C_1  and  O_2
REMARK    2  A    between atoms: O_2  and  C_3
REMARK    3  A    between atoms: C_6  and  C_7
REMARK    4  A    between atoms: N_9  and  C_10
REMARK    5  A    between atoms: C_14  and  S_15
REMARK    6  A    between atoms: S_15  and  C_16
REMARK    7  A    between atoms: C_16  and  C_17
REMARK    8  A    between atoms: C_27  and  O_28
REMARK    9  A    between atoms: C_30  and  O_31
REMARK   10  A    between atoms: O_31  and  C_32
REMARK                            x       y       z     vdW  Elec       q    Type
REMARK                         _______ _______ _______ _____ _____    ______ ____
ROOT
ATOM      1  C   UNL     1       1.899   8.538  19.385  0.00  0.00    +0.000 A 
ATOM      2  C   UNL     1       1.693   7.869  20.579  0.00  0.00    +0.000 A 
ATOM      3  N   UNL     1       1.258   8.577  21.720  0.00  0.00    +0.000 N 
ATOM      4  N   UNL     1       1.831   6.545  20.716  0.00  0.00    +0.000 NA
ATOM      5  C   UNL     1       2.219   5.857  19.623  0.00  0.00    +0.000 A 
ATOM      6  N   UNL     1       2.457   6.391  18.413  0.00  0.00    +0.000 NA
ATOM      7  C   UNL     1       2.292   7.725  18.340  0.00  0.00    +0.000 A 
ATOM      8  H   UNL     1       0.377   9.042  21.516  0.00  0.00    +0.000 HD
ATOM      9  H   UNL     1       1.130   7.877  22.449  0.00  0.00    +0.000 HD
ENDROOT
BRANCH   1  12
ATOM     10  C   UNL     1       0.570  10.513  18.809  0.00  0.00    +0.000 C 
ATOM     11  O   UNL     1      -0.397   9.866  18.415  0.00  0.00    +0.000 OA
ATOM     12  N   UNL     1       1.721   9.944  19.331  0.00  0.00    +0.000 N 
ATOM     13  H   UNL     1       2.210  10.450  20.060  0.00  0.00    +0.000 HD
BRANCH  10  17
ATOM     14  C   UNL     1       0.182  14.809  19.168  0.00  0.00    +0.000 A 
ATOM     15  C   UNL     1      -0.899  13.948  19.403  0.00  0.00    +0.000 A 
ATOM     16  C   UNL     1      -0.753  12.562  19.283  0.00  0.00    +0.000 A 
ATOM     17  C   UNL     1       0.466  12.010  18.873  0.00  0.00    +0.000 A 
ATOM     18  C   UNL     1       1.517  12.871  18.560  0.00  0.00    +0.000 A 
ATOM     19  C   UNL     1       1.392  14.269  18.701  0.00  0.00    +0.000 A 
BRANCH  14  21
ATOM     20  C   UNL     1      -0.468  16.895  18.237  0.00  0.00    +0.000 C 
ATOM     21  O   UNL     1       0.059  16.159  19.342  0.00  0.00    +0.000 OA
ENDBRANCH  14  21
BRANCH  19  22
ATOM     22  O   UNL     1       2.547  14.923  18.358  0.00  0.00    +0.000 OA
ATOM     23  C   UNL     1       3.585  15.051  19.320  0.00  0.00    +0.000 C 
ENDBRANCH  19  22
ENDBRANCH  10  17
ENDBRANCH   1  12
BRANCH   7  24
ATOM     24  O   UNL     1       2.670   8.242  17.140  0.00  0.00    +0.000 OA
ATOM     25  H   UNL     1       3.591   8.487  17.324  0.00  0.00    +0.000 HD
ENDBRANCH   7  24
BRANCH   5  26
ATOM     26  S   UNL     1       2.263   4.084  19.799  0.00  0.00    +0.000 S 
BRANCH  26  27
ATOM     27  C   UNL     1       3.276   3.618  18.357  0.00  0.00    +0.000 C 
BRANCH  27  28
ATOM     28  C   UNL     1       4.778   3.739  18.606  0.00  0.00    +0.000 C 
ATOM     29  O   UNL     1       5.323   3.238  19.593  0.00  0.00    +0.000 OA
ATOM     30  N   UNL     1       5.532   4.436  17.649  0.00  0.00    +0.000 N 
ATOM     31  C   UNL     1       6.981   4.464  17.836  0.00  0.00    +0.000 C 
ATOM     32  C   UNL     1       7.406   5.702  18.619  0.00  0.00    +0.000 C 
ATOM     33  C   UNL     1       7.459   6.975  17.776  0.00  0.00    +0.000 C 
ATOM     34  C   UNL     1       6.162   7.331  17.048  0.00  0.00    +0.000 C 
ATOM     35  C   UNL     1       5.777   6.321  15.965  0.00  0.00    +0.000 C 
ATOM     36  C   UNL     1       4.968   5.128  16.488  0.00  0.00    +0.000 C 
ENDBRANCH  27  28
ENDBRANCH  26  27
ENDBRANCH   5  26
TORSDOF 8
ENDMDL
MODEL 9
REMARK VINA RESULT:      -7.4      1.833      2.401
REMARK  Name = 
REMARK  10 active torsions:
REMARK  status: ('A' for Active; 'I' for Inactive)
REMARK    1  A    between atoms: C_1  and  O_2
REMARK    2  A    between atoms: O_2  and  C_3
REMARK    3  A    between atoms: C_6  and  C_7
REMARK    4  A    between atoms: N_9  and  C_10
REMARK    5  A    between atoms: C_14  and  S_15
REMARK    6  A    between atoms: S_15  and  C_16
REMARK    7  A    between atoms: C_16  and  C_17
REMARK    8  A    between atoms: C_27  and  O_28
REMARK    9  A    between atoms: C_30  and  O_31
REMARK   10  A    between atoms: O_31  and  C_32
REMARK                            x       y       z     vdW  Elec       q    Type
REMARK                         _______ _______ _______ _____ _____    ______ ____
ROOT
ATOM      1  C   UNL     1       0.902   9.702  19.735  0.00  0.00    +0.000 A 
ATOM      2  C   UNL     1       1.361   8.493  20.227  0.00  0.00    +0.000 A 
ATOM      3  N   UNL     1       0.914   8.024  21.481  0.00  0.00    +0.000 N 
ATOM      4  N   UNL     1       2.186   7.687  19.549  0.00  0.00    +0.000 NA
ATOM      5  C   UNL     1       2.596   8.114  18.338  0.00  0.00    +0.000 A 
ATOM      6  N   UNL     1       2.229   9.269  17.756  0.00  0.00    +0.000 NA
ATOM      7  C   UNL     1       1.392  10.029  18.486  0.00  0.00    +0.000 A 
ATOM      8  H   UNL     1      -0.099   7.944  21.472  0.00  0.00    +0.000 HD
ATOM      9  H   UNL     1       1.342   7.108  21.603  0.00  0.00    +0.000 HD
ENDROOT
BRANCH   1  12
ATOM     10  C   UNL     1       0.452  11.640  21.165  0.00  0.00    +0.000 C 
ATOM     11  O   UNL     1       1.586  12.100  21.061  0.00  0.00    +0.000 OA
ATOM     12  N   UNL     1       0.023  10.489  20.522  0.00  0.00    +0.000 N 
ATOM     13  H   UNL     1      -0.946  10.447  20.226  0.00  0.00    +0.000 HD
BRANCH  10  17
ATOM     14  C   UNL     1      -2.518  13.796  23.459  0.00  0.00    +0.000 A 
ATOM     15  C   UNL     1      -2.520  12.396  23.380  0.00  0.00    +0.000 A 
ATOM     16  C   UNL     1      -1.550  11.717  22.634  0.00  0.00    +0.000 A 
ATOM     17  C   UNL     1      -0.587  12.428  21.907  0.00  0.00    +0.000 A 
ATOM     18  C   UNL     1      -0.636  13.821  21.920  0.00  0.00    +0.000 A 
ATOM     19  C   UNL     1      -1.592  14.520  22.688  0.00  0.00    +0.000 A 
BRANCH  14  21
ATOM     20  C   UNL     1      -2.974  14.885  25.520  0.00  0.00    +0.000 C 
ATOM     21  O   UNL     1      -3.427  14.460  24.234  0.00  0.00    +0.000 OA
ENDBRANCH  14  21
BRANCH  19  22
ATOM     22  O   UNL     1      -1.449  15.878  22.571  0.00  0.00    +0.000 OA
ATOM     23  C   UNL     1      -0.442  16.538  23.326  0.00  0.00    +0.000 C 
ENDBRANCH  19  22
ENDBRANCH  10  17
ENDBRANCH   1  12
BRANCH   7  24
ATOM     24  O   UNL     1       1.151  11.244  17.923  0.00  0.00    +0.000 OA
ATOM     25  H   UNL     1       1.605  11.149  17.070  0.00  0.00    +0.000 HD
ENDBRANCH   7  24
BRANCH   5  26
ATOM     26  S   UNL     1       3.583   6.962  17.403  0.00  0.00    +0.000 S 
BRANCH  26  27
ATOM     27  C   UNL     1       4.533   6.158  18.735  0.00  0.00    +0.000 C 
BRANCH  27  28
ATOM     28  C   UNL     1       4.533   4.634  18.647  0.00  0.00    +0.000 C 
ATOM     29  O   UNL     1       5.243   4.022  17.845  0.00  0.00    +0.000 OA
ATOM     30  N   UNL     1       3.696   3.941  19.535  0.00  0.00    +0.000 N 
ATOM     31  C   UNL     1       3.771   2.482  19.518  0.00  0.00    +0.000 C 
ATOM     32  C   UNL     1       2.733   1.892  18.569  0.00  0.00    +0.000 C 
ATOM     33  C   UNL     1       1.323   1.844  19.155  0.00  0.00    +0.000 C 
ATOM     34  C   UNL     1       0.771   3.184  19.643  0.00  0.00    +0.000 C 
ATOM     35  C   UNL     1       1.529   3.750  20.846  0.00  0.00    +0.000 C 
ATOM     36  C   UNL     1       2.763   4.577  20.468  0.00  0.00    +0.000 C 
ENDBRANCH  27  28
ENDBRANCH  26  27
ENDBRANCH   5  26
TORSDOF 8
ENDMDL
