MODEL 1
REMARK VINA RESULT:      -7.1      0.000      0.000
REMARK  Name = 
REMARK  5 active torsions:
REMARK  status: ('A' for Active; 'I' for Inactive)
REMARK    1  A    between atoms: C_1  and  N_2
REMARK    2  A    between atoms: C_3  and  C_4
REMARK    3  A    between atoms: N_9  and  C_10
REMARK    4  A    between atoms: N_13  and  C_14
REMARK    5  A    between atoms: C_14  and  C_15
REMARK                            x       y       z     vdW  Elec       q    Type
REMARK                         _______ _______ _______ _____ _____    ______ ____
ROOT
ATOM      1  C   UNL     1       6.723   5.091  16.228  0.00  0.00    +0.000 C 
ATOM      2  C   UNL     1       6.149   4.110  17.249  0.00  0.00    +0.000 C 
ATOM      3  C   UNL     1       4.633   4.200  17.399  0.00  0.00    +0.000 C 
ATOM      4  N   UNL     1       4.205   5.577  17.702  0.00  0.00    +0.000 NA
ATOM      5  C   UNL     1       4.589   6.464  16.589  0.00  0.00    +0.000 C 
ATOM      6  C   UNL     1       6.101   6.487  16.359  0.00  0.00    +0.000 C 
ENDROOT
BRANCH   1  11
ATOM      7  C   UNL     1       7.458   4.957  11.368  0.00  0.00    +0.000 C 
ATOM      8  N   UNL     1       6.941   4.571  12.664  0.00  0.00    +0.000 N 
ATOM      9  C   UNL     1       5.819   3.912  13.034  0.00  0.00    +0.000 A 
ATOM     10  N   UNL     1       5.609   3.915  14.329  0.00  0.00    +0.000 NA
ATOM     11  N   UNL     1       6.675   4.598  14.856  0.00  0.00    +0.000 N 
ATOM     12  C   UNL     1       7.498   5.057  13.824  0.00  0.00    +0.000 A 
ATOM     13  O   UNL     1       8.475   5.783  13.916  0.00  0.00    +0.000 OA
BRANCH   9  14
ATOM     14  C   UNL     1       4.854   3.237  12.068  0.00  0.00    +0.000 C 
ATOM     15  F   UNL     1       5.297   2.058  11.559  0.00  0.00    +0.000 F 
ATOM     16  F   UNL     1       3.657   2.961  12.656  0.00  0.00    +0.000 F 
ATOM     17  F   UNL     1       4.581   4.027  10.992  0.00  0.00    +0.000 F 
ENDBRANCH   9  14
ENDBRANCH   1  11
BRANCH   4  18
ATOM     18  C   UNL     1       2.739   5.649  17.906  0.00  0.00    +0.000 C 
BRANCH  18  19
ATOM     19  C   UNL     1       2.212   4.729  18.982  0.00  0.00    +0.000 A 
ATOM     20  C   UNL     1       1.332   3.682  18.701  0.00  0.00    +0.000 A 
ATOM     21  C   UNL     1       0.853   2.884  19.737  0.00  0.00    +0.000 A 
ATOM     22  C   UNL     1       1.280   3.154  21.030  0.00  0.00    +0.000 A 
ATOM     23  N   UNL     1       2.144   4.142  21.339  0.00  0.00    +0.000 NA
ATOM     24  C   UNL     1       2.589   4.902  20.314  0.00  0.00    +0.000 A 
ENDBRANCH  18  19
ENDBRANCH   4  18
TORSDOF 4
ENDMDL
MODEL 2
REMARK VINA RESULT:      -7.1      0.587      1.256
REMARK  Name = 
REMARK  5 active torsions:
REMARK  status: ('A' for Active; 'I' for Inactive)
REMARK    1  A    between atoms: C_1  and  N_2
REMARK    2  A    between atoms: C_3  and  C_4
REMARK    3  A    between atoms: N_9  and  C_10
REMARK    4  A    between atoms: N_13  and  C_14
REMARK    5  A    between atoms: C_14  and  C_15
REMARK                            x       y       z     vdW  Elec       q    Type
REMARK                         _______ _______ _______ _____ _____    ______ ____
ROOT
ATOM      1  C   UNL     1       6.721   4.994  16.212  0.00  0.00    +0.000 C 
ATOM      2  C   UNL     1       6.142   3.990  17.207  0.00  0.00    +0.000 C 
ATOM      3  C   UNL     1       4.626   4.083  17.358  0.00  0.00    +0.000 C 
ATOM      4  N   UNL     1       4.204   5.453  17.696  0.00  0.00    +0.000 NA
ATOM      5  C   UNL     1       4.594   6.368  16.608  0.00  0.00    +0.000 C 
ATOM      6  C   UNL     1       6.106   6.389  16.379  0.00  0.00    +0.000 C 
ENDROOT
BRANCH   1  11
ATOM      7  C   UNL     1       7.426   5.005  11.346  0.00  0.00    +0.000 C 
ATOM      8  N   UNL     1       6.925   4.574  12.634  0.00  0.00    +0.000 N 
ATOM      9  C   UNL     1       5.817   3.887  12.993  0.00  0.00    +0.000 A 
ATOM     10  N   UNL     1       5.615   3.851  14.289  0.00  0.00    +0.000 NA
ATOM     11  N   UNL     1       6.673   4.538  14.828  0.00  0.00    +0.000 N 
ATOM     12  C   UNL     1       7.481   5.039  13.803  0.00  0.00    +0.000 A 
ATOM     13  O   UNL     1       8.446   5.779  13.909  0.00  0.00    +0.000 OA
BRANCH   9  14
ATOM     14  C   UNL     1       4.857   3.222  12.015  0.00  0.00    +0.000 C 
ATOM     15  F   UNL     1       3.620   2.973  12.519  0.00  0.00    +0.000 F 
ATOM     16  F   UNL     1       4.657   3.982  10.902  0.00  0.00    +0.000 F 
ATOM     17  F   UNL     1       5.330   2.020  11.580  0.00  0.00    +0.000 F 
ENDBRANCH   9  14
ENDBRANCH   1  11
BRANCH   4  18
ATOM     18  C   UNL     1       2.739   5.527  17.901  0.00  0.00    +0.000 C 
BRANCH  18  19
ATOM     19  C   UNL     1       2.218   4.645  19.011  0.00  0.00    +0.000 A 
ATOM     20  C   UNL     1       2.567   4.846  20.348  0.00  0.00    +0.000 A 
ATOM     21  C   UNL     1       2.081   3.983  21.327  0.00  0.00    +0.000 A 
ATOM     22  C   UNL     1       1.248   2.944  20.937  0.00  0.00    +0.000 A 
ATOM     23  N   UNL     1       0.872   2.729  19.659  0.00  0.00    +0.000 NA
ATOM     24  C   UNL     1       1.361   3.580  18.731  0.00  0.00    +0.000 A 
ENDBRANCH  18  19
ENDBRANCH   4  18
TORSDOF 4
ENDMDL
MODEL 3
REMARK VINA RESULT:      -6.9      1.095      1.747
REMARK  Name = 
REMARK  5 active torsions:
REMARK  status: ('A' for Active; 'I' for Inactive)
REMARK    1  A    between atoms: C_1  and  N_2
REMARK    2  A    between atoms: C_3  and  C_4
REMARK    3  A    between atoms: N_9  and  C_10
REMARK    4  A    between atoms: N_13  and  C_14
REMARK    5  A    between atoms: C_14  and  C_15
REMARK                            x       y       z     vdW  Elec       q    Type
REMARK                         _______ _______ _______ _____ _____    ______ ____
ROOT
ATOM      1  C   UNL     1       6.042   5.852  15.891  0.00  0.00    +0.000 C 
ATOM      2  C   UNL     1       7.047   5.501  16.987  0.00  0.00    +0.000 C 
ATOM      3  C   UNL     1       6.592   4.359  17.892  0.00  0.00    +0.000 C 
ATOM      4  N   UNL     1       5.265   4.630  18.470  0.00  0.00    +0.000 NA
ATOM      5  C   UNL     1       4.274   4.750  17.385  0.00  0.00    +0.000 C 
ATOM      6  C   UNL     1       4.604   5.892  16.421  0.00  0.00    +0.000 C 
ENDROOT
BRANCH   1  11
ATOM      7  C   UNL     1       7.656   4.301  11.513  0.00  0.00    +0.000 C 
ATOM      8  N   UNL     1       6.834   4.358  12.704  0.00  0.00    +0.000 N 
ATOM      9  C   UNL     1       5.555   3.990  12.941  0.00  0.00    +0.000 A 
ATOM     10  N   UNL     1       5.104   4.374  14.112  0.00  0.00    +0.000 NA
ATOM     11  N   UNL     1       6.162   5.017  14.701  0.00  0.00    +0.000 N 
ATOM     12  C   UNL     1       7.243   5.057  13.815  0.00  0.00    +0.000 A 
ATOM     13  O   UNL     1       8.307   5.635  13.963  0.00  0.00    +0.000 OA
BRANCH   9  14
ATOM     14  C   UNL     1       4.679   3.221  11.960  0.00  0.00    +0.000 C 
ATOM     15  F   UNL     1       3.444   2.908  12.430  0.00  0.00    +0.000 F 
ATOM     16  F   UNL     1       4.471   3.920  10.809  0.00  0.00    +0.000 F 
ATOM     17  F   UNL     1       5.249   2.039  11.593  0.00  0.00    +0.000 F 
ENDBRANCH   9  14
ENDBRANCH   1  11
BRANCH   4  18
ATOM     18  C   UNL     1       4.853   3.547  19.394  0.00  0.00    +0.000 C 
BRANCH  18  19
ATOM     19  C   UNL     1       3.366   3.471  19.645  0.00  0.00    +0.000 A 
ATOM     20  C   UNL     1       2.684   4.440  20.382  0.00  0.00    +0.000 A 
ATOM     21  C   UNL     1       1.316   4.302  20.608  0.00  0.00    +0.000 A 
ATOM     22  C   UNL     1       0.668   3.196  20.078  0.00  0.00    +0.000 A 
ATOM     23  N   UNL     1       1.287   2.249  19.344  0.00  0.00    +0.000 NA
ATOM     24  C   UNL     1       2.614   2.407  19.144  0.00  0.00    +0.000 A 
ENDBRANCH  18  19
ENDBRANCH   4  18
TORSDOF 4
ENDMDL
MODEL 4
REMARK VINA RESULT:      -6.7      7.359      9.402
REMARK  Name = 
REMARK  5 active torsions:
REMARK  status: ('A' for Active; 'I' for Inactive)
REMARK    1  A    between atoms: C_1  and  N_2
REMARK    2  A    between atoms: C_3  and  C_4
REMARK    3  A    between atoms: N_9  and  C_10
REMARK    4  A    between atoms: N_13  and  C_14
REMARK    5  A    between atoms: C_14  and  C_15
REMARK                            x       y       z     vdW  Elec       q    Type
REMARK                         _______ _______ _______ _____ _____    ______ ____
ROOT
ATOM      1  C   UNL     1       0.352  10.502  19.569  0.00  0.00    +0.000 C 
ATOM      2  C   UNL     1       0.224   9.468  20.686  0.00  0.00    +0.000 C 
ATOM      3  C   UNL     1       1.356   8.444  20.706  0.00  0.00    +0.000 C 
ATOM      4  N   UNL     1       1.502   7.783  19.398  0.00  0.00    +0.000 NA
ATOM      5  C   UNL     1       1.839   8.790  18.375  0.00  0.00    +0.000 C 
ATOM      6  C   UNL     1       0.756   9.861  18.236  0.00  0.00    +0.000 C 
ENDROOT
BRANCH   1  11
ATOM      7  C   UNL     1       1.769  14.725  21.652  0.00  0.00    +0.000 C 
ATOM      8  N   UNL     1       1.823  13.562  20.791  0.00  0.00    +0.000 N 
ATOM      9  C   UNL     1       2.448  13.333  19.614  0.00  0.00    +0.000 A 
ATOM     10  N   UNL     1       2.103  12.202  19.045  0.00  0.00    +0.000 NA
ATOM     11  N   UNL     1       1.209  11.630  19.914  0.00  0.00    +0.000 N 
ATOM     12  C   UNL     1       0.986  12.490  20.994  0.00  0.00    +0.000 A 
ATOM     13  O   UNL     1       0.181  12.354  21.901  0.00  0.00    +0.000 OA
BRANCH   9  14
ATOM     14  C   UNL     1       3.446  14.283  18.965  0.00  0.00    +0.000 C 
ATOM     15  F   UNL     1       2.904  15.435  18.491  0.00  0.00    +0.000 F 
ATOM     16  F   UNL     1       4.424  14.664  19.835  0.00  0.00    +0.000 F 
ATOM     17  F   UNL     1       4.079  13.705  17.906  0.00  0.00    +0.000 F 
ENDBRANCH   9  14
ENDBRANCH   1  11
BRANCH   4  18
ATOM     18  C   UNL     1       2.561   6.747  19.438  0.00  0.00    +0.000 C 
BRANCH  18  19
ATOM     19  C   UNL     1       2.063   5.335  19.242  0.00  0.00    +0.000 A 
ATOM     20  C   UNL     1       1.523   4.585  20.288  0.00  0.00    +0.000 A 
ATOM     21  C   UNL     1       1.107   3.275  20.057  0.00  0.00    +0.000 A 
ATOM     22  C   UNL     1       1.238   2.757  18.776  0.00  0.00    +0.000 A 
ATOM     23  N   UNL     1       1.736   3.457  17.736  0.00  0.00    +0.000 NA
ATOM     24  C   UNL     1       2.134   4.723  17.990  0.00  0.00    +0.000 A 
ENDBRANCH  18  19
ENDBRANCH   4  18
TORSDOF 4
ENDMDL
MODEL 5
REMARK VINA RESULT:      -6.6      6.770      9.064
REMARK  Name = 
REMARK  5 active torsions:
REMARK  status: ('A' for Active; 'I' for Inactive)
REMARK    1  A    between atoms: C_1  and  N_2
REMARK    2  A    between atoms: C_3  and  C_4
REMARK    3  A    between atoms: N_9  and  C_10
REMARK    4  A    between atoms: N_13  and  C_14
REMARK    5  A    between atoms: C_14  and  C_15
REMARK                            x       y       z     vdW  Elec       q    Type
REMARK                         _______ _______ _______ _____ _____    ______ ____
ROOT
ATOM      1  C   UNL     1       1.051  10.762  19.251  0.00  0.00    +0.000 C 
ATOM      2  C   UNL     1       1.864   9.880  18.305  0.00  0.00    +0.000 C 
ATOM      3  C   UNL     1       1.663   8.385  18.538  0.00  0.00    +0.000 C 
ATOM      4  N   UNL     1       1.923   8.022  19.942  0.00  0.00    +0.000 NA
ATOM      5  C   UNL     1       0.973   8.734  20.816  0.00  0.00    +0.000 C 
ATOM      6  C   UNL     1       1.101  10.254  20.697  0.00  0.00    +0.000 C 
ENDROOT
BRANCH   1  11
ATOM      7  C   UNL     1      -3.639  12.234  19.379  0.00  0.00    +0.000 C 
ATOM      8  N   UNL     1      -2.442  11.590  18.881  0.00  0.00    +0.000 N 
ATOM      9  C   UNL     1      -2.255  10.534  18.057  0.00  0.00    +0.000 A 
ATOM     10  N   UNL     1      -1.008  10.132  17.989  0.00  0.00    +0.000 NA
ATOM     11  N   UNL     1      -0.316  10.995  18.800  0.00  0.00    +0.000 N 
ATOM     12  C   UNL     1      -1.205  11.888  19.405  0.00  0.00    +0.000 A 
ATOM     13  O   UNL     1      -0.957  12.723  20.260  0.00  0.00    +0.000 OA
BRANCH   9  14
ATOM     14  C   UNL     1      -3.364   9.835  17.283  0.00  0.00    +0.000 C 
ATOM     15  F   UNL     1      -3.964   8.815  17.950  0.00  0.00    +0.000 F 
ATOM     16  F   UNL     1      -4.366  10.693  16.942  0.00  0.00    +0.000 F 
ATOM     17  F   UNL     1      -2.906   9.298  16.117  0.00  0.00    +0.000 F 
ENDBRANCH   9  14
ENDBRANCH   1  11
BRANCH   4  18
ATOM     18  C   UNL     1       1.786   6.561  20.151  0.00  0.00    +0.000 C 
BRANCH  18  19
ATOM     19  C   UNL     1       2.645   5.716  19.241  0.00  0.00    +0.000 A 
ATOM     20  C   UNL     1       2.100   4.911  18.239  0.00  0.00    +0.000 A 
ATOM     21  C   UNL     1       2.938   4.127  17.449  0.00  0.00    +0.000 A 
ATOM     22  C   UNL     1       4.305   4.181  17.681  0.00  0.00    +0.000 A 
ATOM     23  N   UNL     1       4.871   4.962  18.625  0.00  0.00    +0.000 NA
ATOM     24  C   UNL     1       4.033   5.708  19.379  0.00  0.00    +0.000 A 
ENDBRANCH  18  19
ENDBRANCH   4  18
TORSDOF 4
ENDMDL
MODEL 6
REMARK VINA RESULT:      -6.6      6.624      8.964
REMARK  Name = 
REMARK  5 active torsions:
REMARK  status: ('A' for Active; 'I' for Inactive)
REMARK    1  A    between atoms: C_1  and  N_2
REMARK    2  A    between atoms: C_3  and  C_4
REMARK    3  A    between atoms: N_9  and  C_10
REMARK    4  A    between atoms: N_13  and  C_14
REMARK    5  A    between atoms: C_14  and  C_15
REMARK                            x       y       z     vdW  Elec       q    Type
REMARK                         _______ _______ _______ _____ _____    ______ ____
ROOT
ATOM      1  C   UNL     1       1.253  10.616  19.082  0.00  0.00    +0.000 C 
ATOM      2  C   UNL     1       2.110  10.037  17.958  0.00  0.00    +0.000 C 
ATOM      3  C   UNL     1       1.982   8.524  17.808  0.00  0.00    +0.000 C 
ATOM      4  N   UNL     1       2.258   7.834  19.081  0.00  0.00    +0.000 NA
ATOM      5  C   UNL     1       1.272   8.260  20.091  0.00  0.00    +0.000 C 
ATOM      6  C   UNL     1       1.325   9.765  20.356  0.00  0.00    +0.000 C 
ENDROOT
BRANCH   1  11
ATOM      7  C   UNL     1      -3.400  12.173  19.411  0.00  0.00    +0.000 C 
ATOM      8  N   UNL     1      -2.232  11.523  18.854  0.00  0.00    +0.000 N 
ATOM      9  C   UNL     1      -2.094  10.489  17.992  0.00  0.00    +0.000 A 
ATOM     10  N   UNL     1      -0.858  10.066  17.870  0.00  0.00    +0.000 NA
ATOM     11  N   UNL     1      -0.123  10.889  18.685  0.00  0.00    +0.000 N 
ATOM     12  C   UNL     1      -0.974  11.780  19.346  0.00  0.00    +0.000 A 
ATOM     13  O   UNL     1      -0.681  12.582  20.217  0.00  0.00    +0.000 OA
BRANCH   9  14
ATOM     14  C   UNL     1      -3.242   9.837  17.233  0.00  0.00    +0.000 C 
ATOM     15  F   UNL     1      -2.884   9.255  16.058  0.00  0.00    +0.000 F 
ATOM     16  F   UNL     1      -3.842   8.856  17.963  0.00  0.00    +0.000 F 
ATOM     17  F   UNL     1      -4.218  10.736  16.921  0.00  0.00    +0.000 F 
ENDBRANCH   9  14
ENDBRANCH   1  11
BRANCH   4  18
ATOM     18  C   UNL     1       2.192   6.363  18.917  0.00  0.00    +0.000 C 
BRANCH  18  19
ATOM     19  C   UNL     1       3.504   5.717  18.540  0.00  0.00    +0.000 A 
ATOM     20  C   UNL     1       3.735   5.189  17.268  0.00  0.00    +0.000 A 
ATOM     21  C   UNL     1       4.954   4.576  16.985  0.00  0.00    +0.000 A 
ATOM     22  C   UNL     1       5.912   4.518  17.987  0.00  0.00    +0.000 A 
ATOM     23  N   UNL     1       5.733   5.033  19.221  0.00  0.00    +0.000 NA
ATOM     24  C   UNL     1       4.541   5.618  19.468  0.00  0.00    +0.000 A 
ENDBRANCH  18  19
ENDBRANCH   4  18
TORSDOF 4
ENDMDL
MODEL 7
REMARK VINA RESULT:      -6.6      7.347      9.389
REMARK  Name = 
REMARK  5 active torsions:
REMARK  status: ('A' for Active; 'I' for Inactive)
REMARK    1  A    between atoms: C_1  and  N_2
REMARK    2  A    between atoms: C_3  and  C_4
REMARK    3  A    between atoms: N_9  and  C_10
REMARK    4  A    between atoms: N_13  and  C_14
REMARK    5  A    between atoms: C_14  and  C_15
REMARK                            x       y       z     vdW  Elec       q    Type
REMARK                         _______ _______ _______ _____ _____    ______ ____
ROOT
ATOM      1  C   UNL     1       0.332  10.459  19.627  0.00  0.00    +0.000 C 
ATOM      2  C   UNL     1       0.195   9.454  20.769  0.00  0.00    +0.000 C 
ATOM      3  C   UNL     1       1.339   8.445  20.837  0.00  0.00    +0.000 C 
ATOM      4  N   UNL     1       1.518   7.750  19.550  0.00  0.00    +0.000 NA
ATOM      5  C   UNL     1       1.861   8.734  18.507  0.00  0.00    +0.000 C 
ATOM      6  C   UNL     1       0.768   9.787  18.319  0.00  0.00    +0.000 C 
ENDROOT
BRANCH   1  11
ATOM      7  C   UNL     1       1.688  14.713  21.686  0.00  0.00    +0.000 C 
ATOM      8  N   UNL     1       1.753  13.552  20.824  0.00  0.00    +0.000 N 
ATOM      9  C   UNL     1       2.362  13.338  19.635  0.00  0.00    +0.000 A 
ATOM     10  N   UNL     1       2.033  12.199  19.072  0.00  0.00    +0.000 NA
ATOM     11  N   UNL     1       1.169  11.607  19.957  0.00  0.00    +0.000 N 
ATOM     12  C   UNL     1       0.946  12.460  21.041  0.00  0.00    +0.000 A 
ATOM     13  O   UNL     1       0.161  12.305  21.963  0.00  0.00    +0.000 OA
BRANCH   9  14
ATOM     14  C   UNL     1       3.326  14.311  18.969  0.00  0.00    +0.000 C 
ATOM     15  F   UNL     1       2.746  15.442  18.490  0.00  0.00    +0.000 F 
ATOM     16  F   UNL     1       4.300  14.728  19.825  0.00  0.00    +0.000 F 
ATOM     17  F   UNL     1       3.965  13.743  17.908  0.00  0.00    +0.000 F 
ENDBRANCH   9  14
ENDBRANCH   1  11
BRANCH   4  18
ATOM     18  C   UNL     1       2.588   6.730  19.638  0.00  0.00    +0.000 C 
BRANCH  18  19
ATOM     19  C   UNL     1       2.102   5.303  19.545  0.00  0.00    +0.000 A 
ATOM     20  C   UNL     1       1.989   4.633  18.325  0.00  0.00    +0.000 A 
ATOM     21  C   UNL     1       1.505   3.327  18.296  0.00  0.00    +0.000 A 
ATOM     22  C   UNL     1       1.153   2.726  19.497  0.00  0.00    +0.000 A 
ATOM     23  N   UNL     1       1.266   3.333  20.696  0.00  0.00    +0.000 NA
ATOM     24  C   UNL     1       1.736   4.600  20.693  0.00  0.00    +0.000 A 
ENDBRANCH  18  19
ENDBRANCH   4  18
TORSDOF 4
ENDMDL
MODEL 8
REMARK VINA RESULT:      -6.5      7.230      9.334
REMARK  Name = 
REMARK  5 active torsions:
REMARK  status: ('A' for Active; 'I' for Inactive)
REMARK    1  A    between atoms: C_1  and  N_2
REMARK    2  A    between atoms: C_3  and  C_4
REMARK    3  A    between atoms: N_9  and  C_10
REMARK    4  A    between atoms: N_13  and  C_14
REMARK    5  A    between atoms: C_14  and  C_15
REMARK                            x       y       z     vdW  Elec       q    Type
REMARK                         _______ _______ _______ _____ _____    ______ ____
ROOT
ATOM      1  C   UNL     1       0.450  10.067  19.466  0.00  0.00    +0.000 C 
ATOM      2  C   UNL     1       0.723   8.907  20.423  0.00  0.00    +0.000 C 
ATOM      3  C   UNL     1       2.004   8.140  20.105  0.00  0.00    +0.000 C 
ATOM      4  N   UNL     1       2.018   7.676  18.707  0.00  0.00    +0.000 NA
ATOM      5  C   UNL     1       1.969   8.841  17.805  0.00  0.00    +0.000 C 
ATOM      6  C   UNL     1       0.705   9.679  18.005  0.00  0.00    +0.000 C 
ENDROOT
BRANCH   1  11
ATOM      7  C   UNL     1       1.289  14.379  21.677  0.00  0.00    +0.000 C 
ATOM      8  N   UNL     1       1.487  13.269  20.769  0.00  0.00    +0.000 N 
ATOM      9  C   UNL     1       2.098  13.179  19.565  0.00  0.00    +0.000 A 
ATOM     10  N   UNL     1       1.907  12.030  18.961  0.00  0.00    +0.000 NA
ATOM     11  N   UNL     1       1.140  11.299  19.832  0.00  0.00    +0.000 N 
ATOM     12  C   UNL     1       0.828  12.075  20.952  0.00  0.00    +0.000 A 
ATOM     13  O   UNL     1       0.085  11.787  21.876  0.00  0.00    +0.000 OA
BRANCH   9  14
ATOM     14  C   UNL     1       2.919  14.292  18.927  0.00  0.00    +0.000 C 
ATOM     15  F   UNL     1       2.185  15.319  18.426  0.00  0.00    +0.000 F 
ATOM     16  F   UNL     1       3.788  14.854  19.813  0.00  0.00    +0.000 F 
ATOM     17  F   UNL     1       3.673  13.832  17.889  0.00  0.00    +0.000 F 
ENDBRANCH   9  14
ENDBRANCH   1  11
BRANCH   4  18
ATOM     18  C   UNL     1       3.235   6.881  18.420  0.00  0.00    +0.000 C 
BRANCH  18  19
ATOM     19  C   UNL     1       2.972   5.426  18.110  0.00  0.00    +0.000 A 
ATOM     20  C   UNL     1       1.744   4.818  18.379  0.00  0.00    +0.000 A 
ATOM     21  C   UNL     1       1.567   3.464  18.101  0.00  0.00    +0.000 A 
ATOM     22  C   UNL     1       2.629   2.759  17.552  0.00  0.00    +0.000 A 
ATOM     23  N   UNL     1       3.822   3.315  17.260  0.00  0.00    +0.000 NA
ATOM     24  C   UNL     1       3.966   4.629  17.543  0.00  0.00    +0.000 A 
ENDBRANCH  18  19
ENDBRANCH   4  18
TORSDOF 4
ENDMDL
MODEL 9
REMARK VINA RESULT:      -6.5      6.840      9.300
REMARK  Name = 
REMARK  5 active torsions:
REMARK  status: ('A' for Active; 'I' for Inactive)
REMARK    1  A    between atoms: C_1  and  N_2
REMARK    2  A    between atoms: C_3  and  C_4
REMARK    3  A    between atoms: N_9  and  C_10
REMARK    4  A    between atoms: N_13  and  C_14
REMARK    5  A    between atoms: C_14  and  C_15
REMARK                            x       y       z     vdW  Elec       q    Type
REMARK                         _______ _______ _______ _____ _____    ______ ____
ROOT
ATOM      1  C   UNL     1       1.043  10.932  19.237  0.00  0.00    +0.000 C 
ATOM      2  C   UNL     1       1.984  10.574  18.088  0.00  0.00    +0.000 C 
ATOM      3  C   UNL     1       1.988   9.088  17.741  0.00  0.00    +0.000 C 
ATOM      4  N   UNL     1       2.276   8.262  18.926  0.00  0.00    +0.000 NA
ATOM      5  C   UNL     1       1.224   8.473  19.937  0.00  0.00    +0.000 C 
ATOM      6  C   UNL     1       1.142   9.931  20.394  0.00  0.00    +0.000 C 
ENDROOT
BRANCH   1  11
ATOM      7  C   UNL     1      -3.696  12.217  19.511  0.00  0.00    +0.000 C 
ATOM      8  N   UNL     1      -2.481  11.655  18.957  0.00  0.00    +0.000 N 
ATOM      9  C   UNL     1      -2.265  10.669  18.057  0.00  0.00    +0.000 A 
ATOM     10  N   UNL     1      -1.005  10.320  17.949  0.00  0.00    +0.000 NA
ATOM     11  N   UNL     1      -0.336  11.146  18.816  0.00  0.00    +0.000 N 
ATOM     12  C   UNL     1      -1.251  11.960  19.491  0.00  0.00    +0.000 A 
ATOM     13  O   UNL     1      -1.024  12.739  20.403  0.00  0.00    +0.000 OA
BRANCH   9  14
ATOM     14  C   UNL     1      -3.357   9.987  17.243  0.00  0.00    +0.000 C 
ATOM     15  F   UNL     1      -4.343  10.817  16.813  0.00  0.00    +0.000 F 
ATOM     16  F   UNL     1      -2.859   9.393  16.123  0.00  0.00    +0.000 F 
ATOM     17  F   UNL     1      -3.980   9.006  17.954  0.00  0.00    +0.000 F 
ENDBRANCH   9  14
ENDBRANCH   1  11
BRANCH   4  18
ATOM     18  C   UNL     1       2.339   6.824  18.573  0.00  0.00    +0.000 C 
BRANCH  18  19
ATOM     19  C   UNL     1       3.739   6.280  18.415  0.00  0.00    +0.000 A 
ATOM     20  C   UNL     1       4.319   5.430  19.358  0.00  0.00    +0.000 A 
ATOM     21  C   UNL     1       5.626   4.983  19.176  0.00  0.00    +0.000 A 
ATOM     22  C   UNL     1       6.313   5.396  18.043  0.00  0.00    +0.000 A 
ATOM     23  N   UNL     1       5.781   6.200  17.100  0.00  0.00    +0.000 NA
ATOM     24  C   UNL     1       4.513   6.621  17.305  0.00  0.00    +0.000 A 
ENDBRANCH  18  19
ENDBRANCH   4  18
TORSDOF 4
ENDMDL
