MODEL 1
REMARK VINA RESULT:      -7.5      0.000      0.000
REMARK  Name = 
REMARK  5 active torsions:
REMARK  status: ('A' for Active; 'I' for Inactive)
REMARK    1  A    between atoms: C_1  and  C_2
REMARK    2  A    between atoms: C_8  and  S_9
REMARK    3  A    between atoms: S_9  and  C_10
REMARK    4  A    between atoms: C_10  and  C_11
REMARK    5  A    between atoms: C_14  and  C_15
REMARK                            x       y       z     vdW  Elec       q    Type
REMARK                         _______ _______ _______ _____ _____    ______ ____
ROOT
ATOM      1  C   UNL     1       4.886   4.088  19.359  0.00  0.00    +0.000 C 
ENDROOT
BRANCH   1   2
ATOM      2  C   UNL     1       3.635   4.810  19.719  0.00  0.00    +0.000 A 
ATOM      3  N   UNL     1       2.689   4.449  20.564  0.00  0.00    +0.000 NA
ATOM      4  C   UNL     1       1.852   5.536  20.601  0.00  0.00    +0.000 A 
ATOM      5  C   UNL     1       2.320   6.536  19.777  0.00  0.00    +0.000 A 
ATOM      6  O   UNL     1       3.477   6.069  19.201  0.00  0.00    +0.000 OA
BRANCH   5   7
ATOM      7  C   UNL     1       1.900   7.891  19.440  0.00  0.00    +0.000 A 
ATOM      8  C   UNL     1       1.216   8.679  20.379  0.00  0.00    +0.000 A 
ATOM      9  C   UNL     1       0.825   9.987  20.075  0.00  0.00    +0.000 A 
ATOM     10  C   UNL     1       1.111  10.527  18.824  0.00  0.00    +0.000 A 
ATOM     11  C   UNL     1       1.785   9.760  17.878  0.00  0.00    +0.000 A 
ATOM     12  C   UNL     1       2.174   8.452  18.182  0.00  0.00    +0.000 A 
ENDBRANCH   5   7
ENDBRANCH   1   2
BRANCH   1  13
ATOM     13  S   UNL     1       6.219   5.210  18.843  0.00  0.00    +0.000 S 
BRANCH  13  21
ATOM     14  C   UNL     1       5.162   2.889  11.472  0.00  0.00    +0.000 C 
ATOM     15  C   UNL     1       5.952   3.634  12.517  0.00  0.00    +0.000 C 
ATOM     16  O   UNL     1       7.063   4.083  12.249  0.00  0.00    +0.000 OA
ATOM     17  N   UNL     1       5.284   3.721  13.719  0.00  0.00    +0.000 N 
ATOM     18  C   UNL     1       5.828   4.365  14.797  0.00  0.00    +0.000 A 
ATOM     19  N   UNL     1       6.879   5.138  14.847  0.00  0.00    +0.000 NA
ATOM     20  C   UNL     1       7.107   5.519  16.154  0.00  0.00    +0.000 A 
ATOM     21  C   UNL     1       6.225   5.019  17.093  0.00  0.00    +0.000 A 
ATOM     22  S   UNL     1       5.014   4.103  16.276  0.00  0.00    +0.000 S 
ATOM     23  H   UNL     1       4.424   3.216  13.872  0.00  0.00    +0.000 HD
ENDBRANCH  13  21
ENDBRANCH   1  13
TORSDOF 4
ENDMDL
MODEL 2
REMARK VINA RESULT:      -7.3      1.777      2.601
REMARK  Name = 
REMARK  5 active torsions:
REMARK  status: ('A' for Active; 'I' for Inactive)
REMARK    1  A    between atoms: C_1  and  C_2
REMARK    2  A    between atoms: C_8  and  S_9
REMARK    3  A    between atoms: S_9  and  C_10
REMARK    4  A    between atoms: C_10  and  C_11
REMARK    5  A    between atoms: C_14  and  C_15
REMARK                            x       y       z     vdW  Elec       q    Type
REMARK                         _______ _______ _______ _____ _____    ______ ____
ROOT
ATOM      1  C   UNL     1       3.265   5.288  18.977  0.00  0.00    +0.000 C 
ENDROOT
BRANCH   1   2
ATOM      2  C   UNL     1       2.753   6.684  18.918  0.00  0.00    +0.000 A 
ATOM      3  N   UNL     1       2.729   7.511  17.889  0.00  0.00    +0.000 NA
ATOM      4  C   UNL     1       2.039   8.599  18.363  0.00  0.00    +0.000 A 
ATOM      5  C   UNL     1       1.656   8.399  19.671  0.00  0.00    +0.000 A 
ATOM      6  O   UNL     1       2.118   7.157  20.036  0.00  0.00    +0.000 OA
BRANCH   5   7
ATOM      7  C   UNL     1       0.893   9.151  20.660  0.00  0.00    +0.000 A 
ATOM      8  C   UNL     1       0.753  10.543  20.544  0.00  0.00    +0.000 A 
ATOM      9  C   UNL     1       0.008  11.273  21.476  0.00  0.00    +0.000 A 
ATOM     10  C   UNL     1      -0.608  10.621  22.541  0.00  0.00    +0.000 A 
ATOM     11  C   UNL     1      -0.477   9.241  22.675  0.00  0.00    +0.000 A 
ATOM     12  C   UNL     1       0.269   8.512  21.744  0.00  0.00    +0.000 A 
ENDBRANCH   5   7
ENDBRANCH   1   2
BRANCH   1  13
ATOM     13  S   UNL     1       5.051   5.210  19.300  0.00  0.00    +0.000 S 
BRANCH  13  21
ATOM     14  C   UNL     1       7.326   4.320  11.893  0.00  0.00    +0.000 C 
ATOM     15  C   UNL     1       7.485   4.951  13.252  0.00  0.00    +0.000 C 
ATOM     16  O   UNL     1       8.482   5.619  13.510  0.00  0.00    +0.000 OA
ATOM     17  N   UNL     1       6.423   4.678  14.087  0.00  0.00    +0.000 N 
ATOM     18  C   UNL     1       6.371   5.166  15.365  0.00  0.00    +0.000 A 
ATOM     19  N   UNL     1       7.124   6.071  15.929  0.00  0.00    +0.000 NA
ATOM     20  C   UNL     1       6.764   6.206  17.254  0.00  0.00    +0.000 A 
ATOM     21  C   UNL     1       5.740   5.387  17.690  0.00  0.00    +0.000 A 
ATOM     22  S   UNL     1       5.157   4.476  16.348  0.00  0.00    +0.000 S 
ATOM     23  H   UNL     1       5.707   4.021  13.817  0.00  0.00    +0.000 HD
ENDBRANCH  13  21
ENDBRANCH   1  13
TORSDOF 4
ENDMDL
MODEL 3
REMARK VINA RESULT:      -7.3      4.911      6.960
REMARK  Name = 
REMARK  5 active torsions:
REMARK  status: ('A' for Active; 'I' for Inactive)
REMARK    1  A    between atoms: C_1  and  C_2
REMARK    2  A    between atoms: C_8  and  S_9
REMARK    3  A    between atoms: S_9  and  C_10
REMARK    4  A    between atoms: C_10  and  C_11
REMARK    5  A    between atoms: C_14  and  C_15
REMARK                            x       y       z     vdW  Elec       q    Type
REMARK                         _______ _______ _______ _____ _____    ______ ____
ROOT
ATOM      1  C   UNL     1       7.952   6.011  18.849  0.00  0.00    +0.000 C 
ENDROOT
BRANCH   1   2
ATOM      2  C   UNL     1       8.062   7.412  18.358  0.00  0.00    +0.000 A 
ATOM      3  N   UNL     1       7.390   8.000  17.387  0.00  0.00    +0.000 NA
ATOM      4  C   UNL     1       7.800   9.309  17.454  0.00  0.00    +0.000 A 
ATOM      5  C   UNL     1       8.709   9.480  18.475  0.00  0.00    +0.000 A 
ATOM      6  O   UNL     1       8.884   8.251  19.064  0.00  0.00    +0.000 OA
BRANCH   5   7
ATOM      7  C   UNL     1       9.441  10.607  19.040  0.00  0.00    +0.000 A 
ATOM      8  C   UNL     1      10.204  11.448  18.214  0.00  0.00    +0.000 A 
ATOM      9  C   UNL     1      10.896  12.543  18.742  0.00  0.00    +0.000 A 
ATOM     10  C   UNL     1      10.835  12.815  20.106  0.00  0.00    +0.000 A 
ATOM     11  C   UNL     1      10.087  11.990  20.942  0.00  0.00    +0.000 A 
ATOM     12  C   UNL     1       9.397  10.895  20.414  0.00  0.00    +0.000 A 
ENDBRANCH   5   7
ENDBRANCH   1   2
BRANCH   1  13
ATOM     13  S   UNL     1       7.515   4.839  17.531  0.00  0.00    +0.000 S 
BRANCH  13  21
ATOM     14  C   UNL     1       0.329   2.951  19.902  0.00  0.00    +0.000 C 
ATOM     15  C   UNL     1       1.281   3.421  18.834  0.00  0.00    +0.000 C 
ATOM     16  O   UNL     1       0.906   3.512  17.668  0.00  0.00    +0.000 OA
ATOM     17  N   UNL     1       2.534   3.705  19.332  0.00  0.00    +0.000 N 
ATOM     18  C   UNL     1       3.543   4.154  18.524  0.00  0.00    +0.000 A 
ATOM     19  N   UNL     1       3.481   4.572  17.288  0.00  0.00    +0.000 NA
ATOM     20  C   UNL     1       4.752   4.865  16.839  0.00  0.00    +0.000 A 
ATOM     21  C   UNL     1       5.777   4.656  17.742  0.00  0.00    +0.000 A 
ATOM     22  S   UNL     1       5.092   4.150  19.241  0.00  0.00    +0.000 S 
ATOM     23  H   UNL     1       2.774   3.485  20.287  0.00  0.00    +0.000 HD
ENDBRANCH  13  21
ENDBRANCH   1  13
TORSDOF 4
ENDMDL
MODEL 4
REMARK VINA RESULT:      -7.3      2.636      8.004
REMARK  Name = 
REMARK  5 active torsions:
REMARK  status: ('A' for Active; 'I' for Inactive)
REMARK    1  A    between atoms: C_1  and  C_2
REMARK    2  A    between atoms: C_8  and  S_9
REMARK    3  A    between atoms: S_9  and  C_10
REMARK    4  A    between atoms: C_10  and  C_11
REMARK    5  A    between atoms: C_14  and  C_15
REMARK                            x       y       z     vdW  Elec       q    Type
REMARK                         _______ _______ _______ _____ _____    ______ ____
ROOT
ATOM      1  C   UNL     1       4.115   3.128  18.451  0.00  0.00    +0.000 C 
ENDROOT
BRANCH   1   2
ATOM      2  C   UNL     1       5.221   3.814  17.729  0.00  0.00    +0.000 A 
ATOM      3  N   UNL     1       6.293   4.399  18.229  0.00  0.00    +0.000 NA
ATOM      4  C   UNL     1       7.024   4.743  17.118  0.00  0.00    +0.000 A 
ATOM      5  C   UNL     1       6.375   4.348  15.969  0.00  0.00    +0.000 A 
ATOM      6  O   UNL     1       5.203   3.746  16.361  0.00  0.00    +0.000 OA
BRANCH   5   7
ATOM      7  C   UNL     1       6.661   4.398  14.541  0.00  0.00    +0.000 A 
ATOM      8  C   UNL     1       7.627   5.284  14.038  0.00  0.00    +0.000 A 
ATOM      9  C   UNL     1       7.924   5.328  12.672  0.00  0.00    +0.000 A 
ATOM     10  C   UNL     1       7.258   4.486  11.786  0.00  0.00    +0.000 A 
ATOM     11  C   UNL     1       6.294   3.603  12.265  0.00  0.00    +0.000 A 
ATOM     12  C   UNL     1       5.996   3.560  13.630  0.00  0.00    +0.000 A 
ENDBRANCH   5   7
ENDBRANCH   1   2
BRANCH   1  13
ATOM     13  S   UNL     1       2.473   3.685  17.907  0.00  0.00    +0.000 S 
BRANCH  13  21
ATOM     14  C   UNL     1       0.661   9.511  22.767  0.00  0.00    +0.000 C 
ATOM     15  C   UNL     1       1.100   9.013  21.414  0.00  0.00    +0.000 C 
ATOM     16  O   UNL     1       1.159   9.785  20.461  0.00  0.00    +0.000 OA
ATOM     17  N   UNL     1       1.396   7.668  21.418  0.00  0.00    +0.000 N 
ATOM     18  C   UNL     1       1.821   7.023  20.288  0.00  0.00    +0.000 A 
ATOM     19  N   UNL     1       2.205   7.532  19.148  0.00  0.00    +0.000 NA
ATOM     20  C   UNL     1       2.484   6.512  18.262  0.00  0.00    +0.000 A 
ATOM     21  C   UNL     1       2.298   5.228  18.737  0.00  0.00    +0.000 A 
ATOM     22  S   UNL     1       1.835   5.319  20.396  0.00  0.00    +0.000 S 
ATOM     23  H   UNL     1       1.203   7.097  22.227  0.00  0.00    +0.000 HD
ENDBRANCH  13  21
ENDBRANCH   1  13
TORSDOF 4
ENDMDL
MODEL 5
REMARK VINA RESULT:      -7.2      3.052      4.626
REMARK  Name = 
REMARK  5 active torsions:
REMARK  status: ('A' for Active; 'I' for Inactive)
REMARK    1  A    between atoms: C_1  and  C_2
REMARK    2  A    between atoms: C_8  and  S_9
REMARK    3  A    between atoms: S_9  and  C_10
REMARK    4  A    between atoms: C_10  and  C_11
REMARK    5  A    between atoms: C_14  and  C_15
REMARK                            x       y       z     vdW  Elec       q    Type
REMARK                         _______ _______ _______ _____ _____    ______ ____
ROOT
ATOM      1  C   UNL     1       5.379   4.038  19.153  0.00  0.00    +0.000 C 
ENDROOT
BRANCH   1   2
ATOM      2  C   UNL     1       4.037   4.614  19.438  0.00  0.00    +0.000 A 
ATOM      3  N   UNL     1       3.030   4.071  20.096  0.00  0.00    +0.000 NA
ATOM      4  C   UNL     1       2.104   5.083  20.167  0.00  0.00    +0.000 A 
ATOM      5  C   UNL     1       2.580   6.220  19.552  0.00  0.00    +0.000 A 
ATOM      6  O   UNL     1       3.834   5.920  19.077  0.00  0.00    +0.000 OA
BRANCH   5   7
ATOM      7  C   UNL     1       2.089   7.577  19.347  0.00  0.00    +0.000 A 
ATOM      8  C   UNL     1       2.223   8.202  18.097  0.00  0.00    +0.000 A 
ATOM      9  C   UNL     1       1.740   9.497  17.882  0.00  0.00    +0.000 A 
ATOM     10  C   UNL     1       1.115  10.188  18.916  0.00  0.00    +0.000 A 
ATOM     11  C   UNL     1       0.976   9.587  20.165  0.00  0.00    +0.000 A 
ATOM     12  C   UNL     1       1.461   8.293  20.379  0.00  0.00    +0.000 A 
ENDBRANCH   5   7
ENDBRANCH   1   2
BRANCH   1  13
ATOM     13  S   UNL     1       5.910   4.316  17.437  0.00  0.00    +0.000 S 
BRANCH  13  21
ATOM     14  C   UNL     1       9.819  10.657  19.750  0.00  0.00    +0.000 C 
ATOM     15  C   UNL     1       8.941   9.942  18.757  0.00  0.00    +0.000 C 
ATOM     16  O   UNL     1       8.419  10.562  17.834  0.00  0.00    +0.000 OA
ATOM     17  N   UNL     1       8.825   8.596  19.029  0.00  0.00    +0.000 N 
ATOM     18  C   UNL     1       8.075   7.766  18.240  0.00  0.00    +0.000 A 
ATOM     19  N   UNL     1       7.548   8.002  17.068  0.00  0.00    +0.000 NA
ATOM     20  C   UNL     1       6.814   6.905  16.667  0.00  0.00    +0.000 A 
ATOM     21  C   UNL     1       6.781   5.842  17.549  0.00  0.00    +0.000 A 
ATOM     22  S   UNL     1       7.788   6.217  18.897  0.00  0.00    +0.000 S 
ATOM     23  H   UNL     1       9.199   8.205  19.880  0.00  0.00    +0.000 HD
ENDBRANCH  13  21
ENDBRANCH   1  13
TORSDOF 4
ENDMDL
MODEL 6
REMARK VINA RESULT:      -7.1      2.553      7.938
REMARK  Name = 
REMARK  5 active torsions:
REMARK  status: ('A' for Active; 'I' for Inactive)
REMARK    1  A    between atoms: C_1  and  C_2
REMARK    2  A    between atoms: C_8  and  S_9
REMARK    3  A    between atoms: S_9  and  C_10
REMARK    4  A    between atoms: C_10  and  C_11
REMARK    5  A    between atoms: C_14  and  C_15
REMARK                            x       y       z     vdW  Elec       q    Type
REMARK                         _______ _______ _______ _____ _____    ______ ____
ROOT
ATOM      1  C   UNL     1       4.750   3.461  18.856  0.00  0.00    +0.000 C 
ENDROOT
BRANCH   1   2
ATOM      2  C   UNL     1       5.542   4.301  17.917  0.00  0.00    +0.000 A 
ATOM      3  N   UNL     1       6.349   5.309  18.192  0.00  0.00    +0.000 NA
ATOM      4  C   UNL     1       6.904   5.623  16.976  0.00  0.00    +0.000 A 
ATOM      5  C   UNL     1       6.421   4.789  15.992  0.00  0.00    +0.000 A 
ATOM      6  O   UNL     1       5.535   3.929  16.598  0.00  0.00    +0.000 OA
BRANCH   5   7
ATOM      7  C   UNL     1       6.658   4.614  14.565  0.00  0.00    +0.000 A 
ATOM      8  C   UNL     1       5.924   3.670  13.831  0.00  0.00    +0.000 A 
ATOM      9  C   UNL     1       6.128   3.506  12.457  0.00  0.00    +0.000 A 
ATOM     10  C   UNL     1       7.073   4.286  11.795  0.00  0.00    +0.000 A 
ATOM     11  C   UNL     1       7.814   5.225  12.506  0.00  0.00    +0.000 A 
ATOM     12  C   UNL     1       7.610   5.387  13.880  0.00  0.00    +0.000 A 
ENDBRANCH   5   7
ENDBRANCH   1   2
BRANCH   1  13
ATOM     13  S   UNL     1       2.960   3.587  18.569  0.00  0.00    +0.000 S 
BRANCH  13  21
ATOM     14  C   UNL     1       0.284   9.915  22.261  0.00  0.00    +0.000 C 
ATOM     15  C   UNL     1       0.884   9.255  21.047  0.00  0.00    +0.000 C 
ATOM     16  O   UNL     1       0.980   9.873  19.991  0.00  0.00    +0.000 OA
ATOM     17  N   UNL     1       1.273   7.956  21.292  0.00  0.00    +0.000 N 
ATOM     18  C   UNL     1       1.849   7.183  20.319  0.00  0.00    +0.000 A 
ATOM     19  N   UNL     1       2.303   7.542  19.148  0.00  0.00    +0.000 NA
ATOM     20  C   UNL     1       2.737   6.425  18.464  0.00  0.00    +0.000 A 
ATOM     21  C   UNL     1       2.598   5.218  19.123  0.00  0.00    +0.000 A 
ATOM     22  S   UNL     1       1.973   5.524  20.700  0.00  0.00    +0.000 S 
ATOM     23  H   UNL     1       1.044   7.501  22.163  0.00  0.00    +0.000 HD
ENDBRANCH  13  21
ENDBRANCH   1  13
TORSDOF 4
ENDMDL
MODEL 7
REMARK VINA RESULT:      -7.0      5.357      9.064
REMARK  Name = 
REMARK  5 active torsions:
REMARK  status: ('A' for Active; 'I' for Inactive)
REMARK    1  A    between atoms: C_1  and  C_2
REMARK    2  A    between atoms: C_8  and  S_9
REMARK    3  A    between atoms: S_9  and  C_10
REMARK    4  A    between atoms: C_10  and  C_11
REMARK    5  A    between atoms: C_14  and  C_15
REMARK                            x       y       z     vdW  Elec       q    Type
REMARK                         _______ _______ _______ _____ _____    ______ ____
ROOT
ATOM      1  C   UNL     1       1.931   9.553  17.977  0.00  0.00    +0.000 C 
ENDROOT
BRANCH   1   2
ATOM      2  C   UNL     1       2.468   8.165  17.949  0.00  0.00    +0.000 A 
ATOM      3  N   UNL     1       3.573   7.720  17.380  0.00  0.00    +0.000 NA
ATOM      4  C   UNL     1       3.636   6.407  17.775  0.00  0.00    +0.000 A 
ATOM      5  C   UNL     1       2.567   6.091  18.584  0.00  0.00    +0.000 A 
ATOM      6  O   UNL     1       1.805   7.229  18.699  0.00  0.00    +0.000 OA
BRANCH   5   7
ATOM      7  C   UNL     1       2.125   4.910  19.315  0.00  0.00    +0.000 A 
ATOM      8  C   UNL     1       1.579   3.812  18.631  0.00  0.00    +0.000 A 
ATOM      9  C   UNL     1       1.169   2.665  19.319  0.00  0.00    +0.000 A 
ATOM     10  C   UNL     1       1.298   2.599  20.703  0.00  0.00    +0.000 A 
ATOM     11  C   UNL     1       1.834   3.679  21.400  0.00  0.00    +0.000 A 
ATOM     12  C   UNL     1       2.243   4.825  20.712  0.00  0.00    +0.000 A 
ENDBRANCH   5   7
ENDBRANCH   1   2
BRANCH   1  13
ATOM     13  S   UNL     1       0.944   9.892  19.465  0.00  0.00    +0.000 S 
BRANCH  13  21
ATOM     14  C   UNL     1      -6.137  12.917  18.224  0.00  0.00    +0.000 C 
ATOM     15  C   UNL     1      -5.025  11.971  17.850  0.00  0.00    +0.000 C 
ATOM     16  O   UNL     1      -5.206  11.114  16.989  0.00  0.00    +0.000 OA
ATOM     17  N   UNL     1      -3.872  12.202  18.568  0.00  0.00    +0.000 N 
ATOM     18  C   UNL     1      -2.743  11.455  18.372  0.00  0.00    +0.000 A 
ATOM     19  N   UNL     1      -2.476  10.605  17.416  0.00  0.00    +0.000 NA
ATOM     20  C   UNL     1      -1.245  10.026  17.648  0.00  0.00    +0.000 A 
ATOM     21  C   UNL     1      -0.588  10.437  18.792  0.00  0.00    +0.000 A 
ATOM     22  S   UNL     1      -1.529  11.665  19.554  0.00  0.00    +0.000 S 
ATOM     23  H   UNL     1      -3.863  12.856  19.336  0.00  0.00    +0.000 HD
ENDBRANCH  13  21
ENDBRANCH   1  13
TORSDOF 4
ENDMDL
MODEL 8
REMARK VINA RESULT:      -7.0      1.344      2.025
REMARK  Name = 
REMARK  5 active torsions:
REMARK  status: ('A' for Active; 'I' for Inactive)
REMARK    1  A    between atoms: C_1  and  C_2
REMARK    2  A    between atoms: C_8  and  S_9
REMARK    3  A    between atoms: S_9  and  C_10
REMARK    4  A    between atoms: C_10  and  C_11
REMARK    5  A    between atoms: C_14  and  C_15
REMARK                            x       y       z     vdW  Elec       q    Type
REMARK                         _______ _______ _______ _____ _____    ______ ____
ROOT
ATOM      1  C   UNL     1       3.775   5.117  19.390  0.00  0.00    +0.000 C 
ENDROOT
BRANCH   1   2
ATOM      2  C   UNL     1       3.103   6.413  19.099  0.00  0.00    +0.000 A 
ATOM      3  N   UNL     1       2.948   7.019  17.937  0.00  0.00    +0.000 NA
ATOM      4  C   UNL     1       2.154   8.099  18.236  0.00  0.00    +0.000 A 
ATOM      5  C   UNL     1       1.843   8.115  19.578  0.00  0.00    +0.000 A 
ATOM      6  O   UNL     1       2.458   7.023  20.143  0.00  0.00    +0.000 OA
BRANCH   5   7
ATOM      7  C   UNL     1       1.034   8.958  20.449  0.00  0.00    +0.000 A 
ATOM      8  C   UNL     1       0.678   8.519  21.734  0.00  0.00    +0.000 A 
ATOM      9  C   UNL     1      -0.082   9.326  22.587  0.00  0.00    +0.000 A 
ATOM     10  C   UNL     1      -0.498  10.586  22.168  0.00  0.00    +0.000 A 
ATOM     11  C   UNL     1      -0.158  11.038  20.895  0.00  0.00    +0.000 A 
ATOM     12  C   UNL     1       0.600  10.230  20.042  0.00  0.00    +0.000 A 
ENDBRANCH   5   7
ENDBRANCH   1   2
BRANCH   1  13
ATOM     13  S   UNL     1       5.582   5.212  19.225  0.00  0.00    +0.000 S 
BRANCH  13  21
ATOM     14  C   UNL     1       5.764   2.982  11.753  0.00  0.00    +0.000 C 
ATOM     15  C   UNL     1       6.293   3.816  12.891  0.00  0.00    +0.000 C 
ATOM     16  O   UNL     1       7.334   4.454  12.759  0.00  0.00    +0.000 OA
ATOM     17  N   UNL     1       5.491   3.750  14.010  0.00  0.00    +0.000 N 
ATOM     18  C   UNL     1       5.793   4.442  15.151  0.00  0.00    +0.000 A 
ATOM     19  N   UNL     1       6.685   5.379  15.331  0.00  0.00    +0.000 NA
ATOM     20  C   UNL     1       6.697   5.751  16.660  0.00  0.00    +0.000 A 
ATOM     21  C   UNL     1       5.814   5.080  17.486  0.00  0.00    +0.000 A 
ATOM     22  S   UNL     1       4.878   4.000  16.523  0.00  0.00    +0.000 S 
ATOM     23  H   UNL     1       4.718   3.103  14.056  0.00  0.00    +0.000 HD
ENDBRANCH  13  21
ENDBRANCH   1  13
TORSDOF 4
ENDMDL
MODEL 9
REMARK VINA RESULT:      -6.9      3.694      6.527
REMARK  Name = 
REMARK  5 active torsions:
REMARK  status: ('A' for Active; 'I' for Inactive)
REMARK    1  A    between atoms: C_1  and  C_2
REMARK    2  A    between atoms: C_8  and  S_9
REMARK    3  A    between atoms: S_9  and  C_10
REMARK    4  A    between atoms: C_10  and  C_11
REMARK    5  A    between atoms: C_14  and  C_15
REMARK                            x       y       z     vdW  Elec       q    Type
REMARK                         _______ _______ _______ _____ _____    ______ ____
ROOT
ATOM      1  C   UNL     1       7.060   5.154  15.741  0.00  0.00    +0.000 C 
ENDROOT
BRANCH   1   2
ATOM      2  C   UNL     1       7.395   5.914  16.976  0.00  0.00    +0.000 A 
ATOM      3  N   UNL     1       7.603   5.456  18.195  0.00  0.00    +0.000 NA
ATOM      4  C   UNL     1       7.996   6.567  18.899  0.00  0.00    +0.000 A 
ATOM      5  C   UNL     1       8.023   7.675  18.080  0.00  0.00    +0.000 A 
ATOM      6  O   UNL     1       7.631   7.256  16.830  0.00  0.00    +0.000 OA
BRANCH   5   7
ATOM      7  C   UNL     1       8.383   9.079  18.237  0.00  0.00    +0.000 A 
ATOM      8  C   UNL     1       9.290   9.474  19.231  0.00  0.00    +0.000 A 
ATOM      9  C   UNL     1       9.659  10.816  19.380  0.00  0.00    +0.000 A 
ATOM     10  C   UNL     1       9.123  11.783  18.535  0.00  0.00    +0.000 A 
ATOM     11  C   UNL     1       8.218  11.411  17.544  0.00  0.00    +0.000 A 
ATOM     12  C   UNL     1       7.849  10.071  17.397  0.00  0.00    +0.000 A 
ENDBRANCH   5   7
ENDBRANCH   1   2
BRANCH   1  13
ATOM     13  S   UNL     1       5.318   5.334  15.257  0.00  0.00    +0.000 S 
BRANCH  13  21
ATOM     14  C   UNL     1       1.325   2.778  21.451  0.00  0.00    +0.000 C 
ATOM     15  C   UNL     1       1.811   3.899  20.569  0.00  0.00    +0.000 C 
ATOM     16  O   UNL     1       1.372   5.036  20.716  0.00  0.00    +0.000 OA
ATOM     17  N   UNL     1       2.747   3.478  19.649  0.00  0.00    +0.000 N 
ATOM     18  C   UNL     1       3.319   4.346  18.759  0.00  0.00    +0.000 A 
ATOM     19  N   UNL     1       3.271   5.651  18.738  0.00  0.00    +0.000 NA
ATOM     20  C   UNL     1       3.933   6.116  17.621  0.00  0.00    +0.000 A 
ATOM     21  C   UNL     1       4.474   5.152  16.791  0.00  0.00    +0.000 A 
ATOM     22  S   UNL     1       4.204   3.604  17.501  0.00  0.00    +0.000 S 
ATOM     23  H   UNL     1       2.954   2.497  19.532  0.00  0.00    +0.000 HD
ENDBRANCH  13  21
ENDBRANCH   1  13
TORSDOF 4
ENDMDL
