MODEL 1
REMARK VINA RESULT:      -6.8      0.000      0.000
REMARK  Name = 
REMARK  6 active torsions:
REMARK  status: ('A' for Active; 'I' for Inactive)
REMARK    1  A    between atoms: C_1  and  C_2
REMARK    2  A    between atoms: C_5  and  C_6
REMARK    3  A    between atoms: C_6  and  C_7
REMARK    4  A    between atoms: C_7  and  N_8
REMARK    5  A    between atoms: C_12  and  C_13
REMARK    6  A    between atoms: C_13  and  O_15
REMARK                            x       y       z     vdW  Elec       q    Type
REMARK                         _______ _______ _______ _____ _____    ______ ____
ROOT
ATOM      1  C   UNL     1       3.792   4.609  19.468  0.00  0.00    +0.000 C 
ENDROOT
BRANCH   1   2
ATOM      2  N   UNL     1       2.321   4.724  19.665  0.00  0.00    +0.000 NA
ATOM      3  C   UNL     1       1.999   4.848  21.109  0.00  0.00    +0.000 C 
ATOM      4  C   UNL     1       2.031   3.428  21.648  0.00  0.00    +0.000 C 
ATOM      5  C   UNL     1       1.416   2.612  20.528  0.00  0.00    +0.000 C 
ATOM      6  C   UNL     1       1.532   3.497  19.289  0.00  0.00    +0.000 C 
BRANCH   6   7
ATOM      7  C   UNL     1       1.995   2.785  18.021  0.00  0.00    +0.000 C 
ATOM      8  O   UNL     1       1.982   3.257  16.894  0.00  0.00    +0.000 OA
BRANCH   7   9
ATOM      9  O   UNL     1       2.517   1.560  18.291  0.00  0.00    +0.000 OA
ATOM     10  H   UNL     1       1.988   0.869  17.839  0.00  0.00    +0.000 HD
ENDBRANCH   7   9
ENDBRANCH   6   7
ENDBRANCH   1   2
BRANCH   1  11
ATOM     11  C   UNL     1       4.366   5.772  18.617  0.00  0.00    +0.000 C 
BRANCH  11  16
ATOM     12  C   UNL     1       6.422   4.078  13.431  0.00  0.00    +0.000 C 
ATOM     13  C   UNL     1       5.902   4.523  14.766  0.00  0.00    +0.000 A 
ATOM     14  C   UNL     1       5.496   5.844  14.977  0.00  0.00    +0.000 A 
ATOM     15  C   UNL     1       5.002   6.248  16.217  0.00  0.00    +0.000 A 
ATOM     16  C   UNL     1       4.896   5.335  17.272  0.00  0.00    +0.000 A 
ATOM     17  C   UNL     1       5.320   4.016  17.067  0.00  0.00    +0.000 A 
ATOM     18  C   UNL     1       5.821   3.612  15.826  0.00  0.00    +0.000 A 
ENDBRANCH  11  16
ENDBRANCH   1  11
TORSDOF 5
ENDMDL
MODEL 2
REMARK VINA RESULT:      -6.8      0.085      1.171
REMARK  Name = 
REMARK  6 active torsions:
REMARK  status: ('A' for Active; 'I' for Inactive)
REMARK    1  A    between atoms: C_1  and  C_2
REMARK    2  A    between atoms: C_5  and  C_6
REMARK    3  A    between atoms: C_6  and  C_7
REMARK    4  A    between atoms: C_7  and  N_8
REMARK    5  A    between atoms: C_12  and  C_13
REMARK    6  A    between atoms: C_13  and  O_15
REMARK                            x       y       z     vdW  Elec       q    Type
REMARK                         _______ _______ _______ _____ _____    ______ ____
ROOT
ATOM      1  C   UNL     1       3.854   4.538  19.506  0.00  0.00    +0.000 C 
ENDROOT
BRANCH   1   2
ATOM      2  N   UNL     1       2.379   4.682  19.653  0.00  0.00    +0.000 NA
ATOM      3  C   UNL     1       2.014   4.837  21.084  0.00  0.00    +0.000 C 
ATOM      4  C   UNL     1       2.003   3.426  21.648  0.00  0.00    +0.000 C 
ATOM      5  C   UNL     1       1.410   2.601  20.521  0.00  0.00    +0.000 C 
ATOM      6  C   UNL     1       1.581   3.462  19.272  0.00  0.00    +0.000 C 
BRANCH   6   7
ATOM      7  C   UNL     1       2.073   2.720  18.032  0.00  0.00    +0.000 C 
ATOM      8  O   UNL     1       2.089   3.166  16.896  0.00  0.00    +0.000 OA
BRANCH   7   9
ATOM      9  O   UNL     1       2.582   1.500  18.343  0.00  0.00    +0.000 OA
ATOM     10  H   UNL     1       3.356   1.310  17.770  0.00  0.00    +0.000 HD
ENDBRANCH   7   9
ENDBRANCH   6   7
ENDBRANCH   1   2
BRANCH   1  11
ATOM     11  C   UNL     1       4.483   5.704  18.700  0.00  0.00    +0.000 C 
BRANCH  11  16
ATOM     12  C   UNL     1       6.391   4.142  13.417  0.00  0.00    +0.000 C 
ATOM     13  C   UNL     1       5.890   4.534  14.775  0.00  0.00    +0.000 A 
ATOM     14  C   UNL     1       5.857   3.611  15.825  0.00  0.00    +0.000 A 
ATOM     15  C   UNL     1       5.403   3.986  17.089  0.00  0.00    +0.000 A 
ATOM     16  C   UNL     1       4.980   5.298  17.333  0.00  0.00    +0.000 A 
ATOM     17  C   UNL     1       4.996   6.218  16.277  0.00  0.00    +0.000 A 
ATOM     18  C   UNL     1       5.445   5.841  15.008  0.00  0.00    +0.000 A 
ENDBRANCH  11  16
ENDBRANCH   1  11
TORSDOF 5
ENDMDL
MODEL 3
REMARK VINA RESULT:      -6.6      2.249      3.337
REMARK  Name = 
REMARK  6 active torsions:
REMARK  status: ('A' for Active; 'I' for Inactive)
REMARK    1  A    between atoms: C_1  and  C_2
REMARK    2  A    between atoms: C_5  and  C_6
REMARK    3  A    between atoms: C_6  and  C_7
REMARK    4  A    between atoms: C_7  and  N_8
REMARK    5  A    between atoms: C_12  and  C_13
REMARK    6  A    between atoms: C_13  and  O_15
REMARK                            x       y       z     vdW  Elec       q    Type
REMARK                         _______ _______ _______ _____ _____    ______ ____
ROOT
ATOM      1  C   UNL     1       3.172   3.684  17.303  0.00  0.00    +0.000 C 
ENDROOT
BRANCH   1   2
ATOM      2  N   UNL     1       3.146   3.074  18.661  0.00  0.00    +0.000 NA
ATOM      3  C   UNL     1       2.196   1.932  18.698  0.00  0.00    +0.000 C 
ATOM      4  C   UNL     1       0.825   2.561  18.876  0.00  0.00    +0.000 C 
ATOM      5  C   UNL     1       1.085   3.709  19.832  0.00  0.00    +0.000 C 
ATOM      6  C   UNL     1       2.589   3.959  19.744  0.00  0.00    +0.000 C 
BRANCH   6   7
ATOM      7  C   UNL     1       3.000   5.427  19.666  0.00  0.00    +0.000 C 
ATOM      8  O   UNL     1       2.279   6.351  19.324  0.00  0.00    +0.000 OA
BRANCH   7   9
ATOM      9  O   UNL     1       4.271   5.620  20.105  0.00  0.00    +0.000 OA
ATOM     10  H   UNL     1       4.673   6.377  19.630  0.00  0.00    +0.000 HD
ENDBRANCH   7   9
ENDBRANCH   6   7
ENDBRANCH   1   2
BRANCH   1  11
ATOM     11  C   UNL     1       4.576   3.603  16.648  0.00  0.00    +0.000 C 
BRANCH  11  16
ATOM     12  C   UNL     1       8.005   8.153  17.887  0.00  0.00    +0.000 C 
ATOM     13  C   UNL     1       7.133   6.977  17.561  0.00  0.00    +0.000 A 
ATOM     14  C   UNL     1       7.503   5.681  17.933  0.00  0.00    +0.000 A 
ATOM     15  C   UNL     1       6.681   4.593  17.639  0.00  0.00    +0.000 A 
ATOM     16  C   UNL     1       5.465   4.780  16.972  0.00  0.00    +0.000 A 
ATOM     17  C   UNL     1       5.102   6.076  16.583  0.00  0.00    +0.000 A 
ATOM     18  C   UNL     1       5.929   7.166  16.872  0.00  0.00    +0.000 A 
ENDBRANCH  11  16
ENDBRANCH   1  11
TORSDOF 5
ENDMDL
MODEL 4
REMARK VINA RESULT:      -6.6      2.539      3.617
REMARK  Name = 
REMARK  6 active torsions:
REMARK  status: ('A' for Active; 'I' for Inactive)
REMARK    1  A    between atoms: C_1  and  C_2
REMARK    2  A    between atoms: C_5  and  C_6
REMARK    3  A    between atoms: C_6  and  C_7
REMARK    4  A    between atoms: C_7  and  N_8
REMARK    5  A    between atoms: C_12  and  C_13
REMARK    6  A    between atoms: C_13  and  O_15
REMARK                            x       y       z     vdW  Elec       q    Type
REMARK                         _______ _______ _______ _____ _____    ______ ____
ROOT
ATOM      1  C   UNL     1       4.252   3.786  19.436  0.00  0.00    +0.000 C 
ENDROOT
BRANCH   1   2
ATOM      2  N   UNL     1       3.589   2.464  19.608  0.00  0.00    +0.000 NA
ATOM      3  C   UNL     1       3.497   1.757  18.305  0.00  0.00    +0.000 C 
ATOM      4  C   UNL     1       2.284   2.354  17.613  0.00  0.00    +0.000 C 
ATOM      5  C   UNL     1       1.293   2.551  18.744  0.00  0.00    +0.000 C 
ATOM      6  C   UNL     1       2.140   2.528  20.015  0.00  0.00    +0.000 C 
BRANCH   6   7
ATOM      7  C   UNL     1       1.797   3.601  21.045  0.00  0.00    +0.000 C 
ATOM      8  O   UNL     1       1.195   4.639  20.818  0.00  0.00    +0.000 OA
BRANCH   7   9
ATOM      9  O   UNL     1       2.171   3.235  22.299  0.00  0.00    +0.000 OA
ATOM     10  H   UNL     1       1.402   3.300  22.904  0.00  0.00    +0.000 HD
ENDBRANCH   7   9
ENDBRANCH   6   7
ENDBRANCH   1   2
BRANCH   1  11
ATOM     11  C   UNL     1       5.350   3.757  18.340  0.00  0.00    +0.000 C 
BRANCH  11  16
ATOM     12  C   UNL     1       8.189   8.812  17.725  0.00  0.00    +0.000 C 
ATOM     13  C   UNL     1       7.469   7.506  17.879  0.00  0.00    +0.000 A 
ATOM     14  C   UNL     1       7.968   6.503  18.717  0.00  0.00    +0.000 A 
ATOM     15  C   UNL     1       7.287   5.295  18.866  0.00  0.00    +0.000 A 
ATOM     16  C   UNL     1       6.086   5.066  18.185  0.00  0.00    +0.000 A 
ATOM     17  C   UNL     1       5.596   6.063  17.331  0.00  0.00    +0.000 A 
ATOM     18  C   UNL     1       6.281   7.272  17.177  0.00  0.00    +0.000 A 
ENDBRANCH  11  16
ENDBRANCH   1  11
TORSDOF 5
ENDMDL
MODEL 5
REMARK VINA RESULT:      -6.6      1.808      2.713
REMARK  Name = 
REMARK  6 active torsions:
REMARK  status: ('A' for Active; 'I' for Inactive)
REMARK    1  A    between atoms: C_1  and  C_2
REMARK    2  A    between atoms: C_5  and  C_6
REMARK    3  A    between atoms: C_6  and  C_7
REMARK    4  A    between atoms: C_7  and  N_8
REMARK    5  A    between atoms: C_12  and  C_13
REMARK    6  A    between atoms: C_13  and  O_15
REMARK                            x       y       z     vdW  Elec       q    Type
REMARK                         _______ _______ _______ _____ _____    ______ ____
ROOT
ATOM      1  C   UNL     1       3.527   4.646  19.330  0.00  0.00    +0.000 C 
ENDROOT
BRANCH   1   2
ATOM      2  N   UNL     1       3.639   3.166  19.447  0.00  0.00    +0.000 NA
ATOM      3  C   UNL     1       3.766   2.549  18.103  0.00  0.00    +0.000 C 
ATOM      4  C   UNL     1       2.347   2.469  17.565  0.00  0.00    +0.000 C 
ATOM      5  C   UNL     1       1.526   2.105  18.788  0.00  0.00    +0.000 C 
ATOM      6  C   UNL     1       2.409   2.476  19.977  0.00  0.00    +0.000 C 
BRANCH   6   7
ATOM      7  C   UNL     1       1.695   3.197  21.118  0.00  0.00    +0.000 C 
ATOM      8  O   UNL     1       2.077   3.247  22.277  0.00  0.00    +0.000 OA
BRANCH   7   9
ATOM      9  O   UNL     1       0.596   3.867  20.683  0.00  0.00    +0.000 OA
ATOM     10  H   UNL     1       0.843   4.460  19.943  0.00  0.00    +0.000 HD
ENDBRANCH   7   9
ENDBRANCH   6   7
ENDBRANCH   1   2
BRANCH   1  11
ATOM     11  C   UNL     1       4.911   5.334  19.206  0.00  0.00    +0.000 C 
BRANCH  11  16
ATOM     12  C   UNL     1       7.220   4.967  13.864  0.00  0.00    +0.000 C 
ATOM     13  C   UNL     1       6.626   5.048  15.239  0.00  0.00    +0.000 A 
ATOM     14  C   UNL     1       7.304   4.531  16.348  0.00  0.00    +0.000 A 
ATOM     15  C   UNL     1       6.753   4.622  17.626  0.00  0.00    +0.000 A 
ATOM     16  C   UNL     1       5.513   5.240  17.824  0.00  0.00    +0.000 A 
ATOM     17  C   UNL     1       4.825   5.740  16.711  0.00  0.00    +0.000 A 
ATOM     18  C   UNL     1       5.374   5.644  15.429  0.00  0.00    +0.000 A 
ENDBRANCH  11  16
ENDBRANCH   1  11
TORSDOF 5
ENDMDL
MODEL 6
REMARK VINA RESULT:      -6.6      0.969      1.013
REMARK  Name = 
REMARK  6 active torsions:
REMARK  status: ('A' for Active; 'I' for Inactive)
REMARK    1  A    between atoms: C_1  and  C_2
REMARK    2  A    between atoms: C_5  and  C_6
REMARK    3  A    between atoms: C_6  and  C_7
REMARK    4  A    between atoms: C_7  and  N_8
REMARK    5  A    between atoms: C_12  and  C_13
REMARK    6  A    between atoms: C_13  and  O_15
REMARK                            x       y       z     vdW  Elec       q    Type
REMARK                         _______ _______ _______ _____ _____    ______ ____
ROOT
ATOM      1  C   UNL     1       4.071   3.876  19.596  0.00  0.00    +0.000 C 
ENDROOT
BRANCH   1   2
ATOM      2  N   UNL     1       2.723   4.479  19.789  0.00  0.00    +0.000 NA
ATOM      3  C   UNL     1       2.438   4.657  21.235  0.00  0.00    +0.000 C 
ATOM      4  C   UNL     1       1.975   3.293  21.720  0.00  0.00    +0.000 C 
ATOM      5  C   UNL     1       1.139   2.774  20.566  0.00  0.00    +0.000 C 
ATOM      6  C   UNL     1       1.571   3.608  19.362  0.00  0.00    +0.000 C 
BRANCH   6   7
ATOM      7  C   UNL     1       1.786   2.824  18.071  0.00  0.00    +0.000 C 
ATOM      8  O   UNL     1       1.862   3.304  16.951  0.00  0.00    +0.000 OA
BRANCH   7   9
ATOM      9  O   UNL     1       1.973   1.500  18.309  0.00  0.00    +0.000 OA
ATOM     10  H   UNL     1       2.127   1.355  19.266  0.00  0.00    +0.000 HD
ENDBRANCH   7   9
ENDBRANCH   6   7
ENDBRANCH   1   2
BRANCH   1  11
ATOM     11  C   UNL     1       5.156   4.943  19.297  0.00  0.00    +0.000 C 
BRANCH  11  16
ATOM     12  C   UNL     1       7.137   4.811  13.814  0.00  0.00    +0.000 C 
ATOM     13  C   UNL     1       6.623   4.857  15.222  0.00  0.00    +0.000 A 
ATOM     14  C   UNL     1       5.261   5.032  15.486  0.00  0.00    +0.000 A 
ATOM     15  C   UNL     1       4.787   5.061  16.798  0.00  0.00    +0.000 A 
ATOM     16  C   UNL     1       5.666   4.907  17.876  0.00  0.00    +0.000 A 
ATOM     17  C   UNL     1       7.033   4.750  17.612  0.00  0.00    +0.000 A 
ATOM     18  C   UNL     1       7.509   4.727  16.298  0.00  0.00    +0.000 A 
ENDBRANCH  11  16
ENDBRANCH   1  11
TORSDOF 5
ENDMDL
MODEL 7
REMARK VINA RESULT:      -6.6      2.317      3.525
REMARK  Name = 
REMARK  6 active torsions:
REMARK  status: ('A' for Active; 'I' for Inactive)
REMARK    1  A    between atoms: C_1  and  C_2
REMARK    2  A    between atoms: C_5  and  C_6
REMARK    3  A    between atoms: C_6  and  C_7
REMARK    4  A    between atoms: C_7  and  N_8
REMARK    5  A    between atoms: C_12  and  C_13
REMARK    6  A    between atoms: C_13  and  O_15
REMARK                            x       y       z     vdW  Elec       q    Type
REMARK                         _______ _______ _______ _____ _____    ______ ____
ROOT
ATOM      1  C   UNL     1       4.261   3.062  19.051  0.00  0.00    +0.000 C 
ENDROOT
BRANCH   1   2
ATOM      2  N   UNL     1       2.908   2.451  18.936  0.00  0.00    +0.000 NA
ATOM      3  C   UNL     1       2.320   2.741  17.604  0.00  0.00    +0.000 C 
ATOM      4  C   UNL     1       1.754   4.147  17.715  0.00  0.00    +0.000 C 
ATOM      5  C   UNL     1       1.181   4.186  19.119  0.00  0.00    +0.000 C 
ATOM      6  C   UNL     1       1.867   3.037  19.855  0.00  0.00    +0.000 C 
BRANCH   6   7
ATOM      7  C   UNL     1       2.349   3.363  21.266  0.00  0.00    +0.000 C 
ATOM      8  O   UNL     1       2.711   2.548  22.100  0.00  0.00    +0.000 OA
BRANCH   7   9
ATOM      9  O   UNL     1       2.415   4.702  21.481  0.00  0.00    +0.000 OA
ATOM     10  H   UNL     1       2.200   5.180  20.652  0.00  0.00    +0.000 HD
ENDBRANCH   7   9
ENDBRANCH   6   7
ENDBRANCH   1   2
BRANCH   1  11
ATOM     11  C   UNL     1       4.866   3.419  17.668  0.00  0.00    +0.000 C 
BRANCH  11  16
ATOM     12  C   UNL     1       7.931   8.380  17.655  0.00  0.00    +0.000 C 
ATOM     13  C   UNL     1       7.152   7.098  17.652  0.00  0.00    +0.000 A 
ATOM     14  C   UNL     1       7.658   5.946  18.264  0.00  0.00    +0.000 A 
ATOM     15  C   UNL     1       6.923   4.761  18.269  0.00  0.00    +0.000 A 
ATOM     16  C   UNL     1       5.661   4.703  17.668  0.00  0.00    +0.000 A 
ATOM     17  C   UNL     1       5.162   5.851  17.039  0.00  0.00    +0.000 A 
ATOM     18  C   UNL     1       5.901   7.038  17.028  0.00  0.00    +0.000 A 
ENDBRANCH  11  16
ENDBRANCH   1  11
TORSDOF 5
ENDMDL
MODEL 8
REMARK VINA RESULT:      -6.6      3.148      6.156
REMARK  Name = 
REMARK  6 active torsions:
REMARK  status: ('A' for Active; 'I' for Inactive)
REMARK    1  A    between atoms: C_1  and  C_2
REMARK    2  A    between atoms: C_5  and  C_6
REMARK    3  A    between atoms: C_6  and  C_7
REMARK    4  A    between atoms: C_7  and  N_8
REMARK    5  A    between atoms: C_12  and  C_13
REMARK    6  A    between atoms: C_13  and  O_15
REMARK                            x       y       z     vdW  Elec       q    Type
REMARK                         _______ _______ _______ _____ _____    ______ ____
ROOT
ATOM      1  C   UNL     1       4.725   6.683  17.661  0.00  0.00    +0.000 C 
ENDROOT
BRANCH   1   2
ATOM      2  N   UNL     1       5.521   6.389  16.438  0.00  0.00    +0.000 NA
ATOM      3  C   UNL     1       5.087   5.104  15.834  0.00  0.00    +0.000 C 
ATOM      4  C   UNL     1       5.794   4.026  16.639  0.00  0.00    +0.000 C 
ATOM      5  C   UNL     1       7.162   4.624  16.903  0.00  0.00    +0.000 C 
ATOM      6  C   UNL     1       6.984   6.124  16.680  0.00  0.00    +0.000 C 
BRANCH   6   7
ATOM      7  C   UNL     1       7.646   7.020  17.724  0.00  0.00    +0.000 C 
ATOM      8  O   UNL     1       8.087   6.650  18.802  0.00  0.00    +0.000 OA
BRANCH   7   9
ATOM      9  O   UNL     1       7.773   8.299  17.286  0.00  0.00    +0.000 OA
ATOM     10  H   UNL     1       8.303   8.313  16.460  0.00  0.00    +0.000 HD
ENDBRANCH   7   9
ENDBRANCH   6   7
ENDBRANCH   1   2
BRANCH   1  11
ATOM     11  C   UNL     1       3.223   6.341  17.483  0.00  0.00    +0.000 C 
BRANCH  11  16
ATOM     12  C   UNL     1       1.180   2.661  21.518  0.00  0.00    +0.000 C 
ATOM     13  C   UNL     1       1.712   3.598  20.475  0.00  0.00    +0.000 A 
ATOM     14  C   UNL     1       1.449   3.388  19.117  0.00  0.00    +0.000 A 
ATOM     15  C   UNL     1       1.935   4.270  18.153  0.00  0.00    +0.000 A 
ATOM     16  C   UNL     1       2.691   5.388  18.526  0.00  0.00    +0.000 A 
ATOM     17  C   UNL     1       2.970   5.588  19.884  0.00  0.00    +0.000 A 
ATOM     18  C   UNL     1       2.488   4.700  20.851  0.00  0.00    +0.000 A 
ENDBRANCH  11  16
ENDBRANCH   1  11
TORSDOF 5
ENDMDL
MODEL 9
REMARK VINA RESULT:      -6.5      2.538      5.453
REMARK  Name = 
REMARK  6 active torsions:
REMARK  status: ('A' for Active; 'I' for Inactive)
REMARK    1  A    between atoms: C_1  and  C_2
REMARK    2  A    between atoms: C_5  and  C_6
REMARK    3  A    between atoms: C_6  and  C_7
REMARK    4  A    between atoms: C_7  and  N_8
REMARK    5  A    between atoms: C_12  and  C_13
REMARK    6  A    between atoms: C_13  and  O_15
REMARK                            x       y       z     vdW  Elec       q    Type
REMARK                         _______ _______ _______ _____ _____    ______ ____
ROOT
ATOM      1  C   UNL     1       5.180   6.630  17.436  0.00  0.00    +0.000 C 
ENDROOT
BRANCH   1   2
ATOM      2  N   UNL     1       5.494   5.256  17.916  0.00  0.00    +0.000 NA
ATOM      3  C   UNL     1       6.187   5.311  19.229  0.00  0.00    +0.000 C 
ATOM      4  C   UNL     1       7.641   5.604  18.900  0.00  0.00    +0.000 C 
ATOM      5  C   UNL     1       7.889   4.792  17.643  0.00  0.00    +0.000 C 
ATOM      6  C   UNL     1       6.498   4.505  17.081  0.00  0.00    +0.000 C 
BRANCH   6   7
ATOM      7  C   UNL     1       6.357   4.682  15.572  0.00  0.00    +0.000 C 
ATOM      8  O   UNL     1       5.398   4.332  14.901  0.00  0.00    +0.000 OA
BRANCH   7   9
ATOM      9  O   UNL     1       7.405   5.365  15.043  0.00  0.00    +0.000 OA
ATOM     10  H   UNL     1       7.351   5.345  14.064  0.00  0.00    +0.000 HD
ENDBRANCH   7   9
ENDBRANCH   6   7
ENDBRANCH   1   2
BRANCH   1  11
ATOM     11  C   UNL     1       3.675   6.974  17.578  0.00  0.00    +0.000 C 
BRANCH  11  16
ATOM     12  C   UNL     1       0.646   3.043  20.638  0.00  0.00    +0.000 C 
ATOM     13  C   UNL     1       1.416   4.063  19.854  0.00  0.00    +0.000 A 
ATOM     14  C   UNL     1       1.934   5.206  20.472  0.00  0.00    +0.000 A 
ATOM     15  C   UNL     1       2.661   6.144  19.740  0.00  0.00    +0.000 A 
ATOM     16  C   UNL     1       2.893   5.956  18.373  0.00  0.00    +0.000 A 
ATOM     17  C   UNL     1       2.358   4.822  17.749  0.00  0.00    +0.000 A 
ATOM     18  C   UNL     1       1.624   3.884  18.482  0.00  0.00    +0.000 A 
ENDBRANCH  11  16
ENDBRANCH   1  11
TORSDOF 5
ENDMDL
