MODEL 1
REMARK VINA RESULT:      -8.9      0.000      0.000
REMARK  Name = 
REMARK  10 active torsions:
REMARK  status: ('A' for Active; 'I' for Inactive)
REMARK    1  A    between atoms: C_1  and  C_2
REMARK    2  A    between atoms: C_2  and  C_3
REMARK    3  A    between atoms: C_2  and  C_4
REMARK    4  A    between atoms: C_2  and  C_5
REMARK    5  A    between atoms: C_6  and  C_7
REMARK    6  A    between atoms: C_7  and  O_9
REMARK    7  A    between atoms: C_13  and  C_14
REMARK    8  A    between atoms: C_14  and  N_15
REMARK    9  A    between atoms: C_16  and  C_18
REMARK   10  A    between atoms: C_18  and  C_19
REMARK                            x       y       z     vdW  Elec       q    Type
REMARK                         _______ _______ _______ _____ _____    ______ ____
ROOT
ATOM      1  C   UNL     1       3.681   4.391  19.504  0.00  0.00    +0.000 C 
ATOM      2  C   UNL     1       4.166   3.416  18.705  0.00  0.00    +0.000 C 
ATOM      3  N   UNL     1       5.442   3.745  18.254  0.00  0.00    +0.000 N 
ATOM      4  C   UNL     1       5.579   4.265  16.998  0.00  0.00    +0.000 C 
ATOM      5  O   UNL     1       5.334   3.738  15.933  0.00  0.00    +0.000 OA
ATOM      6  C   UNL     1       5.923   5.666  17.515  0.00  0.00    +0.000 C 
ATOM      7  C   UNL     1       5.739   5.030  18.916  0.00  0.00    +0.000 C 
ATOM      8  O   UNL     1       4.603   5.460  19.696  0.00  0.00    +0.000 OA
ENDROOT
BRANCH   1  10
ATOM      9  C   UNL     1       2.032   6.113  20.583  0.00  0.00    +0.000 C 
ATOM     10  C   UNL     1       2.338   4.661  20.191  0.00  0.00    +0.000 C 
ATOM     11  C   UNL     1       2.302   3.830  21.497  0.00  0.00    +0.000 C 
ATOM     12  C   UNL     1       1.192   4.176  19.278  0.00  0.00    +0.000 C 
ENDBRANCH   1  10
BRANCH   2  13
ATOM     13  C   UNL     1       3.554   2.128  18.254  0.00  0.00    +0.000 C 
ATOM     14  O   UNL     1       2.516   2.043  17.621  0.00  0.00    +0.000 OA
BRANCH  13  15
ATOM     15  O   UNL     1       4.209   1.019  18.667  0.00  0.00    +0.000 OA
ATOM     16  H   UNL     1       4.215   0.847  19.635  0.00  0.00    +0.000 HD
ENDBRANCH  13  15
ENDBRANCH   2  13
BRANCH   6  17
ATOM     17  C   UNL     1       7.286   6.149  17.094  0.00  0.00    +0.000 C 
BRANCH  17  18
ATOM     18  N   UNL     1       7.285   7.600  17.108  0.00  0.00    +0.000 N 
ATOM     19  C   UNL     1       8.053   8.260  18.053  0.00  0.00    +0.000 C 
ATOM     20  O   UNL     1       8.704   7.667  18.909  0.00  0.00    +0.000 OA
ATOM     21  H   UNL     1       7.105   8.115  16.251  0.00  0.00    +0.000 HD
BRANCH  19  22
ATOM     22  C   UNL     1       8.001   9.775  17.962  0.00  0.00    +0.000 C 
BRANCH  22  23
ATOM     23  C   UNL     1       9.158  10.511  18.598  0.00  0.00    +0.000 A 
ATOM     24  C   UNL     1      10.110  11.123  17.766  0.00  0.00    +0.000 A 
ATOM     25  C   UNL     1      11.175  11.847  18.306  0.00  0.00    +0.000 A 
ATOM     26  C   UNL     1      11.295  11.980  19.686  0.00  0.00    +0.000 A 
ATOM     27  C   UNL     1      10.341  11.408  20.523  0.00  0.00    +0.000 A 
ATOM     28  C   UNL     1       9.271  10.686  19.984  0.00  0.00    +0.000 A 
ENDBRANCH  22  23
ENDBRANCH  19  22
ENDBRANCH  17  18
ENDBRANCH   6  17
TORSDOF 7
ENDMDL
MODEL 2
REMARK VINA RESULT:      -8.5      0.534      1.003
REMARK  Name = 
REMARK  10 active torsions:
REMARK  status: ('A' for Active; 'I' for Inactive)
REMARK    1  A    between atoms: C_1  and  C_2
REMARK    2  A    between atoms: C_2  and  C_3
REMARK    3  A    between atoms: C_2  and  C_4
REMARK    4  A    between atoms: C_2  and  C_5
REMARK    5  A    between atoms: C_6  and  C_7
REMARK    6  A    between atoms: C_7  and  O_9
REMARK    7  A    between atoms: C_13  and  C_14
REMARK    8  A    between atoms: C_14  and  N_15
REMARK    9  A    between atoms: C_16  and  C_18
REMARK   10  A    between atoms: C_18  and  C_19
REMARK                            x       y       z     vdW  Elec       q    Type
REMARK                         _______ _______ _______ _____ _____    ______ ____
ROOT
ATOM      1  C   UNL     1       3.686   4.688  19.346  0.00  0.00    +0.000 C 
ATOM      2  C   UNL     1       4.282   3.637  18.741  0.00  0.00    +0.000 C 
ATOM      3  N   UNL     1       5.564   3.980  18.320  0.00  0.00    +0.000 N 
ATOM      4  C   UNL     1       5.757   4.309  17.008  0.00  0.00    +0.000 C 
ATOM      5  O   UNL     1       5.618   3.609  16.027  0.00  0.00    +0.000 OA
ATOM      6  C   UNL     1       5.981   5.793  17.317  0.00  0.00    +0.000 C 
ATOM      7  C   UNL     1       5.738   5.369  18.787  0.00  0.00    +0.000 C 
ATOM      8  O   UNL     1       4.527   5.835  19.420  0.00  0.00    +0.000 OA
ENDROOT
BRANCH   1  10
ATOM      9  C   UNL     1       1.875   4.219  21.176  0.00  0.00    +0.000 C 
ATOM     10  C   UNL     1       2.285   4.967  19.900  0.00  0.00    +0.000 C 
ATOM     11  C   UNL     1       1.260   4.578  18.806  0.00  0.00    +0.000 C 
ATOM     12  C   UNL     1       2.140   6.478  20.182  0.00  0.00    +0.000 C 
ENDBRANCH   1  10
BRANCH   2  13
ATOM     13  C   UNL     1       3.779   2.256  18.463  0.00  0.00    +0.000 C 
ATOM     14  O   UNL     1       3.000   1.650  19.177  0.00  0.00    +0.000 OA
BRANCH  13  15
ATOM     15  O   UNL     1       4.317   1.673  17.368  0.00  0.00    +0.000 OA
ATOM     16  H   UNL     1       3.836   0.898  17.001  0.00  0.00    +0.000 HD
ENDBRANCH  13  15
ENDBRANCH   2  13
BRANCH   6  17
ATOM     17  C   UNL     1       7.339   6.299  16.906  0.00  0.00    +0.000 C 
BRANCH  17  18
ATOM     18  N   UNL     1       7.341   7.746  17.006  0.00  0.00    +0.000 N 
ATOM     19  C   UNL     1       8.085   8.346  18.010  0.00  0.00    +0.000 C 
ATOM     20  O   UNL     1       8.710   7.701  18.847  0.00  0.00    +0.000 OA
ATOM     21  H   UNL     1       7.186   8.312  16.177  0.00  0.00    +0.000 HD
BRANCH  19  22
ATOM     22  C   UNL     1       8.039   9.864  18.008  0.00  0.00    +0.000 C 
BRANCH  22  23
ATOM     23  C   UNL     1       9.216  10.558  18.655  0.00  0.00    +0.000 A 
ATOM     24  C   UNL     1      10.243  11.053  17.835  0.00  0.00    +0.000 A 
ATOM     25  C   UNL     1      11.332  11.735  18.383  0.00  0.00    +0.000 A 
ATOM     26  C   UNL     1      11.402  11.942  19.758  0.00  0.00    +0.000 A 
ATOM     27  C   UNL     1      10.375  11.485  20.580  0.00  0.00    +0.000 A 
ATOM     28  C   UNL     1       9.281  10.806  20.032  0.00  0.00    +0.000 A 
ENDBRANCH  22  23
ENDBRANCH  19  22
ENDBRANCH  17  18
ENDBRANCH   6  17
TORSDOF 7
ENDMDL
MODEL 3
REMARK VINA RESULT:      -8.0      4.485      6.971
REMARK  Name = 
REMARK  10 active torsions:
REMARK  status: ('A' for Active; 'I' for Inactive)
REMARK    1  A    between atoms: C_1  and  C_2
REMARK    2  A    between atoms: C_2  and  C_3
REMARK    3  A    between atoms: C_2  and  C_4
REMARK    4  A    between atoms: C_2  and  C_5
REMARK    5  A    between atoms: C_6  and  C_7
REMARK    6  A    between atoms: C_7  and  O_9
REMARK    7  A    between atoms: C_13  and  C_14
REMARK    8  A    between atoms: C_14  and  N_15
REMARK    9  A    between atoms: C_16  and  C_18
REMARK   10  A    between atoms: C_18  and  C_19
REMARK                            x       y       z     vdW  Elec       q    Type
REMARK                         _______ _______ _______ _____ _____    ______ ____
ROOT
ATOM      1  C   UNL     1       2.885   4.549  19.372  0.00  0.00    +0.000 C 
ATOM      2  C   UNL     1       4.078   4.967  18.898  0.00  0.00    +0.000 C 
ATOM      3  N   UNL     1       4.091   6.353  18.766  0.00  0.00    +0.000 N 
ATOM      4  C   UNL     1       3.881   6.897  17.530  0.00  0.00    +0.000 C 
ATOM      5  O   UNL     1       4.566   6.792  16.534  0.00  0.00    +0.000 OA
ATOM      6  C   UNL     1       2.490   7.426  17.897  0.00  0.00    +0.000 C 
ATOM      7  C   UNL     1       2.773   6.778  19.276  0.00  0.00    +0.000 C 
ATOM      8  O   UNL     1       1.987   5.623  19.639  0.00  0.00    +0.000 OA
ENDROOT
BRANCH   1  10
ATOM      9  C   UNL     1       2.104   2.245  18.408  0.00  0.00    +0.000 C 
ATOM     10  C   UNL     1       2.234   3.183  19.616  0.00  0.00    +0.000 C 
ATOM     11  C   UNL     1       0.799   3.433  20.143  0.00  0.00    +0.000 C 
ATOM     12  C   UNL     1       3.024   2.430  20.706  0.00  0.00    +0.000 C 
ENDBRANCH   1  10
BRANCH   2  13
ATOM     13  C   UNL     1       5.297   4.196  18.502  0.00  0.00    +0.000 C 
ATOM     14  O   UNL     1       6.365   4.248  19.086  0.00  0.00    +0.000 OA
BRANCH  13  15
ATOM     15  O   UNL     1       5.157   3.465  17.373  0.00  0.00    +0.000 OA
ATOM     16  H   UNL     1       5.833   2.770  17.212  0.00  0.00    +0.000 HD
ENDBRANCH  13  15
ENDBRANCH   2  13
BRANCH   6  17
ATOM     17  C   UNL     1       2.365   8.924  17.794  0.00  0.00    +0.000 C 
BRANCH  17  18
ATOM     18  N   UNL     1       1.025   9.302  18.200  0.00  0.00    +0.000 N 
ATOM     19  C   UNL     1       0.797  10.602  18.622  0.00  0.00    +0.000 C 
ATOM     20  O   UNL     1       1.692  11.438  18.708  0.00  0.00    +0.000 OA
ATOM     21  H   UNL     1       0.221   8.821  17.808  0.00  0.00    +0.000 HD
BRANCH  19  22
ATOM     22  C   UNL     1      -0.644  10.900  18.998  0.00  0.00    +0.000 C 
BRANCH  22  23
ATOM     23  C   UNL     1      -0.911  11.106  20.471  0.00  0.00    +0.000 A 
ATOM     24  C   UNL     1      -1.810  12.113  20.862  0.00  0.00    +0.000 A 
ATOM     25  C   UNL     1      -2.117  12.316  22.209  0.00  0.00    +0.000 A 
ATOM     26  C   UNL     1      -1.540  11.507  23.183  0.00  0.00    +0.000 A 
ATOM     27  C   UNL     1      -0.673  10.483  22.809  0.00  0.00    +0.000 A 
ATOM     28  C   UNL     1      -0.367  10.276  21.460  0.00  0.00    +0.000 A 
ENDBRANCH  22  23
ENDBRANCH  19  22
ENDBRANCH  17  18
ENDBRANCH   6  17
TORSDOF 7
ENDMDL
MODEL 4
REMARK VINA RESULT:      -8.0      4.843      7.745
REMARK  Name = 
REMARK  10 active torsions:
REMARK  status: ('A' for Active; 'I' for Inactive)
REMARK    1  A    between atoms: C_1  and  C_2
REMARK    2  A    between atoms: C_2  and  C_3
REMARK    3  A    between atoms: C_2  and  C_4
REMARK    4  A    between atoms: C_2  and  C_5
REMARK    5  A    between atoms: C_6  and  C_7
REMARK    6  A    between atoms: C_7  and  O_9
REMARK    7  A    between atoms: C_13  and  C_14
REMARK    8  A    between atoms: C_14  and  N_15
REMARK    9  A    between atoms: C_16  and  C_18
REMARK   10  A    between atoms: C_18  and  C_19
REMARK                            x       y       z     vdW  Elec       q    Type
REMARK                         _______ _______ _______ _____ _____    ______ ____
ROOT
ATOM      1  C   UNL     1       2.937   4.556  19.543  0.00  0.00    +0.000 C 
ATOM      2  C   UNL     1       4.079   5.042  19.010  0.00  0.00    +0.000 C 
ATOM      3  N   UNL     1       4.011   6.428  18.895  0.00  0.00    +0.000 N 
ATOM      4  C   UNL     1       3.706   6.971  17.679  0.00  0.00    +0.000 C 
ATOM      5  O   UNL     1       4.341   6.912  16.647  0.00  0.00    +0.000 OA
ATOM      6  C   UNL     1       2.311   7.421  18.126  0.00  0.00    +0.000 C 
ATOM      7  C   UNL     1       2.702   6.776  19.480  0.00  0.00    +0.000 C 
ATOM      8  O   UNL     1       1.999   5.578  19.871  0.00  0.00    +0.000 OA
ENDROOT
BRANCH   1  10
ATOM      9  C   UNL     1       3.306   2.141  20.481  0.00  0.00    +0.000 C 
ATOM     10  C   UNL     1       2.373   3.155  19.804  0.00  0.00    +0.000 C 
ATOM     11  C   UNL     1       1.971   2.548  18.438  0.00  0.00    +0.000 C 
ATOM     12  C   UNL     1       1.104   3.271  20.675  0.00  0.00    +0.000 C 
ENDBRANCH   1  10
BRANCH   2  13
ATOM     13  C   UNL     1       5.314   4.341  18.541  0.00  0.00    +0.000 C 
ATOM     14  O   UNL     1       6.363   4.306  19.159  0.00  0.00    +0.000 OA
BRANCH  13  15
ATOM     15  O   UNL     1       5.213   3.789  17.311  0.00  0.00    +0.000 OA
ATOM     16  H   UNL     1       5.901   3.131  17.065  0.00  0.00    +0.000 HD
ENDBRANCH  13  15
ENDBRANCH   2  13
BRANCH   6  17
ATOM     17  C   UNL     1       2.102   8.911  18.047  0.00  0.00    +0.000 C 
BRANCH  17  18
ATOM     18  N   UNL     1       0.764   9.213  18.522  0.00  0.00    +0.000 N 
ATOM     19  C   UNL     1       0.396  10.538  18.686  0.00  0.00    +0.000 C 
ATOM     20  O   UNL     1       1.170  11.470  18.486  0.00  0.00    +0.000 OA
ATOM     21  H   UNL     1       0.003   8.566  18.339  0.00  0.00    +0.000 HD
BRANCH  19  22
ATOM     22  C   UNL     1      -1.032  10.743  19.159  0.00  0.00    +0.000 C 
BRANCH  22  23
ATOM     23  C   UNL     1      -2.080  10.821  18.074  0.00  0.00    +0.000 A 
ATOM     24  C   UNL     1      -1.861  10.130  16.871  0.00  0.00    +0.000 A 
ATOM     25  C   UNL     1      -2.817  10.140  15.853  0.00  0.00    +0.000 A 
ATOM     26  C   UNL     1      -4.012  10.831  16.029  0.00  0.00    +0.000 A 
ATOM     27  C   UNL     1      -4.258  11.494  17.229  0.00  0.00    +0.000 A 
ATOM     28  C   UNL     1      -3.303  11.481  18.251  0.00  0.00    +0.000 A 
ENDBRANCH  22  23
ENDBRANCH  19  22
ENDBRANCH  17  18
ENDBRANCH   6  17
TORSDOF 7
ENDMDL
MODEL 5
REMARK VINA RESULT:      -8.0      4.705      7.705
REMARK  Name = 
REMARK  10 active torsions:
REMARK  status: ('A' for Active; 'I' for Inactive)
REMARK    1  A    between atoms: C_1  and  C_2
REMARK    2  A    between atoms: C_2  and  C_3
REMARK    3  A    between atoms: C_2  and  C_4
REMARK    4  A    between atoms: C_2  and  C_5
REMARK    5  A    between atoms: C_6  and  C_7
REMARK    6  A    between atoms: C_7  and  O_9
REMARK    7  A    between atoms: C_13  and  C_14
REMARK    8  A    between atoms: C_14  and  N_15
REMARK    9  A    between atoms: C_16  and  C_18
REMARK   10  A    between atoms: C_18  and  C_19
REMARK                            x       y       z     vdW  Elec       q    Type
REMARK                         _______ _______ _______ _____ _____    ______ ____
ROOT
ATOM      1  C   UNL     1       3.421   4.328  18.921  0.00  0.00    +0.000 C 
ATOM      2  C   UNL     1       4.504   4.922  18.372  0.00  0.00    +0.000 C 
ATOM      3  N   UNL     1       4.393   6.307  18.455  0.00  0.00    +0.000 N 
ATOM      4  C   UNL     1       3.976   6.998  17.352  0.00  0.00    +0.000 C 
ATOM      5  O   UNL     1       4.525   7.102  16.275  0.00  0.00    +0.000 OA
ATOM      6  C   UNL     1       2.612   7.335  17.964  0.00  0.00    +0.000 C 
ATOM      7  C   UNL     1       3.128   6.527  19.182  0.00  0.00    +0.000 C 
ATOM      8  O   UNL     1       2.489   5.262  19.458  0.00  0.00    +0.000 OA
ENDROOT
BRANCH   1  10
ATOM      9  C   UNL     1       3.925   1.822  19.482  0.00  0.00    +0.000 C 
ATOM     10  C   UNL     1       2.915   2.886  19.030  0.00  0.00    +0.000 C 
ATOM     11  C   UNL     1       2.412   2.457  17.630  0.00  0.00    +0.000 C 
ATOM     12  C   UNL     1       1.722   2.837  20.008  0.00  0.00    +0.000 C 
ENDBRANCH   1  10
BRANCH   2  13
ATOM     13  C   UNL     1       5.712   4.334  17.716  0.00  0.00    +0.000 C 
ATOM     14  O   UNL     1       5.760   3.977  16.552  0.00  0.00    +0.000 OA
BRANCH  13  15
ATOM     15  O   UNL     1       6.767   4.150  18.543  0.00  0.00    +0.000 OA
ATOM     16  H   UNL     1       6.595   3.647  19.370  0.00  0.00    +0.000 HD
ENDBRANCH  13  15
ENDBRANCH   2  13
BRANCH   6  17
ATOM     17  C   UNL     1       2.361   8.813  18.108  0.00  0.00    +0.000 C 
BRANCH  17  18
ATOM     18  N   UNL     1       1.004   9.005  18.586  0.00  0.00    +0.000 N 
ATOM     19  C   UNL     1       0.520  10.295  18.721  0.00  0.00    +0.000 C 
ATOM     20  O   UNL     1       1.205  11.288  18.493  0.00  0.00    +0.000 OA
ATOM     21  H   UNL     1       0.304   8.288  18.424  0.00  0.00    +0.000 HD
BRANCH  19  22
ATOM     22  C   UNL     1      -0.919  10.382  19.201  0.00  0.00    +0.000 C 
BRANCH  22  23
ATOM     23  C   UNL     1      -1.966  10.507  18.118  0.00  0.00    +0.000 A 
ATOM     24  C   UNL     1      -3.036  11.397  18.311  0.00  0.00    +0.000 A 
ATOM     25  C   UNL     1      -4.007  11.575  17.324  0.00  0.00    +0.000 A 
ATOM     26  C   UNL     1      -3.916  10.874  16.125  0.00  0.00    +0.000 A 
ATOM     27  C   UNL     1      -2.845  10.012  15.906  0.00  0.00    +0.000 A 
ATOM     28  C   UNL     1      -1.868   9.837  16.892  0.00  0.00    +0.000 A 
ENDBRANCH  22  23
ENDBRANCH  19  22
ENDBRANCH  17  18
ENDBRANCH   6  17
TORSDOF 7
ENDMDL
MODEL 6
REMARK VINA RESULT:      -8.0      4.278      6.737
REMARK  Name = 
REMARK  10 active torsions:
REMARK  status: ('A' for Active; 'I' for Inactive)
REMARK    1  A    between atoms: C_1  and  C_2
REMARK    2  A    between atoms: C_2  and  C_3
REMARK    3  A    between atoms: C_2  and  C_4
REMARK    4  A    between atoms: C_2  and  C_5
REMARK    5  A    between atoms: C_6  and  C_7
REMARK    6  A    between atoms: C_7  and  O_9
REMARK    7  A    between atoms: C_13  and  C_14
REMARK    8  A    between atoms: C_14  and  N_15
REMARK    9  A    between atoms: C_16  and  C_18
REMARK   10  A    between atoms: C_18  and  C_19
REMARK                            x       y       z     vdW  Elec       q    Type
REMARK                         _______ _______ _______ _____ _____    ______ ____
ROOT
ATOM      1  C   UNL     1       4.035   4.353  18.984  0.00  0.00    +0.000 C 
ATOM      2  C   UNL     1       5.102   4.914  18.375  0.00  0.00    +0.000 C 
ATOM      3  N   UNL     1       4.934   6.293  18.272  0.00  0.00    +0.000 N 
ATOM      4  C   UNL     1       4.508   6.814  17.082  0.00  0.00    +0.000 C 
ATOM      5  O   UNL     1       5.072   6.799  16.008  0.00  0.00    +0.000 OA
ATOM      6  C   UNL     1       3.121   7.169  17.628  0.00  0.00    +0.000 C 
ATOM      7  C   UNL     1       3.648   6.552  18.948  0.00  0.00    +0.000 C 
ATOM      8  O   UNL     1       3.056   5.308  19.381  0.00  0.00    +0.000 OA
ENDROOT
BRANCH   1  10
ATOM      9  C   UNL     1       4.557   2.028  20.068  0.00  0.00    +0.000 C 
ATOM     10  C   UNL     1       3.587   2.917  19.277  0.00  0.00    +0.000 C 
ATOM     11  C   UNL     1       3.345   2.213  17.918  0.00  0.00    +0.000 C 
ATOM     12  C   UNL     1       2.251   2.947  20.049  0.00  0.00    +0.000 C 
ENDBRANCH   1  10
BRANCH   2  13
ATOM     13  C   UNL     1       6.345   4.298  17.817  0.00  0.00    +0.000 C 
ATOM     14  O   UNL     1       7.433   4.325  18.365  0.00  0.00    +0.000 OA
BRANCH  13  15
ATOM     15  O   UNL     1       6.199   3.752  16.589  0.00  0.00    +0.000 OA
ATOM     16  H   UNL     1       5.278   3.586  16.287  0.00  0.00    +0.000 HD
ENDBRANCH  13  15
ENDBRANCH   2  13
BRANCH   6  17
ATOM     17  C   UNL     1       2.807   8.641  17.572  0.00  0.00    +0.000 C 
BRANCH  17  18
ATOM     18  N   UNL     1       1.459   8.843  18.071  0.00  0.00    +0.000 N 
ATOM     19  C   UNL     1       1.071  10.119  18.448  0.00  0.00    +0.000 C 
ATOM     20  O   UNL     1       1.834  11.080  18.417  0.00  0.00    +0.000 OA
ATOM     21  H   UNL     1       0.710   8.227  17.772  0.00  0.00    +0.000 HD
BRANCH  19  22
ATOM     22  C   UNL     1      -0.366  10.224  18.928  0.00  0.00    +0.000 C 
BRANCH  22  23
ATOM     23  C   UNL     1      -0.555  10.281  20.427  0.00  0.00    +0.000 A 
ATOM     24  C   UNL     1      -0.242   9.145  21.192  0.00  0.00    +0.000 A 
ATOM     25  C   UNL     1      -0.364   9.161  22.583  0.00  0.00    +0.000 A 
ATOM     26  C   UNL     1      -0.788  10.318  23.230  0.00  0.00    +0.000 A 
ATOM     27  C   UNL     1      -1.071  11.462  22.488  0.00  0.00    +0.000 A 
ATOM     28  C   UNL     1      -0.945  11.449  21.095  0.00  0.00    +0.000 A 
ENDBRANCH  22  23
ENDBRANCH  19  22
ENDBRANCH  17  18
ENDBRANCH   6  17
TORSDOF 7
ENDMDL
MODEL 7
REMARK VINA RESULT:      -7.9      4.847      7.760
REMARK  Name = 
REMARK  10 active torsions:
REMARK  status: ('A' for Active; 'I' for Inactive)
REMARK    1  A    between atoms: C_1  and  C_2
REMARK    2  A    between atoms: C_2  and  C_3
REMARK    3  A    between atoms: C_2  and  C_4
REMARK    4  A    between atoms: C_2  and  C_5
REMARK    5  A    between atoms: C_6  and  C_7
REMARK    6  A    between atoms: C_7  and  O_9
REMARK    7  A    between atoms: C_13  and  C_14
REMARK    8  A    between atoms: C_14  and  N_15
REMARK    9  A    between atoms: C_16  and  C_18
REMARK   10  A    between atoms: C_18  and  C_19
REMARK                            x       y       z     vdW  Elec       q    Type
REMARK                         _______ _______ _______ _____ _____    ______ ____
ROOT
ATOM      1  C   UNL     1       2.965   4.532  19.383  0.00  0.00    +0.000 C 
ATOM      2  C   UNL     1       4.096   5.044  18.852  0.00  0.00    +0.000 C 
ATOM      3  N   UNL     1       4.031   6.434  18.818  0.00  0.00    +0.000 N 
ATOM      4  C   UNL     1       3.700   7.046  17.641  0.00  0.00    +0.000 C 
ATOM      5  O   UNL     1       4.311   7.045  16.593  0.00  0.00    +0.000 OA
ATOM      6  C   UNL     1       2.318   7.474  18.145  0.00  0.00    +0.000 C 
ATOM      7  C   UNL     1       2.737   6.753  19.451  0.00  0.00    +0.000 C 
ATOM      8  O   UNL     1       2.039   5.536  19.790  0.00  0.00    +0.000 OA
ENDROOT
BRANCH   1  10
ATOM      9  C   UNL     1       2.242   2.251  18.323  0.00  0.00    +0.000 C 
ATOM     10  C   UNL     1       2.402   3.120  19.578  0.00  0.00    +0.000 C 
ATOM     11  C   UNL     1       0.993   3.258  20.207  0.00  0.00    +0.000 C 
ATOM     12  C   UNL     1       3.298   2.346  20.567  0.00  0.00    +0.000 C 
ENDBRANCH   1  10
BRANCH   2  13
ATOM     13  C   UNL     1       5.317   4.367  18.315  0.00  0.00    +0.000 C 
ATOM     14  O   UNL     1       5.379   3.820  17.229  0.00  0.00    +0.000 OA
BRANCH  13  15
ATOM     15  O   UNL     1       6.364   4.336  19.171  0.00  0.00    +0.000 OA
ATOM     16  H   UNL     1       6.264   4.842  20.008  0.00  0.00    +0.000 HD
ENDBRANCH  13  15
ENDBRANCH   2  13
BRANCH   6  17
ATOM     17  C   UNL     1       2.113   8.967  18.157  0.00  0.00    +0.000 C 
BRANCH  17  18
ATOM     18  N   UNL     1       0.755   9.241  18.587  0.00  0.00    +0.000 N 
ATOM     19  C   UNL     1       0.347  10.559  18.712  0.00  0.00    +0.000 C 
ATOM     20  O   UNL     1       1.101  11.508  18.515  0.00  0.00    +0.000 OA
ATOM     21  H   UNL     1       0.017   8.570  18.396  0.00  0.00    +0.000 HD
BRANCH  19  22
ATOM     22  C   UNL     1      -1.100  10.734  19.141  0.00  0.00    +0.000 C 
BRANCH  22  23
ATOM     23  C   UNL     1      -2.115  10.790  18.023  0.00  0.00    +0.000 A 
ATOM     24  C   UNL     1      -1.906  10.002  16.879  0.00  0.00    +0.000 A 
ATOM     25  C   UNL     1      -2.834   9.991  15.836  0.00  0.00    +0.000 A 
ATOM     26  C   UNL     1      -3.992  10.758  15.928  0.00  0.00    +0.000 A 
ATOM     27  C   UNL     1      -4.229  11.519  17.070  0.00  0.00    +0.000 A 
ATOM     28  C   UNL     1      -3.302  11.528  18.117  0.00  0.00    +0.000 A 
ENDBRANCH  22  23
ENDBRANCH  19  22
ENDBRANCH  17  18
ENDBRANCH   6  17
TORSDOF 7
ENDMDL
MODEL 8
REMARK VINA RESULT:      -7.9      4.481      6.759
REMARK  Name = 
REMARK  10 active torsions:
REMARK  status: ('A' for Active; 'I' for Inactive)
REMARK    1  A    between atoms: C_1  and  C_2
REMARK    2  A    between atoms: C_2  and  C_3
REMARK    3  A    between atoms: C_2  and  C_4
REMARK    4  A    between atoms: C_2  and  C_5
REMARK    5  A    between atoms: C_6  and  C_7
REMARK    6  A    between atoms: C_7  and  O_9
REMARK    7  A    between atoms: C_13  and  C_14
REMARK    8  A    between atoms: C_14  and  N_15
REMARK    9  A    between atoms: C_16  and  C_18
REMARK   10  A    between atoms: C_18  and  C_19
REMARK                            x       y       z     vdW  Elec       q    Type
REMARK                         _______ _______ _______ _____ _____    ______ ____
ROOT
ATOM      1  C   UNL     1       2.991   4.582  19.472  0.00  0.00    +0.000 C 
ATOM      2  C   UNL     1       4.167   4.955  18.923  0.00  0.00    +0.000 C 
ATOM      3  N   UNL     1       4.197   6.333  18.727  0.00  0.00    +0.000 N 
ATOM      4  C   UNL     1       3.937   6.823  17.478  0.00  0.00    +0.000 C 
ATOM      5  O   UNL     1       4.572   6.660  16.457  0.00  0.00    +0.000 OA
ATOM      6  C   UNL     1       2.574   7.394  17.884  0.00  0.00    +0.000 C 
ATOM      7  C   UNL     1       2.912   6.805  19.277  0.00  0.00    +0.000 C 
ATOM      8  O   UNL     1       2.125   5.683  19.731  0.00  0.00    +0.000 OA
ENDROOT
BRANCH   1  10
ATOM      9  C   UNL     1       1.073   3.282  20.690  0.00  0.00    +0.000 C 
ATOM     10  C   UNL     1       2.330   3.241  19.810  0.00  0.00    +0.000 C 
ATOM     11  C   UNL     1       3.373   2.378  20.562  0.00  0.00    +0.000 C 
ATOM     12  C   UNL     1       1.956   2.513  18.501  0.00  0.00    +0.000 C 
ENDBRANCH   1  10
BRANCH   2  13
ATOM     13  C   UNL     1       5.352   4.143  18.508  0.00  0.00    +0.000 C 
ATOM     14  O   UNL     1       6.470   4.265  18.978  0.00  0.00    +0.000 OA
BRANCH  13  15
ATOM     15  O   UNL     1       5.116   3.284  17.490  0.00  0.00    +0.000 OA
ATOM     16  H   UNL     1       5.904   2.936  17.016  0.00  0.00    +0.000 HD
ENDBRANCH  13  15
ENDBRANCH   2  13
BRANCH   6  17
ATOM     17  C   UNL     1       2.470   8.888  17.717  0.00  0.00    +0.000 C 
BRANCH  17  18
ATOM     18  N   UNL     1       1.165   9.313  18.188  0.00  0.00    +0.000 N 
ATOM     19  C   UNL     1       0.999  10.624  18.604  0.00  0.00    +0.000 C 
ATOM     20  O   UNL     1       1.923  11.432  18.631  0.00  0.00    +0.000 OA
ATOM     21  H   UNL     1       0.327   8.852  17.846  0.00  0.00    +0.000 HD
BRANCH  19  22
ATOM     22  C   UNL     1      -0.410  10.971  19.051  0.00  0.00    +0.000 C 
BRANCH  22  23
ATOM     23  C   UNL     1      -0.685  10.826  20.530  0.00  0.00    +0.000 A 
ATOM     24  C   UNL     1      -0.267   9.656  21.185  0.00  0.00    +0.000 A 
ATOM     25  C   UNL     1      -0.465   9.492  22.558  0.00  0.00    +0.000 A 
ATOM     26  C   UNL     1      -1.071  10.503  23.297  0.00  0.00    +0.000 A 
ATOM     27  C   UNL     1      -1.461  11.683  22.669  0.00  0.00    +0.000 A 
ATOM     28  C   UNL     1      -1.260  11.850  21.295  0.00  0.00    +0.000 A 
ENDBRANCH  22  23
ENDBRANCH  19  22
ENDBRANCH  17  18
ENDBRANCH   6  17
TORSDOF 7
ENDMDL
MODEL 9
REMARK VINA RESULT:      -7.8      4.315      7.617
REMARK  Name = 
REMARK  10 active torsions:
REMARK  status: ('A' for Active; 'I' for Inactive)
REMARK    1  A    between atoms: C_1  and  C_2
REMARK    2  A    between atoms: C_2  and  C_3
REMARK    3  A    between atoms: C_2  and  C_4
REMARK    4  A    between atoms: C_2  and  C_5
REMARK    5  A    between atoms: C_6  and  C_7
REMARK    6  A    between atoms: C_7  and  O_9
REMARK    7  A    between atoms: C_13  and  C_14
REMARK    8  A    between atoms: C_14  and  N_15
REMARK    9  A    between atoms: C_16  and  C_18
REMARK   10  A    between atoms: C_18  and  C_19
REMARK                            x       y       z     vdW  Elec       q    Type
REMARK                         _______ _______ _______ _____ _____    ______ ____
ROOT
ATOM      1  C   UNL     1       4.185   4.660  17.787  0.00  0.00    +0.000 C 
ATOM      2  C   UNL     1       3.644   3.629  18.471  0.00  0.00    +0.000 C 
ATOM      3  N   UNL     1       2.485   4.035  19.128  0.00  0.00    +0.000 N 
ATOM      4  C   UNL     1       2.557   4.335  20.459  0.00  0.00    +0.000 C 
ATOM      5  O   UNL     1       2.827   3.598  21.384  0.00  0.00    +0.000 OA
ATOM      6  C   UNL     1       2.376   5.838  20.226  0.00  0.00    +0.000 C 
ATOM      7  C   UNL     1       2.318   5.445  18.728  0.00  0.00    +0.000 C 
ATOM      8  O   UNL     1       3.420   5.857  17.891  0.00  0.00    +0.000 OA
ENDROOT
BRANCH   1  10
ATOM      9  C   UNL     1       6.801   4.661  17.733  0.00  0.00    +0.000 C 
ATOM     10  C   UNL     1       5.476   4.872  16.989  0.00  0.00    +0.000 C 
ATOM     11  C   UNL     1       5.479   6.334  16.479  0.00  0.00    +0.000 C 
ATOM     12  C   UNL     1       5.477   3.934  15.763  0.00  0.00    +0.000 C 
ENDBRANCH   1  10
BRANCH   2  13
ATOM     13  C   UNL     1       4.099   2.213  18.625  0.00  0.00    +0.000 C 
ATOM     14  O   UNL     1       3.673   1.277  17.970  0.00  0.00    +0.000 OA
BRANCH  13  15
ATOM     15  O   UNL     1       4.992   2.015  19.621  0.00  0.00    +0.000 OA
ATOM     16  H   UNL     1       4.645   1.617  20.451  0.00  0.00    +0.000 HD
ENDBRANCH  13  15
ENDBRANCH   2  13
BRANCH   6  17
ATOM     17  C   UNL     1       1.151   6.411  20.889  0.00  0.00    +0.000 C 
BRANCH  17  18
ATOM     18  N   UNL     1       1.350   7.837  21.069  0.00  0.00    +0.000 N 
ATOM     19  C   UNL     1       0.294   8.606  21.530  0.00  0.00    +0.000 C 
ATOM     20  O   UNL     1      -0.819   8.138  21.753  0.00  0.00    +0.000 OA
ATOM     21  H   UNL     1       2.277   8.198  21.272  0.00  0.00    +0.000 HD
BRANCH  19  22
ATOM     22  C   UNL     1       0.617  10.079  21.709  0.00  0.00    +0.000 C 
BRANCH  22  23
ATOM     23  C   UNL     1      -0.571  11.014  21.738  0.00  0.00    +0.000 A 
ATOM     24  C   UNL     1      -1.096  11.402  22.982  0.00  0.00    +0.000 A 
ATOM     25  C   UNL     1      -2.168  12.293  23.061  0.00  0.00    +0.000 A 
ATOM     26  C   UNL     1      -2.722  12.820  21.898  0.00  0.00    +0.000 A 
ATOM     27  C   UNL     1      -2.191  12.470  20.659  0.00  0.00    +0.000 A 
ATOM     28  C   UNL     1      -1.114  11.581  20.578  0.00  0.00    +0.000 A 
ENDBRANCH  22  23
ENDBRANCH  19  22
ENDBRANCH  17  18
ENDBRANCH   6  17
TORSDOF 7
ENDMDL
