MODEL 1
REMARK VINA RESULT:      -9.5      0.000      0.000
REMARK  Name = 
REMARK  6 active torsions:
REMARK  status: ('A' for Active; 'I' for Inactive)
REMARK    1  A    between atoms: C_1  and  C_2
REMARK    2  A    between atoms: C_5  and  C_6
REMARK    3  A    between atoms: C_8  and  C_9
REMARK    4  A    between atoms: N_11  and  N_12
REMARK    5  A    between atoms: N_23  and  C_24
REMARK    6  A    between atoms: C_24  and  C_25
REMARK                            x       y       z     vdW  Elec       q    Type
REMARK                         _______ _______ _______ _____ _____    ______ ____
ROOT
ATOM      1  C   UNL     1      -1.331  10.577  19.194  0.00  0.00    +0.000 A 
ATOM      2  C   UNL     1      -0.697   9.507  19.860  0.00  0.00    +0.000 A 
ATOM      3  C   UNL     1      -0.201  10.002  21.056  0.00  0.00    +0.000 A 
ATOM      4  N   UNL     1      -0.463  11.349  20.994  0.00  0.00    +0.000 N 
ATOM      5  N   UNL     1      -1.165  11.709  19.889  0.00  0.00    +0.000 NA
ENDROOT
BRANCH   1  10
ATOM      6  C   UNL     1      -4.250  10.482  14.205  0.00  0.00    +0.000 C 
ATOM      7  C   UNL     1      -3.525  10.475  15.517  0.00  0.00    +0.000 A 
ATOM      8  C   UNL     1      -3.957  11.274  16.580  0.00  0.00    +0.000 A 
ATOM      9  C   UNL     1      -3.243  11.300  17.781  0.00  0.00    +0.000 A 
ATOM     10  C   UNL     1      -2.085  10.528  17.942  0.00  0.00    +0.000 A 
ATOM     11  C   UNL     1      -1.673   9.706  16.883  0.00  0.00    +0.000 A 
ATOM     12  C   UNL     1      -2.385   9.681  15.681  0.00  0.00    +0.000 A 
ENDBRANCH   1  10
BRANCH   3  13
ATOM     13  C   UNL     1       0.455   9.290  22.142  0.00  0.00    +0.000 C 
ATOM     14  O   UNL     1      -0.005   9.230  23.280  0.00  0.00    +0.000 OA
ATOM     15  N   UNL     1       1.652   8.647  21.834  0.00  0.00    +0.000 N 
ATOM     16  H   UNL     1       2.183   8.145  22.543  0.00  0.00    +0.000 HD
BRANCH  15  17
ATOM     17  N   UNL     1       2.033   8.468  20.501  0.00  0.00    +0.000 N 
ATOM     18  C   UNL     1       2.080   7.144  20.017  0.00  0.00    +0.000 A 
ATOM     19  C   UNL     1       2.661   6.989  18.759  0.00  0.00    +0.000 A 
ATOM     20  C   UNL     1       2.783   5.720  18.218  0.00  0.00    +0.000 A 
ATOM     21  C   UNL     1       2.301   4.630  18.935  0.00  0.00    +0.000 A 
ATOM     22  C   UNL     1       2.400   3.331  18.414  0.00  0.00    +0.000 A 
ATOM     23  C   UNL     1       1.889   2.253  19.128  0.00  0.00    +0.000 A 
ATOM     24  C   UNL     1       1.282   2.474  20.360  0.00  0.00    +0.000 A 
ATOM     25  C   UNL     1       1.203   3.768  20.881  0.00  0.00    +0.000 A 
ATOM     26  C   UNL     1       1.707   4.868  20.199  0.00  0.00    +0.000 A 
ATOM     27  N   UNL     1       1.618   6.103  20.737  0.00  0.00    +0.000 NA
ATOM     28  H   UNL     1       1.502   9.055  19.854  0.00  0.00    +0.000 HD
ENDBRANCH  15  17
ENDBRANCH   3  13
BRANCH   4  29
ATOM     29  C   UNL     1      -0.108  12.392  21.951  0.00  0.00    +0.000 C 
BRANCH  29  30
ATOM     30  C   UNL     1      -1.274  12.816  22.815  0.00  0.00    +0.000 A 
ATOM     31  C   UNL     1      -1.336  14.119  23.328  0.00  0.00    +0.000 A 
ATOM     32  C   UNL     1      -2.445  14.541  24.066  0.00  0.00    +0.000 A 
ATOM     33  C   UNL     1      -3.502  13.663  24.307  0.00  0.00    +0.000 A 
ATOM     34  C   UNL     1      -3.450  12.363  23.813  0.00  0.00    +0.000 A 
ATOM     35  C   UNL     1      -2.346  11.943  23.068  0.00  0.00    +0.000 A 
ENDBRANCH  29  30
ENDBRANCH   4  29
TORSDOF 5
ENDMDL
MODEL 2
REMARK VINA RESULT:      -9.4      0.285      1.199
REMARK  Name = 
REMARK  6 active torsions:
REMARK  status: ('A' for Active; 'I' for Inactive)
REMARK    1  A    between atoms: C_1  and  C_2
REMARK    2  A    between atoms: C_5  and  C_6
REMARK    3  A    between atoms: C_8  and  C_9
REMARK    4  A    between atoms: N_11  and  N_12
REMARK    5  A    between atoms: N_23  and  C_24
REMARK    6  A    between atoms: C_24  and  C_25
REMARK                            x       y       z     vdW  Elec       q    Type
REMARK                         _______ _______ _______ _____ _____    ______ ____
ROOT
ATOM      1  C   UNL     1      -1.388  10.611  19.182  0.00  0.00    +0.000 A 
ATOM      2  C   UNL     1      -0.709   9.558  19.829  0.00  0.00    +0.000 A 
ATOM      3  C   UNL     1      -0.294  10.032  21.063  0.00  0.00    +0.000 A 
ATOM      4  N   UNL     1      -0.645  11.359  21.047  0.00  0.00    +0.000 N 
ATOM      5  N   UNL     1      -1.327  11.720  19.929  0.00  0.00    +0.000 NA
ENDROOT
BRANCH   1  10
ATOM      6  C   UNL     1      -4.218  10.337  14.148  0.00  0.00    +0.000 C 
ATOM      7  C   UNL     1      -3.452  10.438  15.433  0.00  0.00    +0.000 A 
ATOM      8  C   UNL     1      -2.326   9.642  15.662  0.00  0.00    +0.000 A 
ATOM      9  C   UNL     1      -1.650   9.706  16.883  0.00  0.00    +0.000 A 
ATOM     10  C   UNL     1      -2.087  10.567  17.898  0.00  0.00    +0.000 A 
ATOM     11  C   UNL     1      -3.199  11.384  17.653  0.00  0.00    +0.000 A 
ATOM     12  C   UNL     1      -3.877  11.320  16.433  0.00  0.00    +0.000 A 
ENDBRANCH   1  10
BRANCH   3  13
ATOM     13  C   UNL     1       0.366   9.318  22.145  0.00  0.00    +0.000 C 
ATOM     14  O   UNL     1      -0.099   9.238  23.280  0.00  0.00    +0.000 OA
ATOM     15  N   UNL     1       1.576   8.696  21.838  0.00  0.00    +0.000 N 
ATOM     16  H   UNL     1       2.110   8.195  22.545  0.00  0.00    +0.000 HD
BRANCH  15  17
ATOM     17  N   UNL     1       1.966   8.538  20.505  0.00  0.00    +0.000 N 
ATOM     18  C   UNL     1       2.040   7.220  20.008  0.00  0.00    +0.000 A 
ATOM     19  C   UNL     1       2.631   7.089  18.752  0.00  0.00    +0.000 A 
ATOM     20  C   UNL     1       2.779   5.828  18.199  0.00  0.00    +0.000 A 
ATOM     21  C   UNL     1       2.312   4.722  18.901  0.00  0.00    +0.000 A 
ATOM     22  C   UNL     1       2.437   3.430  18.368  0.00  0.00    +0.000 A 
ATOM     23  C   UNL     1       1.942   2.336  19.068  0.00  0.00    +0.000 A 
ATOM     24  C   UNL     1       1.325   2.533  20.299  0.00  0.00    +0.000 A 
ATOM     25  C   UNL     1       1.219   3.821  20.833  0.00  0.00    +0.000 A 
ATOM     26  C   UNL     1       1.707   4.936  20.165  0.00  0.00    +0.000 A 
ATOM     27  N   UNL     1       1.593   6.164  20.715  0.00  0.00    +0.000 NA
ATOM     28  H   UNL     1       1.429   9.122  19.861  0.00  0.00    +0.000 HD
ENDBRANCH  15  17
ENDBRANCH   3  13
BRANCH   4  29
ATOM     29  C   UNL     1      -0.400  12.381  22.060  0.00  0.00    +0.000 C 
BRANCH  29  30
ATOM     30  C   UNL     1      -1.670  12.875  22.713  0.00  0.00    +0.000 A 
ATOM     31  C   UNL     1      -2.543  11.970  23.335  0.00  0.00    +0.000 A 
ATOM     32  C   UNL     1      -3.681  12.426  24.005  0.00  0.00    +0.000 A 
ATOM     33  C   UNL     1      -3.966  13.790  24.056  0.00  0.00    +0.000 A 
ATOM     34  C   UNL     1      -3.113  14.700  23.436  0.00  0.00    +0.000 A 
ATOM     35  C   UNL     1      -1.971  14.247  22.774  0.00  0.00    +0.000 A 
ENDBRANCH  29  30
ENDBRANCH   4  29
TORSDOF 5
ENDMDL
MODEL 3
REMARK VINA RESULT:      -9.3      2.555      4.885
REMARK  Name = 
REMARK  6 active torsions:
REMARK  status: ('A' for Active; 'I' for Inactive)
REMARK    1  A    between atoms: C_1  and  C_2
REMARK    2  A    between atoms: C_5  and  C_6
REMARK    3  A    between atoms: C_8  and  C_9
REMARK    4  A    between atoms: N_11  and  N_12
REMARK    5  A    between atoms: N_23  and  C_24
REMARK    6  A    between atoms: C_24  and  C_25
REMARK                            x       y       z     vdW  Elec       q    Type
REMARK                         _______ _______ _______ _____ _____    ______ ____
ROOT
ATOM      1  C   UNL     1       0.804  12.219  19.555  0.00  0.00    +0.000 A 
ATOM      2  C   UNL     1       1.167  11.479  20.700  0.00  0.00    +0.000 A 
ATOM      3  C   UNL     1       0.392  10.330  20.710  0.00  0.00    +0.000 A 
ATOM      4  N   UNL     1      -0.459  10.492  19.646  0.00  0.00    +0.000 N 
ATOM      5  N   UNL     1      -0.210  11.615  18.924  0.00  0.00    +0.000 NA
ENDROOT
BRANCH   1  10
ATOM      6  C   UNL     1       3.148  17.088  17.501  0.00  0.00    +0.000 C 
ATOM      7  C   UNL     1       2.568  15.830  18.073  0.00  0.00    +0.000 A 
ATOM      8  C   UNL     1       3.231  14.607  17.937  0.00  0.00    +0.000 A 
ATOM      9  C   UNL     1       2.657  13.431  18.428  0.00  0.00    +0.000 A 
ATOM     10  C   UNL     1       1.409  13.457  19.064  0.00  0.00    +0.000 A 
ATOM     11  C   UNL     1       0.762  14.690  19.225  0.00  0.00    +0.000 A 
ATOM     12  C   UNL     1       1.335  15.866  18.733  0.00  0.00    +0.000 A 
ENDBRANCH   1  10
BRANCH   3  13
ATOM     13  C   UNL     1       0.442   9.199  21.624  0.00  0.00    +0.000 C 
ATOM     14  O   UNL     1      -0.293   9.093  22.603  0.00  0.00    +0.000 OA
ATOM     15  N   UNL     1       1.371   8.201  21.334  0.00  0.00    +0.000 N 
ATOM     16  H   UNL     1       1.482   7.388  21.936  0.00  0.00    +0.000 HD
BRANCH  15  17
ATOM     17  N   UNL     1       2.002   8.169  20.087  0.00  0.00    +0.000 N 
ATOM     18  C   UNL     1       2.199   6.903  19.497  0.00  0.00    +0.000 A 
ATOM     19  C   UNL     1       3.012   6.892  18.365  0.00  0.00    +0.000 A 
ATOM     20  C   UNL     1       3.290   5.689  17.739  0.00  0.00    +0.000 A 
ATOM     21  C   UNL     1       2.731   4.519  18.243  0.00  0.00    +0.000 A 
ATOM     22  C   UNL     1       2.983   3.282  17.630  0.00  0.00    +0.000 A 
ATOM     23  C   UNL     1       2.396   2.125  18.127  0.00  0.00    +0.000 A 
ATOM     24  C   UNL     1       1.560   2.203  19.236  0.00  0.00    +0.000 A 
ATOM     25  C   UNL     1       1.326   3.435  19.853  0.00  0.00    +0.000 A 
ATOM     26  C   UNL     1       1.900   4.611  19.387  0.00  0.00    +0.000 A 
ATOM     27  N   UNL     1       1.656   5.783  20.014  0.00  0.00    +0.000 NA
ATOM     28  H   UNL     1       1.577   8.805  19.409  0.00  0.00    +0.000 HD
ENDBRANCH  15  17
ENDBRANCH   3  13
BRANCH   4  29
ATOM     29  C   UNL     1      -1.545   9.621  19.205  0.00  0.00    +0.000 C 
BRANCH  29  30
ATOM     30  C   UNL     1      -2.299  10.179  18.019  0.00  0.00    +0.000 A 
ATOM     31  C   UNL     1      -1.962   9.781  16.718  0.00  0.00    +0.000 A 
ATOM     32  C   UNL     1      -2.701  10.235  15.622  0.00  0.00    +0.000 A 
ATOM     33  C   UNL     1      -3.780  11.097  15.812  0.00  0.00    +0.000 A 
ATOM     34  C   UNL     1      -4.121  11.507  17.098  0.00  0.00    +0.000 A 
ATOM     35  C   UNL     1      -3.390  11.048  18.195  0.00  0.00    +0.000 A 
ENDBRANCH  29  30
ENDBRANCH   4  29
TORSDOF 5
ENDMDL
MODEL 4
REMARK VINA RESULT:      -9.1      2.554      4.784
REMARK  Name = 
REMARK  6 active torsions:
REMARK  status: ('A' for Active; 'I' for Inactive)
REMARK    1  A    between atoms: C_1  and  C_2
REMARK    2  A    between atoms: C_5  and  C_6
REMARK    3  A    between atoms: C_8  and  C_9
REMARK    4  A    between atoms: N_11  and  N_12
REMARK    5  A    between atoms: N_23  and  C_24
REMARK    6  A    between atoms: C_24  and  C_25
REMARK                            x       y       z     vdW  Elec       q    Type
REMARK                         _______ _______ _______ _____ _____    ______ ____
ROOT
ATOM      1  C   UNL     1       0.741  12.152  19.459  0.00  0.00    +0.000 A 
ATOM      2  C   UNL     1       1.084  11.432  20.623  0.00  0.00    +0.000 A 
ATOM      3  C   UNL     1       0.341  10.263  20.618  0.00  0.00    +0.000 A 
ATOM      4  N   UNL     1      -0.478  10.393  19.523  0.00  0.00    +0.000 N 
ATOM      5  N   UNL     1      -0.233  11.515  18.800  0.00  0.00    +0.000 NA
ENDROOT
BRANCH   1  10
ATOM      6  C   UNL     1       3.113  17.111  17.667  0.00  0.00    +0.000 C 
ATOM      7  C   UNL     1       2.471  15.824  18.091  0.00  0.00    +0.000 A 
ATOM      8  C   UNL     1       1.219  15.817  18.713  0.00  0.00    +0.000 A 
ATOM      9  C   UNL     1       0.654  14.616  19.152  0.00  0.00    +0.000 A 
ATOM     10  C   UNL     1       1.330  13.402  18.977  0.00  0.00    +0.000 A 
ATOM     11  C   UNL     1       2.572  13.411  18.326  0.00  0.00    +0.000 A 
ATOM     12  C   UNL     1       3.138  14.611  17.889  0.00  0.00    +0.000 A 
ENDBRANCH   1  10
BRANCH   3  13
ATOM     13  C   UNL     1       0.389   9.142  21.543  0.00  0.00    +0.000 C 
ATOM     14  O   UNL     1      -0.372   9.028  22.502  0.00  0.00    +0.000 OA
ATOM     15  N   UNL     1       1.348   8.162  21.290  0.00  0.00    +0.000 N 
ATOM     16  H   UNL     1       1.459   7.357  21.903  0.00  0.00    +0.000 HD
BRANCH  15  17
ATOM     17  N   UNL     1       2.015   8.133  20.062  0.00  0.00    +0.000 N 
ATOM     18  C   UNL     1       2.220   6.868  19.471  0.00  0.00    +0.000 A 
ATOM     19  C   UNL     1       3.066   6.858  18.363  0.00  0.00    +0.000 A 
ATOM     20  C   UNL     1       3.354   5.656  17.738  0.00  0.00    +0.000 A 
ATOM     21  C   UNL     1       2.772   4.488  18.219  0.00  0.00    +0.000 A 
ATOM     22  C   UNL     1       3.034   3.253  17.606  0.00  0.00    +0.000 A 
ATOM     23  C   UNL     1       2.424   2.097  18.079  0.00  0.00    +0.000 A 
ATOM     24  C   UNL     1       1.556   2.175  19.163  0.00  0.00    +0.000 A 
ATOM     25  C   UNL     1       1.313   3.405  19.780  0.00  0.00    +0.000 A 
ATOM     26  C   UNL     1       1.909   4.580  19.339  0.00  0.00    +0.000 A 
ATOM     27  N   UNL     1       1.655   5.749  19.965  0.00  0.00    +0.000 NA
ATOM     28  H   UNL     1       1.614   8.775  19.375  0.00  0.00    +0.000 HD
ENDBRANCH  15  17
ENDBRANCH   3  13
BRANCH   4  29
ATOM     29  C   UNL     1      -1.524   9.489  19.053  0.00  0.00    +0.000 C 
BRANCH  29  30
ATOM     30  C   UNL     1      -2.341  10.075  17.925  0.00  0.00    +0.000 A 
ATOM     31  C   UNL     1      -3.389  10.964  18.200  0.00  0.00    +0.000 A 
ATOM     32  C   UNL     1      -4.101  11.567  17.159  0.00  0.00    +0.000 A 
ATOM     33  C   UNL     1      -3.780  11.283  15.832  0.00  0.00    +0.000 A 
ATOM     34  C   UNL     1      -2.747  10.395  15.544  0.00  0.00    +0.000 A 
ATOM     35  C   UNL     1      -2.029   9.798  16.582  0.00  0.00    +0.000 A 
ENDBRANCH  29  30
ENDBRANCH   4  29
TORSDOF 5
ENDMDL
MODEL 5
REMARK VINA RESULT:      -8.8      2.673      5.132
REMARK  Name = 
REMARK  6 active torsions:
REMARK  status: ('A' for Active; 'I' for Inactive)
REMARK    1  A    between atoms: C_1  and  C_2
REMARK    2  A    between atoms: C_5  and  C_6
REMARK    3  A    between atoms: C_8  and  C_9
REMARK    4  A    between atoms: N_11  and  N_12
REMARK    5  A    between atoms: N_23  and  C_24
REMARK    6  A    between atoms: C_24  and  C_25
REMARK                            x       y       z     vdW  Elec       q    Type
REMARK                         _______ _______ _______ _____ _____    ______ ____
ROOT
ATOM      1  C   UNL     1       1.462  12.174  19.567  0.00  0.00    +0.000 A 
ATOM      2  C   UNL     1       1.334  11.349  20.704  0.00  0.00    +0.000 A 
ATOM      3  C   UNL     1       0.630  10.221  20.316  0.00  0.00    +0.000 A 
ATOM      4  N   UNL     1       0.283  10.475  19.012  0.00  0.00    +0.000 N 
ATOM      5  N   UNL     1       0.797  11.639  18.538  0.00  0.00    +0.000 NA
ENDROOT
BRANCH   1  10
ATOM      6  C   UNL     1       4.497  17.081  19.184  0.00  0.00    +0.000 C 
ATOM      7  C   UNL     1       3.670  15.833  19.270  0.00  0.00    +0.000 A 
ATOM      8  C   UNL     1       2.906  15.554  20.407  0.00  0.00    +0.000 A 
ATOM      9  C   UNL     1       2.181  14.363  20.499  0.00  0.00    +0.000 A 
ATOM     10  C   UNL     1       2.206  13.429  19.455  0.00  0.00    +0.000 A 
ATOM     11  C   UNL     1       2.950  13.727  18.304  0.00  0.00    +0.000 A 
ATOM     12  C   UNL     1       3.677  14.917  18.213  0.00  0.00    +0.000 A 
ENDBRANCH   1  10
BRANCH   3  13
ATOM     13  C   UNL     1       0.312   9.028  21.087  0.00  0.00    +0.000 C 
ATOM     14  O   UNL     1      -0.657   8.953  21.839  0.00  0.00    +0.000 OA
ATOM     15  N   UNL     1       1.162   7.935  20.928  0.00  0.00    +0.000 N 
ATOM     16  H   UNL     1       1.020   7.072  21.448  0.00  0.00    +0.000 HD
BRANCH  15  17
ATOM     17  N   UNL     1       2.084   7.909  19.877  0.00  0.00    +0.000 N 
ATOM     18  C   UNL     1       2.401   6.648  19.330  0.00  0.00    +0.000 A 
ATOM     19  C   UNL     1       3.471   6.637  18.436  0.00  0.00    +0.000 A 
ATOM     20  C   UNL     1       3.876   5.438  17.875  0.00  0.00    +0.000 A 
ATOM     21  C   UNL     1       3.189   4.273  18.200  0.00  0.00    +0.000 A 
ATOM     22  C   UNL     1       3.565   3.041  17.644  0.00  0.00    +0.000 A 
ATOM     23  C   UNL     1       2.853   1.889  17.955  0.00  0.00    +0.000 A 
ATOM     24  C   UNL     1       1.767   1.968  18.821  0.00  0.00    +0.000 A 
ATOM     25  C   UNL     1       1.408   3.195  19.386  0.00  0.00    +0.000 A 
ATOM     26  C   UNL     1       2.100   4.366  19.102  0.00  0.00    +0.000 A 
ATOM     27  N   UNL     1       1.727   5.532  19.672  0.00  0.00    +0.000 NA
ATOM     28  H   UNL     1       1.853   8.564  19.128  0.00  0.00    +0.000 HD
ENDBRANCH  15  17
ENDBRANCH   3  13
BRANCH   4  29
ATOM     29  C   UNL     1      -0.524   9.662  18.107  0.00  0.00    +0.000 C 
BRANCH  29  30
ATOM     30  C   UNL     1      -1.817  10.336  17.710  0.00  0.00    +0.000 A 
ATOM     31  C   UNL     1      -2.345  10.148  16.425  0.00  0.00    +0.000 A 
ATOM     32  C   UNL     1      -3.577  10.707  16.074  0.00  0.00    +0.000 A 
ATOM     33  C   UNL     1      -4.291  11.468  16.999  0.00  0.00    +0.000 A 
ATOM     34  C   UNL     1      -3.775  11.671  18.276  0.00  0.00    +0.000 A 
ATOM     35  C   UNL     1      -2.549  11.106  18.631  0.00  0.00    +0.000 A 
ENDBRANCH  29  30
ENDBRANCH   4  29
TORSDOF 5
ENDMDL
MODEL 6
REMARK VINA RESULT:      -8.8      3.420      8.289
REMARK  Name = 
REMARK  6 active torsions:
REMARK  status: ('A' for Active; 'I' for Inactive)
REMARK    1  A    between atoms: C_1  and  C_2
REMARK    2  A    between atoms: C_5  and  C_6
REMARK    3  A    between atoms: C_8  and  C_9
REMARK    4  A    between atoms: N_11  and  N_12
REMARK    5  A    between atoms: N_23  and  C_24
REMARK    6  A    between atoms: C_24  and  C_25
REMARK                            x       y       z     vdW  Elec       q    Type
REMARK                         _______ _______ _______ _____ _____    ______ ____
ROOT
ATOM      1  C   UNL     1       1.110   9.511  19.482  0.00  0.00    +0.000 A 
ATOM      2  C   UNL     1       0.836  10.094  20.737  0.00  0.00    +0.000 A 
ATOM      3  C   UNL     1      -0.013  11.166  20.516  0.00  0.00    +0.000 A 
ATOM      4  N   UNL     1      -0.115  11.236  19.149  0.00  0.00    +0.000 N 
ATOM      5  N   UNL     1       0.538  10.231  18.510  0.00  0.00    +0.000 NA
ENDROOT
BRANCH   1  10
ATOM      6  C   UNL     1       4.259   4.772  18.457  0.00  0.00    +0.000 C 
ATOM      7  C   UNL     1       3.408   5.983  18.695  0.00  0.00    +0.000 A 
ATOM      8  C   UNL     1       3.376   7.031  17.771  0.00  0.00    +0.000 A 
ATOM      9  C   UNL     1       2.621   8.178  18.027  0.00  0.00    +0.000 A 
ATOM     10  C   UNL     1       1.882   8.298  19.211  0.00  0.00    +0.000 A 
ATOM     11  C   UNL     1       1.892   7.231  20.121  0.00  0.00    +0.000 A 
ATOM     12  C   UNL     1       2.650   6.085  19.866  0.00  0.00    +0.000 A 
ENDBRANCH   1  10
BRANCH   3  13
ATOM     13  C   UNL     1      -0.661  12.038  21.485  0.00  0.00    +0.000 C 
ATOM     14  O   UNL     1      -1.668  11.716  22.111  0.00  0.00    +0.000 OA
ATOM     15  N   UNL     1      -0.074  13.285  21.694  0.00  0.00    +0.000 N 
ATOM     16  H   UNL     1      -0.478  13.961  22.339  0.00  0.00    +0.000 HD
BRANCH  15  17
ATOM     17  N   UNL     1       1.212  13.547  21.210  0.00  0.00    +0.000 N 
ATOM     18  C   UNL     1       1.339  14.555  20.232  0.00  0.00    +0.000 A 
ATOM     19  C   UNL     1       2.590  14.643  19.625  0.00  0.00    +0.000 A 
ATOM     20  C   UNL     1       2.798  15.581  18.627  0.00  0.00    +0.000 A 
ATOM     21  C   UNL     1       1.756  16.430  18.271  0.00  0.00    +0.000 A 
ATOM     22  C   UNL     1       1.932  17.399  17.270  0.00  0.00    +0.000 A 
ATOM     23  C   UNL     1       0.892  18.260  16.942  0.00  0.00    +0.000 A 
ATOM     24  C   UNL     1      -0.323  18.153  17.612  0.00  0.00    +0.000 A 
ATOM     25  C   UNL     1      -0.498  17.174  18.595  0.00  0.00    +0.000 A 
ATOM     26  C   UNL     1       0.517  16.293  18.945  0.00  0.00    +0.000 A 
ATOM     27  N   UNL     1       0.309  15.357  19.895  0.00  0.00    +0.000 NA
ATOM     28  H   UNL     1       1.894  13.699  21.955  0.00  0.00    +0.000 HD
ENDBRANCH  15  17
ENDBRANCH   3  13
BRANCH   4  29
ATOM     29  C   UNL     1      -0.832  12.213  18.335  0.00  0.00    +0.000 C 
BRANCH  29  30
ATOM     30  C   UNL     1      -2.230  11.763  17.976  0.00  0.00    +0.000 A 
ATOM     31  C   UNL     1      -3.284  11.942  18.883  0.00  0.00    +0.000 A 
ATOM     32  C   UNL     1      -4.591  11.596  18.530  0.00  0.00    +0.000 A 
ATOM     33  C   UNL     1      -4.860  11.062  17.271  0.00  0.00    +0.000 A 
ATOM     34  C   UNL     1      -3.822  10.870  16.363  0.00  0.00    +0.000 A 
ATOM     35  C   UNL     1      -2.517  11.223  16.710  0.00  0.00    +0.000 A 
ENDBRANCH  29  30
ENDBRANCH   4  29
TORSDOF 5
ENDMDL
MODEL 7
REMARK VINA RESULT:      -8.8      2.438      7.044
REMARK  Name = 
REMARK  6 active torsions:
REMARK  status: ('A' for Active; 'I' for Inactive)
REMARK    1  A    between atoms: C_1  and  C_2
REMARK    2  A    between atoms: C_5  and  C_6
REMARK    3  A    between atoms: C_8  and  C_9
REMARK    4  A    between atoms: N_11  and  N_12
REMARK    5  A    between atoms: N_23  and  C_24
REMARK    6  A    between atoms: C_24  and  C_25
REMARK                            x       y       z     vdW  Elec       q    Type
REMARK                         _______ _______ _______ _____ _____    ______ ____
ROOT
ATOM      1  C   UNL     1       1.115   9.729  19.615  0.00  0.00    +0.000 A 
ATOM      2  C   UNL     1       0.717  10.564  18.551  0.00  0.00    +0.000 A 
ATOM      3  C   UNL     1       0.433  11.809  19.089  0.00  0.00    +0.000 A 
ATOM      4  N   UNL     1       0.568  11.626  20.443  0.00  0.00    +0.000 N 
ATOM      5  N   UNL     1       1.001  10.384  20.776  0.00  0.00    +0.000 NA
ENDROOT
BRANCH   1  10
ATOM      6  C   UNL     1       3.156   4.327  19.326  0.00  0.00    +0.000 C 
ATOM      7  C   UNL     1       2.587   5.713  19.378  0.00  0.00    +0.000 A 
ATOM      8  C   UNL     1       2.701   6.577  18.285  0.00  0.00    +0.000 A 
ATOM      9  C   UNL     1       2.213   7.885  18.363  0.00  0.00    +0.000 A 
ATOM     10  C   UNL     1       1.603   8.352  19.534  0.00  0.00    +0.000 A 
ATOM     11  C   UNL     1       1.464   7.472  20.617  0.00  0.00    +0.000 A 
ATOM     12  C   UNL     1       1.953   6.165  20.541  0.00  0.00    +0.000 A 
ENDBRANCH   1  10
BRANCH   3  13
ATOM     13  C   UNL     1       0.069  13.042  18.407  0.00  0.00    +0.000 C 
ATOM     14  O   UNL     1       0.689  14.094  18.543  0.00  0.00    +0.000 OA
ATOM     15  N   UNL     1      -1.034  12.984  17.556  0.00  0.00    +0.000 N 
ATOM     16  H   UNL     1      -1.365  13.808  17.059  0.00  0.00    +0.000 HD
BRANCH  15  17
ATOM     17  N   UNL     1      -1.564  11.747  17.176  0.00  0.00    +0.000 N 
ATOM     18  C   UNL     1      -2.852  11.425  17.652  0.00  0.00    +0.000 A 
ATOM     19  C   UNL     1      -3.258  10.110  17.431  0.00  0.00    +0.000 A 
ATOM     20  C   UNL     1      -4.494   9.692  17.895  0.00  0.00    +0.000 A 
ATOM     21  C   UNL     1      -5.312  10.604  18.553  0.00  0.00    +0.000 A 
ATOM     22  C   UNL     1      -6.575  10.220  19.030  0.00  0.00    +0.000 A 
ATOM     23  C   UNL     1      -7.395  11.148  19.661  0.00  0.00    +0.000 A 
ATOM     24  C   UNL     1      -6.953  12.458  19.817  0.00  0.00    +0.000 A 
ATOM     25  C   UNL     1      -5.687  12.830  19.356  0.00  0.00    +0.000 A 
ATOM     26  C   UNL     1      -4.839  11.928  18.726  0.00  0.00    +0.000 A 
ATOM     27  N   UNL     1      -3.620  12.324  18.299  0.00  0.00    +0.000 NA
ATOM     28  H   UNL     1      -1.518  11.587  16.168  0.00  0.00    +0.000 HD
ENDBRANCH  15  17
ENDBRANCH   3  13
BRANCH   4  29
ATOM     29  C   UNL     1       0.330  12.582  21.521  0.00  0.00    +0.000 C 
BRANCH  29  30
ATOM     30  C   UNL     1      -1.122  12.645  21.936  0.00  0.00    +0.000 A 
ATOM     31  C   UNL     1      -1.591  11.847  22.990  0.00  0.00    +0.000 A 
ATOM     32  C   UNL     1      -2.913  11.954  23.428  0.00  0.00    +0.000 A 
ATOM     33  C   UNL     1      -3.785  12.853  22.816  0.00  0.00    +0.000 A 
ATOM     34  C   UNL     1      -3.337  13.645  21.763  0.00  0.00    +0.000 A 
ATOM     35  C   UNL     1      -2.014  13.547  21.329  0.00  0.00    +0.000 A 
ENDBRANCH  29  30
ENDBRANCH   4  29
TORSDOF 5
ENDMDL
MODEL 8
REMARK VINA RESULT:      -8.7      2.611      4.827
REMARK  Name = 
REMARK  6 active torsions:
REMARK  status: ('A' for Active; 'I' for Inactive)
REMARK    1  A    between atoms: C_1  and  C_2
REMARK    2  A    between atoms: C_5  and  C_6
REMARK    3  A    between atoms: C_8  and  C_9
REMARK    4  A    between atoms: N_11  and  N_12
REMARK    5  A    between atoms: N_23  and  C_24
REMARK    6  A    between atoms: C_24  and  C_25
REMARK                            x       y       z     vdW  Elec       q    Type
REMARK                         _______ _______ _______ _____ _____    ______ ____
ROOT
ATOM      1  C   UNL     1       0.098  13.106  19.674  0.00  0.00    +0.000 A 
ATOM      2  C   UNL     1       0.448  12.548  20.922  0.00  0.00    +0.000 A 
ATOM      3  C   UNL     1       0.019  11.231  20.919  0.00  0.00    +0.000 A 
ATOM      4  N   UNL     1      -0.654  11.101  19.728  0.00  0.00    +0.000 N 
ATOM      5  N   UNL     1      -0.596  12.215  18.955  0.00  0.00    +0.000 NA
ENDROOT
BRANCH   1  10
ATOM      6  C   UNL     1       1.378  18.335  17.566  0.00  0.00    +0.000 C 
ATOM      7  C   UNL     1       1.060  16.994  18.156  0.00  0.00    +0.000 A 
ATOM      8  C   UNL     1       2.061  16.035  18.339  0.00  0.00    +0.000 A 
ATOM      9  C   UNL     1       1.746  14.769  18.841  0.00  0.00    +0.000 A 
ATOM     10  C   UNL     1       0.424  14.440  19.170  0.00  0.00    +0.000 A 
ATOM     11  C   UNL     1      -0.571  15.415  19.013  0.00  0.00    +0.000 A 
ATOM     12  C   UNL     1      -0.256  16.680  18.509  0.00  0.00    +0.000 A 
ENDBRANCH   1  10
BRANCH   3  13
ATOM     13  C   UNL     1       0.214  10.200  21.927  0.00  0.00    +0.000 C 
ATOM     14  O   UNL     1      -0.388  10.185  22.998  0.00  0.00    +0.000 OA
ATOM     15  N   UNL     1       1.126   9.191  21.621  0.00  0.00    +0.000 N 
ATOM     16  H   UNL     1       1.334   8.446  22.282  0.00  0.00    +0.000 HD
BRANCH  15  17
ATOM     17  N   UNL     1       1.594   9.040  20.313  0.00  0.00    +0.000 N 
ATOM     18  C   UNL     1       1.867   7.727  19.874  0.00  0.00    +0.000 A 
ATOM     19  C   UNL     1       2.526   7.632  18.650  0.00  0.00    +0.000 A 
ATOM     20  C   UNL     1       2.867   6.384  18.156  0.00  0.00    +0.000 A 
ATOM     21  C   UNL     1       2.521   5.251  18.884  0.00  0.00    +0.000 A 
ATOM     22  C   UNL     1       2.842   3.970  18.411  0.00  0.00    +0.000 A 
ATOM     23  C   UNL     1       2.466   2.844  19.135  0.00  0.00    +0.000 A 
ATOM     24  C   UNL     1       1.773   2.999  20.331  0.00  0.00    +0.000 A 
ATOM     25  C   UNL     1       1.472   4.279  20.806  0.00  0.00    +0.000 A 
ATOM     26  C   UNL     1       1.836   5.426  20.112  0.00  0.00    +0.000 A 
ATOM     27  N   UNL     1       1.533   6.646  20.606  0.00  0.00    +0.000 NA
ATOM     28  H   UNL     1       1.014   9.522  19.624  0.00  0.00    +0.000 HD
ENDBRANCH  15  17
ENDBRANCH   3  13
BRANCH   4  29
ATOM     29  C   UNL     1      -1.376   9.944  19.210  0.00  0.00    +0.000 C 
BRANCH  29  30
ATOM     30  C   UNL     1      -2.282  10.290  18.050  0.00  0.00    +0.000 A 
ATOM     31  C   UNL     1      -3.414  11.091  18.253  0.00  0.00    +0.000 A 
ATOM     32  C   UNL     1      -4.214  11.477  17.174  0.00  0.00    +0.000 A 
ATOM     33  C   UNL     1      -3.898  11.060  15.882  0.00  0.00    +0.000 A 
ATOM     34  C   UNL     1      -2.782  10.256  15.666  0.00  0.00    +0.000 A 
ATOM     35  C   UNL     1      -1.976   9.877  16.741  0.00  0.00    +0.000 A 
ENDBRANCH  29  30
ENDBRANCH   4  29
TORSDOF 5
ENDMDL
MODEL 9
REMARK VINA RESULT:      -8.7      2.463      5.107
REMARK  Name = 
REMARK  6 active torsions:
REMARK  status: ('A' for Active; 'I' for Inactive)
REMARK    1  A    between atoms: C_1  and  C_2
REMARK    2  A    between atoms: C_5  and  C_6
REMARK    3  A    between atoms: C_8  and  C_9
REMARK    4  A    between atoms: N_11  and  N_12
REMARK    5  A    between atoms: N_23  and  C_24
REMARK    6  A    between atoms: C_24  and  C_25
REMARK                            x       y       z     vdW  Elec       q    Type
REMARK                         _______ _______ _______ _____ _____    ______ ____
ROOT
ATOM      1  C   UNL     1       1.208  12.192  19.859  0.00  0.00    +0.000 A 
ATOM      2  C   UNL     1       1.072  11.316  20.956  0.00  0.00    +0.000 A 
ATOM      3  C   UNL     1       0.474  10.158  20.486  0.00  0.00    +0.000 A 
ATOM      4  N   UNL     1       0.187  10.439  19.173  0.00  0.00    +0.000 N 
ATOM      5  N   UNL     1       0.644  11.653  18.772  0.00  0.00    +0.000 NA
ENDROOT
BRANCH   1  10
ATOM      6  C   UNL     1       3.719  17.400  19.839  0.00  0.00    +0.000 C 
ATOM      7  C   UNL     1       3.097  16.036  19.808  0.00  0.00    +0.000 A 
ATOM      8  C   UNL     1       2.096  15.724  18.883  0.00  0.00    +0.000 A 
ATOM      9  C   UNL     1       1.486  14.467  18.898  0.00  0.00    +0.000 A 
ATOM     10  C   UNL     1       1.867  13.498  19.836  0.00  0.00    +0.000 A 
ATOM     11  C   UNL     1       2.892  13.806  20.741  0.00  0.00    +0.000 A 
ATOM     12  C   UNL     1       3.501  15.063  20.729  0.00  0.00    +0.000 A 
ENDBRANCH   1  10
BRANCH   3  13
ATOM     13  C   UNL     1       0.196   8.917  21.194  0.00  0.00    +0.000 C 
ATOM     14  O   UNL     1      -0.779   8.765  21.926  0.00  0.00    +0.000 OA
ATOM     15  N   UNL     1       1.094   7.870  20.996  0.00  0.00    +0.000 N 
ATOM     16  H   UNL     1       0.982   6.977  21.472  0.00  0.00    +0.000 HD
BRANCH  15  17
ATOM     17  N   UNL     1       2.031   7.934  19.960  0.00  0.00    +0.000 N 
ATOM     18  C   UNL     1       2.422   6.713  19.371  0.00  0.00    +0.000 A 
ATOM     19  C   UNL     1       3.504   6.794  18.495  0.00  0.00    +0.000 A 
ATOM     20  C   UNL     1       3.981   5.641  17.895  0.00  0.00    +0.000 A 
ATOM     21  C   UNL     1       3.353   4.429  18.165  0.00  0.00    +0.000 A 
ATOM     22  C   UNL     1       3.803   3.241  17.569  0.00  0.00    +0.000 A 
ATOM     23  C   UNL     1       3.150   2.041  17.824  0.00  0.00    +0.000 A 
ATOM     24  C   UNL     1       2.049   2.029  18.675  0.00  0.00    +0.000 A 
ATOM     25  C   UNL     1       1.617   3.213  19.280  0.00  0.00    +0.000 A 
ATOM     26  C   UNL     1       2.249   4.429  19.052  0.00  0.00    +0.000 A 
ATOM     27  N   UNL     1       1.806   5.551  19.659  0.00  0.00    +0.000 NA
ATOM     28  H   UNL     1       1.775   8.604  19.233  0.00  0.00    +0.000 HD
ENDBRANCH  15  17
ENDBRANCH   3  13
BRANCH   4  29
ATOM     29  C   UNL     1      -0.505   9.608  18.192  0.00  0.00    +0.000 C 
BRANCH  29  30
ATOM     30  C   UNL     1      -1.817  10.207  17.739  0.00  0.00    +0.000 A 
ATOM     31  C   UNL     1      -2.550  11.035  18.602  0.00  0.00    +0.000 A 
ATOM     32  C   UNL     1      -3.726  11.652  18.165  0.00  0.00    +0.000 A 
ATOM     33  C   UNL     1      -4.187  11.444  16.866  0.00  0.00    +0.000 A 
ATOM     34  C   UNL     1      -3.475  10.617  16.002  0.00  0.00    +0.000 A 
ATOM     35  C   UNL     1      -2.295  10.007  16.433  0.00  0.00    +0.000 A 
ENDBRANCH  29  30
ENDBRANCH   4  29
TORSDOF 5
ENDMDL
