MODEL 1
REMARK VINA RESULT:      -7.3      0.000      0.000
REMARK  Name = 
REMARK  10 active torsions:
REMARK  status: ('A' for Active; 'I' for Inactive)
REMARK    1  A    between atoms: N_1  and  C_2
REMARK    2  A    between atoms: C_2  and  C_3
REMARK    3  A    between atoms: C_3  and  C_4
REMARK    4  A    between atoms: C_4  and  C_5
REMARK    5  A    between atoms: C_5  and  C_6
REMARK    6  A    between atoms: C_6  and  N_7
REMARK    7  A    between atoms: C_10  and  O_11
REMARK    8  A    between atoms: O_11  and  C_12
REMARK    9  A    between atoms: N_14  and  C_15
REMARK   10  A    between atoms: C_20  and  C_21
REMARK                            x       y       z     vdW  Elec       q    Type
REMARK                         _______ _______ _______ _____ _____    ______ ____
ROOT
ATOM      1  C   UNL     1       2.151   7.452  19.511  0.00  0.00    +0.000 C 
ATOM      2  O   UNL     1       1.772   6.745  20.440  0.00  0.00    +0.000 OA
ATOM      3  N   UNL     1       2.706   7.003  18.331  0.00  0.00    +0.000 N 
ATOM      4  H   UNL     1       2.673   7.657  17.560  0.00  0.00    +0.000 HD
ENDROOT
BRANCH   3   5
ATOM      5  C   UNL     1       2.845   5.617  18.046  0.00  0.00    +0.000 A 
ATOM      6  C   UNL     1       1.662   4.874  17.929  0.00  0.00    +0.000 A 
ATOM      7  C   UNL     1       1.685   3.492  17.702  0.00  0.00    +0.000 A 
ATOM      8  C   UNL     1       2.909   2.855  17.562  0.00  0.00    +0.000 A 
ATOM      9  C   UNL     1       4.095   3.585  17.659  0.00  0.00    +0.000 A 
ATOM     10  C   UNL     1       4.108   4.977  17.950  0.00  0.00    +0.000 A 
BRANCH  10  11
ATOM     11  C   UNL     1       5.430   5.656  18.090  0.00  0.00    +0.000 A 
ATOM     12  C   UNL     1       6.354   5.322  19.094  0.00  0.00    +0.000 A 
ATOM     13  C   UNL     1       7.608   5.937  19.170  0.00  0.00    +0.000 A 
ATOM     14  C   UNL     1       7.950   6.946  18.276  0.00  0.00    +0.000 A 
ATOM     15  C   UNL     1       7.031   7.349  17.316  0.00  0.00    +0.000 A 
ATOM     16  C   UNL     1       5.798   6.701  17.216  0.00  0.00    +0.000 A 
ENDBRANCH  10  11
ENDBRANCH   3   5
BRANCH   1  17
ATOM     17  O   UNL     1       2.009   8.811  19.492  0.00  0.00    +0.000 OA
BRANCH  17  21
ATOM     18  N   UNL     1      -0.054  11.689  18.788  0.00  0.00    +0.000 NA
ATOM     19  C   UNL     1       1.392  11.741  19.054  0.00  0.00    +0.000 C 
ATOM     20  C   UNL     1       2.181  10.841  18.105  0.00  0.00    +0.000 C 
ATOM     21  C   UNL     1       1.712   9.391  18.193  0.00  0.00    +0.000 C 
ATOM     22  C   UNL     1       0.203   9.353  17.941  0.00  0.00    +0.000 C 
ATOM     23  C   UNL     1      -0.560  10.307  18.862  0.00  0.00    +0.000 C 
BRANCH  18  24
ATOM     24  C   UNL     1      -0.806  12.540  19.734  0.00  0.00    +0.000 C 
BRANCH  24  25
ATOM     25  C   UNL     1      -0.398  12.393  21.208  0.00  0.00    +0.000 C 
BRANCH  25  26
ATOM     26  C   UNL     1      -1.447  11.688  22.069  0.00  0.00    +0.000 C 
BRANCH  26  27
ATOM     27  C   UNL     1      -0.764  10.698  23.013  0.00  0.00    +0.000 C 
BRANCH  27  28
ATOM     28  C   UNL     1      -0.210   9.488  22.265  0.00  0.00    +0.000 C 
BRANCH  28  29
ATOM     29  N   UNL     1       1.241   9.450  22.405  0.00  0.00    +0.000 NA
ATOM     30  H   UNL     1       1.675   9.672  21.512  0.00  0.00    +0.000 HD
ATOM     31  H   UNL     1       1.540   8.506  22.643  0.00  0.00    +0.000 HD
ENDBRANCH  28  29
ENDBRANCH  27  28
ENDBRANCH  26  27
ENDBRANCH  25  26
ENDBRANCH  24  25
ENDBRANCH  18  24
ENDBRANCH  17  21
ENDBRANCH   1  17
TORSDOF 10
ENDMDL
MODEL 2
REMARK VINA RESULT:      -7.2      0.507      1.074
REMARK  Name = 
REMARK  10 active torsions:
REMARK  status: ('A' for Active; 'I' for Inactive)
REMARK    1  A    between atoms: N_1  and  C_2
REMARK    2  A    between atoms: C_2  and  C_3
REMARK    3  A    between atoms: C_3  and  C_4
REMARK    4  A    between atoms: C_4  and  C_5
REMARK    5  A    between atoms: C_5  and  C_6
REMARK    6  A    between atoms: C_6  and  N_7
REMARK    7  A    between atoms: C_10  and  O_11
REMARK    8  A    between atoms: O_11  and  C_12
REMARK    9  A    between atoms: N_14  and  C_15
REMARK   10  A    between atoms: C_20  and  C_21
REMARK                            x       y       z     vdW  Elec       q    Type
REMARK                         _______ _______ _______ _____ _____    ______ ____
ROOT
ATOM      1  C   UNL     1       2.165   7.341  19.466  0.00  0.00    +0.000 C 
ATOM      2  O   UNL     1       1.878   6.619  20.416  0.00  0.00    +0.000 OA
ATOM      3  N   UNL     1       2.674   6.916  18.256  0.00  0.00    +0.000 N 
ATOM      4  H   UNL     1       2.563   7.565  17.488  0.00  0.00    +0.000 HD
ENDROOT
BRANCH   3   5
ATOM      5  C   UNL     1       2.868   5.539  17.965  0.00  0.00    +0.000 A 
ATOM      6  C   UNL     1       1.716   4.747  17.854  0.00  0.00    +0.000 A 
ATOM      7  C   UNL     1       1.795   3.369  17.622  0.00  0.00    +0.000 A 
ATOM      8  C   UNL     1       3.044   2.783  17.470  0.00  0.00    +0.000 A 
ATOM      9  C   UNL     1       4.199   3.561  17.561  0.00  0.00    +0.000 A 
ATOM     10  C   UNL     1       4.156   4.952  17.858  0.00  0.00    +0.000 A 
BRANCH  10  11
ATOM     11  C   UNL     1       5.450   5.685  17.991  0.00  0.00    +0.000 A 
ATOM     12  C   UNL     1       5.801   6.764  17.162  0.00  0.00    +0.000 A 
ATOM     13  C   UNL     1       6.996   7.467  17.342  0.00  0.00    +0.000 A 
ATOM     14  C   UNL     1       7.901   7.075  18.323  0.00  0.00    +0.000 A 
ATOM     15  C   UNL     1       7.615   5.969  19.113  0.00  0.00    +0.000 A 
ATOM     16  C   UNL     1       6.400   5.297  18.958  0.00  0.00    +0.000 A 
ENDBRANCH  10  11
ENDBRANCH   3   5
BRANCH   1  17
ATOM     17  O   UNL     1       1.952   8.691  19.454  0.00  0.00    +0.000 OA
BRANCH  17  21
ATOM     18  N   UNL     1       0.096  11.707  18.750  0.00  0.00    +0.000 NA
ATOM     19  C   UNL     1       1.550  11.650  18.969  0.00  0.00    +0.000 C 
ATOM     20  C   UNL     1       2.235  10.672  18.017  0.00  0.00    +0.000 C 
ATOM     21  C   UNL     1       1.658   9.266  18.152  0.00  0.00    +0.000 C 
ATOM     22  C   UNL     1       0.144   9.341  17.948  0.00  0.00    +0.000 C 
ATOM     23  C   UNL     1      -0.513  10.370  18.870  0.00  0.00    +0.000 C 
BRANCH  18  24
ATOM     24  C   UNL     1      -0.556  12.633  19.699  0.00  0.00    +0.000 C 
BRANCH  24  25
ATOM     25  C   UNL     1      -1.886  12.135  20.285  0.00  0.00    +0.000 C 
BRANCH  25  26
ATOM     26  C   UNL     1      -1.969  12.251  21.808  0.00  0.00    +0.000 C 
BRANCH  26  27
ATOM     27  C   UNL     1      -0.681  11.720  22.440  0.00  0.00    +0.000 C 
BRANCH  27  28
ATOM     28  C   UNL     1      -0.735  10.210  22.656  0.00  0.00    +0.000 C 
BRANCH  28  29
ATOM     29  N   UNL     1       0.253   9.825  23.656  0.00  0.00    +0.000 NA
ATOM     30  H   UNL     1       0.890   9.137  23.259  0.00  0.00    +0.000 HD
ATOM     31  H   UNL     1      -0.209   9.368  24.441  0.00  0.00    +0.000 HD
ENDBRANCH  28  29
ENDBRANCH  27  28
ENDBRANCH  26  27
ENDBRANCH  25  26
ENDBRANCH  24  25
ENDBRANCH  18  24
ENDBRANCH  17  21
ENDBRANCH   1  17
TORSDOF 10
ENDMDL
MODEL 3
REMARK VINA RESULT:      -7.0      1.331      1.381
REMARK  Name = 
REMARK  10 active torsions:
REMARK  status: ('A' for Active; 'I' for Inactive)
REMARK    1  A    between atoms: N_1  and  C_2
REMARK    2  A    between atoms: C_2  and  C_3
REMARK    3  A    between atoms: C_3  and  C_4
REMARK    4  A    between atoms: C_4  and  C_5
REMARK    5  A    between atoms: C_5  and  C_6
REMARK    6  A    between atoms: C_6  and  N_7
REMARK    7  A    between atoms: C_10  and  O_11
REMARK    8  A    between atoms: O_11  and  C_12
REMARK    9  A    between atoms: N_14  and  C_15
REMARK   10  A    between atoms: C_20  and  C_21
REMARK                            x       y       z     vdW  Elec       q    Type
REMARK                         _______ _______ _______ _____ _____    ______ ____
ROOT
ATOM      1  C   UNL     1       2.278   7.348  18.811  0.00  0.00    +0.000 C 
ATOM      2  O   UNL     1       1.891   6.814  17.776  0.00  0.00    +0.000 OA
ATOM      3  N   UNL     1       2.791   6.694  19.912  0.00  0.00    +0.000 N 
ATOM      4  H   UNL     1       3.345   7.267  20.536  0.00  0.00    +0.000 HD
ENDROOT
BRANCH   3   5
ATOM      5  C   UNL     1       2.980   5.285  19.929  0.00  0.00    +0.000 A 
ATOM      6  C   UNL     1       1.978   4.520  20.542  0.00  0.00    +0.000 A 
ATOM      7  C   UNL     1       2.089   3.129  20.660  0.00  0.00    +0.000 A 
ATOM      8  C   UNL     1       3.205   2.497  20.131  0.00  0.00    +0.000 A 
ATOM      9  C   UNL     1       4.203   3.244  19.503  0.00  0.00    +0.000 A 
ATOM     10  C   UNL     1       4.150   4.663  19.422  0.00  0.00    +0.000 A 
BRANCH  10  11
ATOM     11  C   UNL     1       5.295   5.376  18.780  0.00  0.00    +0.000 A 
ATOM     12  C   UNL     1       6.542   5.528  19.408  0.00  0.00    +0.000 A 
ATOM     13  C   UNL     1       7.615   6.154  18.764  0.00  0.00    +0.000 A 
ATOM     14  C   UNL     1       7.452   6.695  17.492  0.00  0.00    +0.000 A 
ATOM     15  C   UNL     1       6.210   6.623  16.874  0.00  0.00    +0.000 A 
ATOM     16  C   UNL     1       5.155   5.958  17.503  0.00  0.00    +0.000 A 
ENDBRANCH  10  11
ENDBRANCH   3   5
BRANCH   1  17
ATOM     17  O   UNL     1       2.316   8.702  18.991  0.00  0.00    +0.000 OA
BRANCH  17  21
ATOM     18  N   UNL     1       0.141  11.581  19.108  0.00  0.00    +0.000 NA
ATOM     19  C   UNL     1       1.609  11.637  19.186  0.00  0.00    +0.000 C 
ATOM     20  C   UNL     1       2.272  10.954  17.991  0.00  0.00    +0.000 C 
ATOM     21  C   UNL     1       1.837   9.496  17.872  0.00  0.00    +0.000 C 
ATOM     22  C   UNL     1       0.309   9.447  17.819  0.00  0.00    +0.000 C 
ATOM     23  C   UNL     1      -0.333  10.191  18.993  0.00  0.00    +0.000 C 
BRANCH  18  24
ATOM     24  C   UNL     1      -0.485  12.218  20.286  0.00  0.00    +0.000 C 
BRANCH  24  25
ATOM     25  C   UNL     1      -1.203  11.255  21.243  0.00  0.00    +0.000 C 
BRANCH  25  26
ATOM     26  C   UNL     1      -0.641  11.270  22.665  0.00  0.00    +0.000 C 
BRANCH  26  27
ATOM     27  C   UNL     1      -0.386   9.837  23.138  0.00  0.00    +0.000 C 
BRANCH  27  28
ATOM     28  C   UNL     1       0.098   8.941  22.002  0.00  0.00    +0.000 C 
BRANCH  28  29
ATOM     29  N   UNL     1       1.548   8.815  22.063  0.00  0.00    +0.000 NA
ATOM     30  H   UNL     1       1.816   8.384  22.946  0.00  0.00    +0.000 HD
ATOM     31  H   UNL     1       1.976   9.740  22.055  0.00  0.00    +0.000 HD
ENDBRANCH  28  29
ENDBRANCH  27  28
ENDBRANCH  26  27
ENDBRANCH  25  26
ENDBRANCH  24  25
ENDBRANCH  18  24
ENDBRANCH  17  21
ENDBRANCH   1  17
TORSDOF 10
ENDMDL
MODEL 4
REMARK VINA RESULT:      -6.8      1.654      3.229
REMARK  Name = 
REMARK  10 active torsions:
REMARK  status: ('A' for Active; 'I' for Inactive)
REMARK    1  A    between atoms: N_1  and  C_2
REMARK    2  A    between atoms: C_2  and  C_3
REMARK    3  A    between atoms: C_3  and  C_4
REMARK    4  A    between atoms: C_4  and  C_5
REMARK    5  A    between atoms: C_5  and  C_6
REMARK    6  A    between atoms: C_6  and  N_7
REMARK    7  A    between atoms: C_10  and  O_11
REMARK    8  A    between atoms: O_11  and  C_12
REMARK    9  A    between atoms: N_14  and  C_15
REMARK   10  A    between atoms: C_20  and  C_21
REMARK                            x       y       z     vdW  Elec       q    Type
REMARK                         _______ _______ _______ _____ _____    ______ ____
ROOT
ATOM      1  C   UNL     1       2.234   7.735  17.931  0.00  0.00    +0.000 C 
ATOM      2  O   UNL     1       1.399   7.132  17.263  0.00  0.00    +0.000 OA
ATOM      3  N   UNL     1       3.565   7.391  18.058  0.00  0.00    +0.000 N 
ATOM      4  H   UNL     1       4.175   8.136  18.369  0.00  0.00    +0.000 HD
ENDROOT
BRANCH   3   5
ATOM      5  C   UNL     1       4.129   6.295  17.350  0.00  0.00    +0.000 A 
ATOM      6  C   UNL     1       4.964   6.603  16.267  0.00  0.00    +0.000 A 
ATOM      7  C   UNL     1       5.529   5.600  15.471  0.00  0.00    +0.000 A 
ATOM      8  C   UNL     1       5.275   4.272  15.783  0.00  0.00    +0.000 A 
ATOM      9  C   UNL     1       4.459   3.949  16.868  0.00  0.00    +0.000 A 
ATOM     10  C   UNL     1       3.820   4.945  17.659  0.00  0.00    +0.000 A 
BRANCH  10  11
ATOM     11  C   UNL     1       2.920   4.497  18.763  0.00  0.00    +0.000 A 
ATOM     12  C   UNL     1       3.138   4.841  20.107  0.00  0.00    +0.000 A 
ATOM     13  C   UNL     1       2.249   4.453  21.116  0.00  0.00    +0.000 A 
ATOM     14  C   UNL     1       1.146   3.661  20.813  0.00  0.00    +0.000 A 
ATOM     15  C   UNL     1       0.941   3.246  19.503  0.00  0.00    +0.000 A 
ATOM     16  C   UNL     1       1.807   3.674  18.494  0.00  0.00    +0.000 A 
ENDBRANCH  10  11
ENDBRANCH   3   5
BRANCH   1  17
ATOM     17  O   UNL     1       1.967   8.894  18.603  0.00  0.00    +0.000 OA
BRANCH  17  21
ATOM     18  N   UNL     1       0.095  11.788  19.676  0.00  0.00    +0.000 NA
ATOM     19  C   UNL     1       1.563  11.708  19.638  0.00  0.00    +0.000 C 
ATOM     20  C   UNL     1       2.080  11.330  18.251  0.00  0.00    +0.000 C 
ATOM     21  C   UNL     1       1.498   9.999  17.784  0.00  0.00    +0.000 C 
ATOM     22  C   UNL     1      -0.027  10.084  17.853  0.00  0.00    +0.000 C 
ATOM     23  C   UNL     1      -0.519  10.523  19.233  0.00  0.00    +0.000 C 
BRANCH  18  24
ATOM     24  C   UNL     1      -0.391  12.124  21.031  0.00  0.00    +0.000 C 
BRANCH  24  25
ATOM     25  C   UNL     1      -1.191  11.013  21.730  0.00  0.00    +0.000 C 
BRANCH  25  26
ATOM     26  C   UNL     1      -0.626  10.615  23.094  0.00  0.00    +0.000 C 
BRANCH  26  27
ATOM     27  C   UNL     1      -0.039   9.204  23.021  0.00  0.00    +0.000 C 
BRANCH  27  28
ATOM     28  C   UNL     1       1.370   9.203  22.435  0.00  0.00    +0.000 C 
BRANCH  28  29
ATOM     29  N   UNL     1       1.504   8.105  21.486  0.00  0.00    +0.000 NA
ATOM     30  H   UNL     1       2.181   8.356  20.768  0.00  0.00    +0.000 HD
ATOM     31  H   UNL     1       0.618   7.956  21.004  0.00  0.00    +0.000 HD
ENDBRANCH  28  29
ENDBRANCH  27  28
ENDBRANCH  26  27
ENDBRANCH  25  26
ENDBRANCH  24  25
ENDBRANCH  18  24
ENDBRANCH  17  21
ENDBRANCH   1  17
TORSDOF 10
ENDMDL
MODEL 5
REMARK VINA RESULT:      -6.8      1.378      1.855
REMARK  Name = 
REMARK  10 active torsions:
REMARK  status: ('A' for Active; 'I' for Inactive)
REMARK    1  A    between atoms: N_1  and  C_2
REMARK    2  A    between atoms: C_2  and  C_3
REMARK    3  A    between atoms: C_3  and  C_4
REMARK    4  A    between atoms: C_4  and  C_5
REMARK    5  A    between atoms: C_5  and  C_6
REMARK    6  A    between atoms: C_6  and  N_7
REMARK    7  A    between atoms: C_10  and  O_11
REMARK    8  A    between atoms: O_11  and  C_12
REMARK    9  A    between atoms: N_14  and  C_15
REMARK   10  A    between atoms: C_20  and  C_21
REMARK                            x       y       z     vdW  Elec       q    Type
REMARK                         _______ _______ _______ _____ _____    ______ ____
ROOT
ATOM      1  C   UNL     1       2.211   7.452  19.430  0.00  0.00    +0.000 C 
ATOM      2  O   UNL     1       1.865   6.748  20.374  0.00  0.00    +0.000 OA
ATOM      3  N   UNL     1       2.748   7.001  18.242  0.00  0.00    +0.000 N 
ATOM      4  H   UNL     1       2.686   7.648  17.466  0.00  0.00    +0.000 HD
ENDROOT
BRANCH   3   5
ATOM      5  C   UNL     1       2.905   5.616  17.966  0.00  0.00    +0.000 A 
ATOM      6  C   UNL     1       1.732   4.855  17.856  0.00  0.00    +0.000 A 
ATOM      7  C   UNL     1       1.774   3.473  17.638  0.00  0.00    +0.000 A 
ATOM      8  C   UNL     1       3.007   2.852  17.502  0.00  0.00    +0.000 A 
ATOM      9  C   UNL     1       4.183   3.598  17.593  0.00  0.00    +0.000 A 
ATOM     10  C   UNL     1       4.177   4.992  17.874  0.00  0.00    +0.000 A 
BRANCH  10  11
ATOM     11  C   UNL     1       5.490   5.690  18.009  0.00  0.00    +0.000 A 
ATOM     12  C   UNL     1       5.899   6.713  17.137  0.00  0.00    +0.000 A 
ATOM     13  C   UNL     1       7.112   7.387  17.317  0.00  0.00    +0.000 A 
ATOM     14  C   UNL     1       7.975   7.018  18.343  0.00  0.00    +0.000 A 
ATOM     15  C   UNL     1       7.631   5.963  19.179  0.00  0.00    +0.000 A 
ATOM     16  C   UNL     1       6.399   5.323  19.022  0.00  0.00    +0.000 A 
ENDBRANCH  10  11
ENDBRANCH   3   5
BRANCH   1  17
ATOM     17  O   UNL     1       2.044   8.808  19.402  0.00  0.00    +0.000 OA
BRANCH  17  21
ATOM     18  N   UNL     1       0.024  11.727  18.744  0.00  0.00    +0.000 NA
ATOM     19  C   UNL     1       1.483  11.744  18.931  0.00  0.00    +0.000 C 
ATOM     20  C   UNL     1       2.196  10.802  17.962  0.00  0.00    +0.000 C 
ATOM     21  C   UNL     1       1.693   9.369  18.108  0.00  0.00    +0.000 C 
ATOM     22  C   UNL     1       0.173   9.367  17.937  0.00  0.00    +0.000 C 
ATOM     23  C   UNL     1      -0.514  10.362  18.876  0.00  0.00    +0.000 C 
BRANCH  18  24
ATOM     24  C   UNL     1      -0.653  12.619  19.709  0.00  0.00    +0.000 C 
BRANCH  24  25
ATOM     25  C   UNL     1      -1.465  11.902  20.799  0.00  0.00    +0.000 C 
BRANCH  25  26
ATOM     26  C   UNL     1      -1.071  12.301  22.221  0.00  0.00    +0.000 C 
BRANCH  26  27
ATOM     27  C   UNL     1      -2.221  11.997  23.183  0.00  0.00    +0.000 C 
BRANCH  27  28
ATOM     28  C   UNL     1      -3.543  12.579  22.691  0.00  0.00    +0.000 C 
BRANCH  28  29
ATOM     29  N   UNL     1      -4.060  13.519  23.677  0.00  0.00    +0.000 NA
ATOM     30  H   UNL     1      -5.077  13.535  23.632  0.00  0.00    +0.000 HD
ATOM     31  H   UNL     1      -3.749  14.463  23.451  0.00  0.00    +0.000 HD
ENDBRANCH  28  29
ENDBRANCH  27  28
ENDBRANCH  26  27
ENDBRANCH  25  26
ENDBRANCH  24  25
ENDBRANCH  18  24
ENDBRANCH  17  21
ENDBRANCH   1  17
TORSDOF 10
ENDMDL
MODEL 6
REMARK VINA RESULT:      -6.8      1.921      3.897
REMARK  Name = 
REMARK  10 active torsions:
REMARK  status: ('A' for Active; 'I' for Inactive)
REMARK    1  A    between atoms: N_1  and  C_2
REMARK    2  A    between atoms: C_2  and  C_3
REMARK    3  A    between atoms: C_3  and  C_4
REMARK    4  A    between atoms: C_4  and  C_5
REMARK    5  A    between atoms: C_5  and  C_6
REMARK    6  A    between atoms: C_6  and  N_7
REMARK    7  A    between atoms: C_10  and  O_11
REMARK    8  A    between atoms: O_11  and  C_12
REMARK    9  A    between atoms: N_14  and  C_15
REMARK   10  A    between atoms: C_20  and  C_21
REMARK                            x       y       z     vdW  Elec       q    Type
REMARK                         _______ _______ _______ _____ _____    ______ ____
ROOT
ATOM      1  C   UNL     1       2.231   8.535  18.108  0.00  0.00    +0.000 C 
ATOM      2  O   UNL     1       2.360   8.932  16.954  0.00  0.00    +0.000 OA
ATOM      3  N   UNL     1       2.742   7.359  18.617  0.00  0.00    +0.000 N 
ATOM      4  H   UNL     1       2.825   7.324  19.625  0.00  0.00    +0.000 HD
ENDROOT
BRANCH   3   5
ATOM      5  C   UNL     1       3.550   6.490  17.835  0.00  0.00    +0.000 A 
ATOM      6  C   UNL     1       4.382   7.089  16.878  0.00  0.00    +0.000 A 
ATOM      7  C   UNL     1       5.179   6.322  16.019  0.00  0.00    +0.000 A 
ATOM      8  C   UNL     1       5.161   4.940  16.141  0.00  0.00    +0.000 A 
ATOM      9  C   UNL     1       4.350   4.330  17.100  0.00  0.00    +0.000 A 
ATOM     10  C   UNL     1       3.483   5.076  17.945  0.00  0.00    +0.000 A 
BRANCH  10  11
ATOM     11  C   UNL     1       2.613   4.327  18.900  0.00  0.00    +0.000 A 
ATOM     12  C   UNL     1       2.725   4.459  20.294  0.00  0.00    +0.000 A 
ATOM     13  C   UNL     1       1.861   3.786  21.165  0.00  0.00    +0.000 A 
ATOM     14  C   UNL     1       0.897   2.917  20.665  0.00  0.00    +0.000 A 
ATOM     15  C   UNL     1       0.807   2.711  19.294  0.00  0.00    +0.000 A 
ATOM     16  C   UNL     1       1.642   3.420  18.427  0.00  0.00    +0.000 A 
ENDBRANCH  10  11
ENDBRANCH   3   5
BRANCH   1  17
ATOM     17  O   UNL     1       1.603   9.253  19.086  0.00  0.00    +0.000 OA
BRANCH  17  21
ATOM     18  N   UNL     1      -0.407  11.499  21.074  0.00  0.00    +0.000 NA
ATOM     19  C   UNL     1       1.025  11.683  20.793  0.00  0.00    +0.000 C 
ATOM     20  C   UNL     1       1.318  11.692  19.294  0.00  0.00    +0.000 C 
ATOM     21  C   UNL     1       0.843  10.405  18.626  0.00  0.00    +0.000 C 
ATOM     22  C   UNL     1      -0.639  10.209  18.947  0.00  0.00    +0.000 C 
ATOM     23  C   UNL     1      -0.917  10.265  20.451  0.00  0.00    +0.000 C 
BRANCH  18  24
ATOM     24  C   UNL     1      -0.670  11.461  22.528  0.00  0.00    +0.000 C 
BRANCH  24  25
ATOM     25  C   UNL     1      -1.545  12.605  23.062  0.00  0.00    +0.000 C 
BRANCH  25  26
ATOM     26  C   UNL     1      -3.045  12.360  22.895  0.00  0.00    +0.000 C 
BRANCH  26  27
ATOM     27  C   UNL     1      -3.676  13.516  22.117  0.00  0.00    +0.000 C 
BRANCH  27  28
ATOM     28  C   UNL     1      -4.023  13.116  20.686  0.00  0.00    +0.000 C 
BRANCH  28  29
ATOM     29  N   UNL     1      -2.839  13.234  19.844  0.00  0.00    +0.000 NA
ATOM     30  H   UNL     1      -3.055  12.909  18.904  0.00  0.00    +0.000 HD
ATOM     31  H   UNL     1      -2.103  12.623  20.196  0.00  0.00    +0.000 HD
ENDBRANCH  28  29
ENDBRANCH  27  28
ENDBRANCH  26  27
ENDBRANCH  25  26
ENDBRANCH  24  25
ENDBRANCH  18  24
ENDBRANCH  17  21
ENDBRANCH   1  17
TORSDOF 10
ENDMDL
MODEL 7
REMARK VINA RESULT:      -6.8      1.563      3.563
REMARK  Name = 
REMARK  10 active torsions:
REMARK  status: ('A' for Active; 'I' for Inactive)
REMARK    1  A    between atoms: N_1  and  C_2
REMARK    2  A    between atoms: C_2  and  C_3
REMARK    3  A    between atoms: C_3  and  C_4
REMARK    4  A    between atoms: C_4  and  C_5
REMARK    5  A    between atoms: C_5  and  C_6
REMARK    6  A    between atoms: C_6  and  N_7
REMARK    7  A    between atoms: C_10  and  O_11
REMARK    8  A    between atoms: O_11  and  C_12
REMARK    9  A    between atoms: N_14  and  C_15
REMARK   10  A    between atoms: C_20  and  C_21
REMARK                            x       y       z     vdW  Elec       q    Type
REMARK                         _______ _______ _______ _____ _____    ______ ____
ROOT
ATOM      1  C   UNL     1       2.442   8.270  17.929  0.00  0.00    +0.000 C 
ATOM      2  O   UNL     1       2.741   8.465  16.754  0.00  0.00    +0.000 OA
ATOM      3  N   UNL     1       2.945   7.269  18.733  0.00  0.00    +0.000 N 
ATOM      4  H   UNL     1       2.852   7.426  19.728  0.00  0.00    +0.000 HD
ENDROOT
BRANCH   3   5
ATOM      5  C   UNL     1       3.944   6.367  18.274  0.00  0.00    +0.000 A 
ATOM      6  C   UNL     1       5.016   6.920  17.560  0.00  0.00    +0.000 A 
ATOM      7  C   UNL     1       6.026   6.116  17.018  0.00  0.00    +0.000 A 
ATOM      8  C   UNL     1       5.974   4.745  17.219  0.00  0.00    +0.000 A 
ATOM      9  C   UNL     1       4.921   4.181  17.942  0.00  0.00    +0.000 A 
ATOM     10  C   UNL     1       3.848   4.963  18.453  0.00  0.00    +0.000 A 
BRANCH  10  11
ATOM     11  C   UNL     1       2.739   4.259  19.164  0.00  0.00    +0.000 A 
ATOM     12  C   UNL     1       1.702   3.597  18.486  0.00  0.00    +0.000 A 
ATOM     13  C   UNL     1       0.704   2.900  19.176  0.00  0.00    +0.000 A 
ATOM     14  C   UNL     1       0.686   2.894  20.567  0.00  0.00    +0.000 A 
ATOM     15  C   UNL     1       1.657   3.598  21.267  0.00  0.00    +0.000 A 
ATOM     16  C   UNL     1       2.676   4.255  20.573  0.00  0.00    +0.000 A 
ENDBRANCH  10  11
ENDBRANCH   3   5
BRANCH   1  17
ATOM     17  O   UNL     1       1.597   9.080  18.635  0.00  0.00    +0.000 OA
BRANCH  17  21
ATOM     18  N   UNL     1      -0.729  11.570  19.827  0.00  0.00    +0.000 NA
ATOM     19  C   UNL     1       0.732  11.646  19.984  0.00  0.00    +0.000 C 
ATOM     20  C   UNL     1       1.458  11.540  18.644  0.00  0.00    +0.000 C 
ATOM     21  C   UNL     1       1.103  10.244  17.919  0.00  0.00    +0.000 C 
ATOM     22  C   UNL     1      -0.419  10.163  17.786  0.00  0.00    +0.000 C 
ATOM     23  C   UNL     1      -1.126  10.333  19.132  0.00  0.00    +0.000 C 
BRANCH  18  24
ATOM     24  C   UNL     1      -1.415  11.642  21.135  0.00  0.00    +0.000 C 
BRANCH  24  25
ATOM     25  C   UNL     1      -0.503  11.469  22.359  0.00  0.00    +0.000 C 
BRANCH  25  26
ATOM     26  C   UNL     1      -0.856  10.256  23.221  0.00  0.00    +0.000 C 
BRANCH  26  27
ATOM     27  C   UNL     1       0.290   9.244  23.188  0.00  0.00    +0.000 C 
BRANCH  27  28
ATOM     28  C   UNL     1       0.321   8.462  21.877  0.00  0.00    +0.000 C 
BRANCH  28  29
ATOM     29  N   UNL     1       1.704   8.221  21.485  0.00  0.00    +0.000 NA
ATOM     30  H   UNL     1       1.874   8.629  20.568  0.00  0.00    +0.000 HD
ATOM     31  H   UNL     1       1.866   7.220  21.388  0.00  0.00    +0.000 HD
ENDBRANCH  28  29
ENDBRANCH  27  28
ENDBRANCH  26  27
ENDBRANCH  25  26
ENDBRANCH  24  25
ENDBRANCH  18  24
ENDBRANCH  17  21
ENDBRANCH   1  17
TORSDOF 10
ENDMDL
MODEL 8
REMARK VINA RESULT:      -6.7      2.299      4.017
REMARK  Name = 
REMARK  10 active torsions:
REMARK  status: ('A' for Active; 'I' for Inactive)
REMARK    1  A    between atoms: N_1  and  C_2
REMARK    2  A    between atoms: C_2  and  C_3
REMARK    3  A    between atoms: C_3  and  C_4
REMARK    4  A    between atoms: C_4  and  C_5
REMARK    5  A    between atoms: C_5  and  C_6
REMARK    6  A    between atoms: C_6  and  N_7
REMARK    7  A    between atoms: C_10  and  O_11
REMARK    8  A    between atoms: O_11  and  C_12
REMARK    9  A    between atoms: N_14  and  C_15
REMARK   10  A    between atoms: C_20  and  C_21
REMARK                            x       y       z     vdW  Elec       q    Type
REMARK                         _______ _______ _______ _____ _____    ______ ____
ROOT
ATOM      1  C   UNL     1       2.129   8.506  18.392  0.00  0.00    +0.000 C 
ATOM      2  O   UNL     1       1.976   8.785  17.206  0.00  0.00    +0.000 OA
ATOM      3  N   UNL     1       2.855   7.440  18.881  0.00  0.00    +0.000 N 
ATOM      4  H   UNL     1       3.146   7.522  19.847  0.00  0.00    +0.000 HD
ENDROOT
BRANCH   3   5
ATOM      5  C   UNL     1       3.572   6.563  18.023  0.00  0.00    +0.000 A 
ATOM      6  C   UNL     1       4.378   7.156  17.041  0.00  0.00    +0.000 A 
ATOM      7  C   UNL     1       5.085   6.385  16.111  0.00  0.00    +0.000 A 
ATOM      8  C   UNL     1       5.005   5.001  16.186  0.00  0.00    +0.000 A 
ATOM      9  C   UNL     1       4.221   4.396  17.169  0.00  0.00    +0.000 A 
ATOM     10  C   UNL     1       3.442   5.151  18.089  0.00  0.00    +0.000 A 
BRANCH  10  11
ATOM     11  C   UNL     1       2.591   4.410  19.067  0.00  0.00    +0.000 A 
ATOM     12  C   UNL     1       1.437   3.705  18.688  0.00  0.00    +0.000 A 
ATOM     13  C   UNL     1       0.687   2.974  19.616  0.00  0.00    +0.000 A 
ATOM     14  C   UNL     1       1.040   2.976  20.961  0.00  0.00    +0.000 A 
ATOM     15  C   UNL     1       2.135   3.721  21.379  0.00  0.00    +0.000 A 
ATOM     16  C   UNL     1       2.906   4.412  20.442  0.00  0.00    +0.000 A 
ENDBRANCH  10  11
ENDBRANCH   3   5
BRANCH   1  17
ATOM     17  O   UNL     1       1.642   9.271  19.414  0.00  0.00    +0.000 OA
BRANCH  17  21
ATOM     18  N   UNL     1      -0.470  11.746  20.979  0.00  0.00    +0.000 NA
ATOM     19  C   UNL     1      -0.145  11.708  19.544  0.00  0.00    +0.000 C 
ATOM     20  C   UNL     1      -0.507  10.366  18.911  0.00  0.00    +0.000 C 
ATOM     21  C   UNL     1       0.203   9.211  19.611  0.00  0.00    +0.000 C 
ATOM     22  C   UNL     1      -0.119   9.275  21.105  0.00  0.00    +0.000 C 
ATOM     23  C   UNL     1       0.194  10.648  21.704  0.00  0.00    +0.000 C 
BRANCH  18  24
ATOM     24  C   UNL     1      -0.085  13.038  21.584  0.00  0.00    +0.000 C 
BRANCH  24  25
ATOM     25  C   UNL     1      -1.249  13.863  22.154  0.00  0.00    +0.000 C 
BRANCH  25  26
ATOM     26  C   UNL     1      -1.694  13.417  23.547  0.00  0.00    +0.000 C 
BRANCH  26  27
ATOM     27  C   UNL     1      -2.968  12.577  23.441  0.00  0.00    +0.000 C 
BRANCH  27  28
ATOM     28  C   UNL     1      -4.003  12.978  24.489  0.00  0.00    +0.000 C 
BRANCH  28  29
ATOM     29  N   UNL     1      -4.939  11.880  24.696  0.00  0.00    +0.000 NA
ATOM     30  H   UNL     1      -5.890  12.244  24.721  0.00  0.00    +0.000 HD
ATOM     31  H   UNL     1      -4.773  11.451  25.605  0.00  0.00    +0.000 HD
ENDBRANCH  28  29
ENDBRANCH  27  28
ENDBRANCH  26  27
ENDBRANCH  25  26
ENDBRANCH  24  25
ENDBRANCH  18  24
ENDBRANCH  17  21
ENDBRANCH   1  17
TORSDOF 10
ENDMDL
MODEL 9
REMARK VINA RESULT:      -6.7      2.340      3.952
REMARK  Name = 
REMARK  10 active torsions:
REMARK  status: ('A' for Active; 'I' for Inactive)
REMARK    1  A    between atoms: N_1  and  C_2
REMARK    2  A    between atoms: C_2  and  C_3
REMARK    3  A    between atoms: C_3  and  C_4
REMARK    4  A    between atoms: C_4  and  C_5
REMARK    5  A    between atoms: C_5  and  C_6
REMARK    6  A    between atoms: C_6  and  N_7
REMARK    7  A    between atoms: C_10  and  O_11
REMARK    8  A    between atoms: O_11  and  C_12
REMARK    9  A    between atoms: N_14  and  C_15
REMARK   10  A    between atoms: C_20  and  C_21
REMARK                            x       y       z     vdW  Elec       q    Type
REMARK                         _______ _______ _______ _____ _____    ______ ____
ROOT
ATOM      1  C   UNL     1       2.194   8.582  18.179  0.00  0.00    +0.000 C 
ATOM      2  O   UNL     1       2.380   9.000  17.039  0.00  0.00    +0.000 OA
ATOM      3  N   UNL     1       2.671   7.392  18.688  0.00  0.00    +0.000 N 
ATOM      4  H   UNL     1       2.707   7.338  19.698  0.00  0.00    +0.000 HD
ENDROOT
BRANCH   3   5
ATOM      5  C   UNL     1       3.506   6.529  17.927  0.00  0.00    +0.000 A 
ATOM      6  C   UNL     1       4.318   7.130  16.955  0.00  0.00    +0.000 A 
ATOM      7  C   UNL     1       5.139   6.369  16.115  0.00  0.00    +0.000 A 
ATOM      8  C   UNL     1       5.166   4.990  16.271  0.00  0.00    +0.000 A 
ATOM      9  C   UNL     1       4.374   4.379  17.246  0.00  0.00    +0.000 A 
ATOM     10  C   UNL     1       3.484   5.118  18.073  0.00  0.00    +0.000 A 
BRANCH  10  11
ATOM     11  C   UNL     1       2.638   4.366  19.047  0.00  0.00    +0.000 A 
ATOM     12  C   UNL     1       2.890   4.362  20.429  0.00  0.00    +0.000 A 
ATOM     13  C   UNL     1       2.051   3.692  21.325  0.00  0.00    +0.000 A 
ATOM     14  C   UNL     1       0.965   2.960  20.856  0.00  0.00    +0.000 A 
ATOM     15  C   UNL     1       0.730   2.885  19.489  0.00  0.00    +0.000 A 
ATOM     16  C   UNL     1       1.546   3.593  18.602  0.00  0.00    +0.000 A 
ENDBRANCH  10  11
ENDBRANCH   3   5
BRANCH   1  17
ATOM     17  O   UNL     1       1.528   9.289  19.140  0.00  0.00    +0.000 OA
BRANCH  17  21
ATOM     18  N   UNL     1      -0.463  11.579  21.096  0.00  0.00    +0.000 NA
ATOM     19  C   UNL     1       0.983  11.716  20.862  0.00  0.00    +0.000 C 
ATOM     20  C   UNL     1       1.324  11.733  19.373  0.00  0.00    +0.000 C 
ATOM     21  C   UNL     1       0.825  10.472  18.673  0.00  0.00    +0.000 C 
ATOM     22  C   UNL     1      -0.673  10.325  18.944  0.00  0.00    +0.000 C 
ATOM     23  C   UNL     1      -0.996  10.372  20.440  0.00  0.00    +0.000 C 
BRANCH  18  24
ATOM     24  C   UNL     1      -0.773  11.532  22.540  0.00  0.00    +0.000 C 
BRANCH  24  25
ATOM     25  C   UNL     1      -1.324  12.839  23.131  0.00  0.00    +0.000 C 
BRANCH  25  26
ATOM     26  C   UNL     1      -2.602  13.330  22.450  0.00  0.00    +0.000 C 
BRANCH  26  27
ATOM     27  C   UNL     1      -3.652  13.680  23.506  0.00  0.00    +0.000 C 
BRANCH  27  28
ATOM     28  C   UNL     1      -4.291  12.432  24.109  0.00  0.00    +0.000 C 
BRANCH  28  29
ATOM     29  N   UNL     1      -4.438  12.606  25.549  0.00  0.00    +0.000 NA
ATOM     30  H   UNL     1      -4.283  11.716  26.017  0.00  0.00    +0.000 HD
ATOM     31  H   UNL     1      -5.394  12.881  25.767  0.00  0.00    +0.000 HD
ENDBRANCH  28  29
ENDBRANCH  27  28
ENDBRANCH  26  27
ENDBRANCH  25  26
ENDBRANCH  24  25
ENDBRANCH  18  24
ENDBRANCH  17  21
ENDBRANCH   1  17
TORSDOF 10
ENDMDL
