MODEL 1
REMARK VINA RESULT:      -8.2      0.000      0.000
REMARK  Name = 
REMARK  7 active torsions:
REMARK  status: ('A' for Active; 'I' for Inactive)
REMARK    1  A    between atoms: C_2  and  C_3
REMARK    2  A    between atoms: C_3  and  S_4
REMARK    3  A    between atoms: S_4  and  C_5
REMARK    4  A    between atoms: N_9  and  C_10
REMARK    5  A    between atoms: N_15  and  C_16
REMARK    6  A    between atoms: C_20  and  N_21
REMARK    7  A    between atoms: C_22  and  C_24
REMARK                            x       y       z     vdW  Elec       q    Type
REMARK                         _______ _______ _______ _____ _____    ______ ____
ROOT
ATOM      1  O   UNL     1       1.571   8.163  19.470  0.00  0.00    +0.000 OA
ATOM      2  C   UNL     1       1.617   7.748  20.627  0.00  0.00    +0.000 C 
ATOM      3  N   UNL     1       1.800   6.421  21.006  0.00  0.00    +0.000 N 
ATOM      4  H   UNL     1       1.929   6.224  21.991  0.00  0.00    +0.000 HD
ENDROOT
BRANCH   3   5
ATOM      5  C   UNL     1       1.920   5.317  20.124  0.00  0.00    +0.000 A 
ATOM      6  C   UNL     1       1.102   4.192  20.226  0.00  0.00    +0.000 A 
ATOM      7  C   UNL     1       1.209   3.153  19.309  0.00  0.00    +0.000 A 
ATOM      8  C   UNL     1       2.134   3.226  18.272  0.00  0.00    +0.000 A 
ATOM      9  C   UNL     1       2.985   4.327  18.151  0.00  0.00    +0.000 A 
ATOM     10  C   UNL     1       2.889   5.362  19.101  0.00  0.00    +0.000 A 
BRANCH   9  11
ATOM     11  N   UNL     1       3.914   4.462  17.088  0.00  0.00    +0.000 N 
ATOM     12  C   UNL     1       5.299   4.372  17.172  0.00  0.00    +0.000 C 
ATOM     13  O   UNL     1       5.941   4.237  18.208  0.00  0.00    +0.000 OA
ATOM     14  H   UNL     1       3.547   4.598  16.154  0.00  0.00    +0.000 HD
BRANCH  12  15
ATOM     15  C   UNL     1       5.977   4.443  15.888  0.00  0.00    +0.000 A 
ATOM     16  C   UNL     1       5.572   3.982  14.646  0.00  0.00    +0.000 A 
ATOM     17  C   UNL     1       6.592   4.333  13.729  0.00  0.00    +0.000 A 
ATOM     18  C   UNL     1       7.555   4.986  14.466  0.00  0.00    +0.000 A 
ATOM     19  O   UNL     1       7.195   5.056  15.775  0.00  0.00    +0.000 OA
ENDBRANCH  12  15
ENDBRANCH   9  11
ENDBRANCH   3   5
BRANCH   2  20
ATOM     20  C   UNL     1       1.535   8.728  21.791  0.00  0.00    +0.000 C 
BRANCH  20  21
ATOM     21  S   UNL     1      -0.101   9.534  21.831  0.00  0.00    +0.000 S 
BRANCH  21  22
ATOM     22  C   UNL     1       0.257  10.984  20.970  0.00  0.00    +0.000 A 
ATOM     23  N   UNL     1       1.163  11.873  21.309  0.00  0.00    +0.000 NA
ATOM     24  N   UNL     1       1.131  12.832  20.330  0.00  0.00    +0.000 NA
ATOM     25  N   UNL     1       0.226  12.542  19.407  0.00  0.00    +0.000 NA
ATOM     26  N   UNL     1      -0.342  11.381  19.808  0.00  0.00    +0.000 N 
BRANCH  26  27
ATOM     27  C   UNL     1      -1.411  10.790  19.035  0.00  0.00    +0.000 C 
ATOM     28  C   UNL     1      -2.307  11.825  18.349  0.00  0.00    +0.000 C 
ATOM     29  C   UNL     1      -2.972  11.066  17.210  0.00  0.00    +0.000 C 
ATOM     30  C   UNL     1      -2.017   9.941  16.827  0.00  0.00    +0.000 C 
ATOM     31  C   UNL     1      -0.916   9.910  17.884  0.00  0.00    +0.000 C 
ENDBRANCH  26  27
ENDBRANCH  21  22
ENDBRANCH  20  21
ENDBRANCH   2  20
TORSDOF 7
ENDMDL
MODEL 2
REMARK VINA RESULT:      -7.9      6.162      8.407
REMARK  Name = 
REMARK  7 active torsions:
REMARK  status: ('A' for Active; 'I' for Inactive)
REMARK    1  A    between atoms: C_2  and  C_3
REMARK    2  A    between atoms: C_3  and  S_4
REMARK    3  A    between atoms: S_4  and  C_5
REMARK    4  A    between atoms: N_9  and  C_10
REMARK    5  A    between atoms: N_15  and  C_16
REMARK    6  A    between atoms: C_20  and  N_21
REMARK    7  A    between atoms: C_22  and  C_24
REMARK                            x       y       z     vdW  Elec       q    Type
REMARK                         _______ _______ _______ _____ _____    ______ ____
ROOT
ATOM      1  O   UNL     1       8.530   7.562  18.716  0.00  0.00    +0.000 OA
ATOM      2  C   UNL     1       7.991   8.291  17.884  0.00  0.00    +0.000 C 
ATOM      3  N   UNL     1       7.065   7.884  16.928  0.00  0.00    +0.000 N 
ATOM      4  H   UNL     1       6.612   8.600  16.373  0.00  0.00    +0.000 HD
ENDROOT
BRANCH   3   5
ATOM      5  C   UNL     1       6.619   6.553  16.722  0.00  0.00    +0.000 A 
ATOM      6  C   UNL     1       7.239   5.693  15.815  0.00  0.00    +0.000 A 
ATOM      7  C   UNL     1       6.811   4.378  15.679  0.00  0.00    +0.000 A 
ATOM      8  C   UNL     1       5.758   3.901  16.454  0.00  0.00    +0.000 A 
ATOM      9  C   UNL     1       5.099   4.737  17.356  0.00  0.00    +0.000 A 
ATOM     10  C   UNL     1       5.520   6.077  17.466  0.00  0.00    +0.000 A 
BRANCH   9  11
ATOM     11  N   UNL     1       4.048   4.283  18.193  0.00  0.00    +0.000 N 
ATOM     12  C   UNL     1       4.171   3.537  19.360  0.00  0.00    +0.000 C 
ATOM     13  O   UNL     1       5.220   3.087  19.809  0.00  0.00    +0.000 OA
ATOM     14  H   UNL     1       3.102   4.554  17.954  0.00  0.00    +0.000 HD
BRANCH  12  15
ATOM     15  C   UNL     1       2.917   3.318  20.060  0.00  0.00    +0.000 A 
ATOM     16  C   UNL     1       1.633   3.715  19.722  0.00  0.00    +0.000 A 
ATOM     17  C   UNL     1       0.774   3.219  20.731  0.00  0.00    +0.000 A 
ATOM     18  C   UNL     1       1.584   2.550  21.622  0.00  0.00    +0.000 A 
ATOM     19  O   UNL     1       2.883   2.605  21.227  0.00  0.00    +0.000 OA
ENDBRANCH  12  15
ENDBRANCH   9  11
ENDBRANCH   3   5
BRANCH   2  20
ATOM     20  C   UNL     1       8.271   9.788  17.888  0.00  0.00    +0.000 C 
BRANCH  20  21
ATOM     21  S   UNL     1       9.257  10.249  19.353  0.00  0.00    +0.000 S 
BRANCH  21  22
ATOM     22  C   UNL     1      10.220  11.511  18.683  0.00  0.00    +0.000 A 
ATOM     23  N   UNL     1      10.918  11.434  17.572  0.00  0.00    +0.000 NA
ATOM     24  N   UNL     1      11.493  12.668  17.405  0.00  0.00    +0.000 NA
ATOM     25  N   UNL     1      11.156  13.488  18.390  0.00  0.00    +0.000 NA
ATOM     26  N   UNL     1      10.361  12.763  19.210  0.00  0.00    +0.000 N 
BRANCH  26  27
ATOM     27  C   UNL     1       9.838  13.352  20.422  0.00  0.00    +0.000 C 
ATOM     28  C   UNL     1       8.368  13.767  20.308  0.00  0.00    +0.000 C 
ATOM     29  C   UNL     1       7.872  13.833  21.745  0.00  0.00    +0.000 C 
ATOM     30  C   UNL     1       8.731  12.857  22.541  0.00  0.00    +0.000 C 
ATOM     31  C   UNL     1       9.860  12.401  21.622  0.00  0.00    +0.000 C 
ENDBRANCH  26  27
ENDBRANCH  21  22
ENDBRANCH  20  21
ENDBRANCH   2  20
TORSDOF 7
ENDMDL
MODEL 3
REMARK VINA RESULT:      -7.9      3.342      8.906
REMARK  Name = 
REMARK  7 active torsions:
REMARK  status: ('A' for Active; 'I' for Inactive)
REMARK    1  A    between atoms: C_2  and  C_3
REMARK    2  A    between atoms: C_3  and  S_4
REMARK    3  A    between atoms: S_4  and  C_5
REMARK    4  A    between atoms: N_9  and  C_10
REMARK    5  A    between atoms: N_15  and  C_16
REMARK    6  A    between atoms: C_20  and  N_21
REMARK    7  A    between atoms: C_22  and  C_24
REMARK                            x       y       z     vdW  Elec       q    Type
REMARK                         _______ _______ _______ _____ _____    ______ ____
ROOT
ATOM      1  O   UNL     1       0.474   4.627  20.402  0.00  0.00    +0.000 OA
ATOM      2  C   UNL     1       1.670   4.585  20.689  0.00  0.00    +0.000 C 
ATOM      3  N   UNL     1       2.603   5.583  20.422  0.00  0.00    +0.000 N 
ATOM      4  H   UNL     1       3.534   5.475  20.806  0.00  0.00    +0.000 HD
ENDROOT
BRANCH   3   5
ATOM      5  C   UNL     1       2.343   6.797  19.736  0.00  0.00    +0.000 A 
ATOM      6  C   UNL     1       2.697   6.986  18.400  0.00  0.00    +0.000 A 
ATOM      7  C   UNL     1       2.377   8.168  17.742  0.00  0.00    +0.000 A 
ATOM      8  C   UNL     1       1.691   9.178  18.411  0.00  0.00    +0.000 A 
ATOM      9  C   UNL     1       1.340   9.034  19.755  0.00  0.00    +0.000 A 
ATOM     10  C   UNL     1       1.694   7.844  20.421  0.00  0.00    +0.000 A 
BRANCH   9  11
ATOM     11  N   UNL     1       0.607  10.020  20.464  0.00  0.00    +0.000 N 
ATOM     12  C   UNL     1       0.297  10.018  21.820  0.00  0.00    +0.000 C 
ATOM     13  O   UNL     1       0.550   9.110  22.605  0.00  0.00    +0.000 OA
ATOM     14  H   UNL     1       0.303  10.840  19.954  0.00  0.00    +0.000 HD
BRANCH  12  15
ATOM     15  C   UNL     1      -0.371  11.224  22.277  0.00  0.00    +0.000 A 
ATOM     16  C   UNL     1      -1.490  11.366  23.081  0.00  0.00    +0.000 A 
ATOM     17  C   UNL     1      -1.703  12.756  23.242  0.00  0.00    +0.000 A 
ATOM     18  C   UNL     1      -0.702  13.377  22.528  0.00  0.00    +0.000 A 
ATOM     19  O   UNL     1       0.109  12.460  21.938  0.00  0.00    +0.000 OA
ENDBRANCH  12  15
ENDBRANCH   9  11
ENDBRANCH   3   5
BRANCH   2  20
ATOM     20  C   UNL     1       2.227   3.394  21.457  0.00  0.00    +0.000 C 
BRANCH  20  21
ATOM     21  S   UNL     1       3.729   2.756  20.642  0.00  0.00    +0.000 S 
BRANCH  21  22
ATOM     22  C   UNL     1       3.316   3.033  18.992  0.00  0.00    +0.000 A 
ATOM     23  N   UNL     1       2.151   2.780  18.441  0.00  0.00    +0.000 NA
ATOM     24  N   UNL     1       2.257   3.185  17.135  0.00  0.00    +0.000 NA
ATOM     25  N   UNL     1       3.462   3.678  16.886  0.00  0.00    +0.000 NA
ATOM     26  N   UNL     1       4.144   3.575  18.049  0.00  0.00    +0.000 N 
BRANCH  26  27
ATOM     27  C   UNL     1       5.525   3.996  18.122  0.00  0.00    +0.000 C 
ATOM     28  C   UNL     1       6.103   4.413  16.767  0.00  0.00    +0.000 C 
ATOM     29  C   UNL     1       7.293   5.298  17.110  0.00  0.00    +0.000 C 
ATOM     30  C   UNL     1       6.989   5.919  18.469  0.00  0.00    +0.000 C 
ATOM     31  C   UNL     1       5.742   5.225  19.010  0.00  0.00    +0.000 C 
ENDBRANCH  26  27
ENDBRANCH  21  22
ENDBRANCH  20  21
ENDBRANCH   2  20
TORSDOF 7
ENDMDL
MODEL 4
REMARK VINA RESULT:      -7.8      3.307      9.161
REMARK  Name = 
REMARK  7 active torsions:
REMARK  status: ('A' for Active; 'I' for Inactive)
REMARK    1  A    between atoms: C_2  and  C_3
REMARK    2  A    between atoms: C_3  and  S_4
REMARK    3  A    between atoms: S_4  and  C_5
REMARK    4  A    between atoms: N_9  and  C_10
REMARK    5  A    between atoms: N_15  and  C_16
REMARK    6  A    between atoms: C_20  and  N_21
REMARK    7  A    between atoms: C_22  and  C_24
REMARK                            x       y       z     vdW  Elec       q    Type
REMARK                         _______ _______ _______ _____ _____    ______ ____
ROOT
ATOM      1  O   UNL     1       6.561   5.570  19.564  0.00  0.00    +0.000 OA
ATOM      2  C   UNL     1       6.111   5.229  18.471  0.00  0.00    +0.000 C 
ATOM      3  N   UNL     1       4.761   5.102  18.154  0.00  0.00    +0.000 N 
ATOM      4  H   UNL     1       4.517   4.920  17.188  0.00  0.00    +0.000 HD
ENDROOT
BRANCH   3   5
ATOM      5  C   UNL     1       3.678   5.301  19.048  0.00  0.00    +0.000 A 
ATOM      6  C   UNL     1       3.169   4.272  19.840  0.00  0.00    +0.000 A 
ATOM      7  C   UNL     1       2.144   4.516  20.747  0.00  0.00    +0.000 A 
ATOM      8  C   UNL     1       1.617   5.797  20.878  0.00  0.00    +0.000 A 
ATOM      9  C   UNL     1       2.085   6.848  20.087  0.00  0.00    +0.000 A 
ATOM     10  C   UNL     1       3.104   6.584  19.151  0.00  0.00    +0.000 A 
BRANCH   9  11
ATOM     11  N   UNL     1       1.604   8.176  20.216  0.00  0.00    +0.000 N 
ATOM     12  C   UNL     1       1.416   9.100  19.193  0.00  0.00    +0.000 C 
ATOM     13  O   UNL     1       1.714   8.928  18.017  0.00  0.00    +0.000 OA
ATOM     14  H   UNL     1       1.325   8.490  21.137  0.00  0.00    +0.000 HD
BRANCH  12  15
ATOM     15  C   UNL     1       0.802  10.344  19.625  0.00  0.00    +0.000 A 
ATOM     16  C   UNL     1      -0.293  11.018  19.108  0.00  0.00    +0.000 A 
ATOM     17  C   UNL     1      -0.486  12.163  19.917  0.00  0.00    +0.000 A 
ATOM     18  C   UNL     1       0.501  12.119  20.876  0.00  0.00    +0.000 A 
ATOM     19  O   UNL     1       1.288  11.024  20.708  0.00  0.00    +0.000 OA
ENDBRANCH  12  15
ENDBRANCH   9  11
ENDBRANCH   3   5
BRANCH   2  20
ATOM     20  C   UNL     1       7.056   4.969  17.305  0.00  0.00    +0.000 C 
BRANCH  20  21
ATOM     21  S   UNL     1       6.228   3.972  16.022  0.00  0.00    +0.000 S 
BRANCH  21  22
ATOM     22  C   UNL     1       6.969   4.624  14.610  0.00  0.00    +0.000 A 
ATOM     23  N   UNL     1       7.900   5.551  14.591  0.00  0.00    +0.000 NA
ATOM     24  N   UNL     1       8.220   5.735  13.271  0.00  0.00    +0.000 NA
ATOM     25  N   UNL     1       7.502   4.940  12.491  0.00  0.00    +0.000 NA
ATOM     26  N   UNL     1       6.698   4.241  13.326  0.00  0.00    +0.000 N 
BRANCH  26  27
ATOM     27  C   UNL     1       5.747   3.292  12.795  0.00  0.00    +0.000 C 
ATOM     28  C   UNL     1       4.685   3.936  11.899  0.00  0.00    +0.000 C 
ATOM     29  C   UNL     1       4.159   2.794  11.041  0.00  0.00    +0.000 C 
ATOM     30  C   UNL     1       5.294   1.781  10.931  0.00  0.00    +0.000 C 
ATOM     31  C   UNL     1       6.384   2.224  11.902  0.00  0.00    +0.000 C 
ENDBRANCH  26  27
ENDBRANCH  21  22
ENDBRANCH  20  21
ENDBRANCH   2  20
TORSDOF 7
ENDMDL
MODEL 5
REMARK VINA RESULT:      -7.7      3.209      9.819
REMARK  Name = 
REMARK  7 active torsions:
REMARK  status: ('A' for Active; 'I' for Inactive)
REMARK    1  A    between atoms: C_2  and  C_3
REMARK    2  A    between atoms: C_3  and  S_4
REMARK    3  A    between atoms: S_4  and  C_5
REMARK    4  A    between atoms: N_9  and  C_10
REMARK    5  A    between atoms: N_15  and  C_16
REMARK    6  A    between atoms: C_20  and  N_21
REMARK    7  A    between atoms: C_22  and  C_24
REMARK                            x       y       z     vdW  Elec       q    Type
REMARK                         _______ _______ _______ _____ _____    ______ ____
ROOT
ATOM      1  O   UNL     1       2.287   8.874  17.430  0.00  0.00    +0.000 OA
ATOM      2  C   UNL     1       2.035   8.614  18.606  0.00  0.00    +0.000 C 
ATOM      3  N   UNL     1       1.297   9.414  19.474  0.00  0.00    +0.000 N 
ATOM      4  H   UNL     1       1.068   9.038  20.385  0.00  0.00    +0.000 HD
ENDROOT
BRANCH   3   5
ATOM      5  C   UNL     1       0.748  10.685  19.162  0.00  0.00    +0.000 A 
ATOM      6  C   UNL     1       1.539  11.754  18.741  0.00  0.00    +0.000 A 
ATOM      7  C   UNL     1       0.961  12.968  18.390  0.00  0.00    +0.000 A 
ATOM      8  C   UNL     1      -0.420  13.129  18.450  0.00  0.00    +0.000 A 
ATOM      9  C   UNL     1      -1.243  12.089  18.888  0.00  0.00    +0.000 A 
ATOM     10  C   UNL     1      -0.645  10.871  19.269  0.00  0.00    +0.000 A 
BRANCH   9  11
ATOM     11  N   UNL     1      -2.656  12.196  18.927  0.00  0.00    +0.000 N 
ATOM     12  C   UNL     1      -3.561  11.661  18.017  0.00  0.00    +0.000 C 
ATOM     13  O   UNL     1      -3.265  11.069  16.984  0.00  0.00    +0.000 OA
ATOM     14  H   UNL     1      -3.072  12.677  19.715  0.00  0.00    +0.000 HD
BRANCH  12  15
ATOM     15  C   UNL     1      -4.954  11.845  18.387  0.00  0.00    +0.000 A 
ATOM     16  C   UNL     1      -5.515  12.683  19.337  0.00  0.00    +0.000 A 
ATOM     17  C   UNL     1      -6.916  12.493  19.273  0.00  0.00    +0.000 A 
ATOM     18  C   UNL     1      -7.125  11.552  18.289  0.00  0.00    +0.000 A 
ATOM     19  O   UNL     1      -5.945  11.151  17.747  0.00  0.00    +0.000 OA
ENDBRANCH  12  15
ENDBRANCH   9  11
ENDBRANCH   3   5
BRANCH   2  20
ATOM     20  C   UNL     1       2.489   7.290  19.207  0.00  0.00    +0.000 C 
BRANCH  20  21
ATOM     21  S   UNL     1       2.688   6.032  17.901  0.00  0.00    +0.000 S 
BRANCH  21  22
ATOM     22  C   UNL     1       4.133   5.263  18.442  0.00  0.00    +0.000 A 
ATOM     23  N   UNL     1       5.356   5.677  18.202  0.00  0.00    +0.000 NA
ATOM     24  N   UNL     1       6.184   4.794  18.846  0.00  0.00    +0.000 NA
ATOM     25  N   UNL     1       5.486   3.855  19.470  0.00  0.00    +0.000 NA
ATOM     26  N   UNL     1       4.188   4.135  19.211  0.00  0.00    +0.000 N 
BRANCH  26  27
ATOM     27  C   UNL     1       3.144   3.275  19.719  0.00  0.00    +0.000 C 
ATOM     28  C   UNL     1       2.291   3.936  20.806  0.00  0.00    +0.000 C 
ATOM     29  C   UNL     1       0.990   3.146  20.810  0.00  0.00    +0.000 C 
ATOM     30  C   UNL     1       0.823   2.585  19.402  0.00  0.00    +0.000 C 
ATOM     31  C   UNL     1       2.126   2.857  18.655  0.00  0.00    +0.000 C 
ENDBRANCH  26  27
ENDBRANCH  21  22
ENDBRANCH  20  21
ENDBRANCH   2  20
TORSDOF 7
ENDMDL
MODEL 6
REMARK VINA RESULT:      -7.7      3.296      9.978
REMARK  Name = 
REMARK  7 active torsions:
REMARK  status: ('A' for Active; 'I' for Inactive)
REMARK    1  A    between atoms: C_2  and  C_3
REMARK    2  A    between atoms: C_3  and  S_4
REMARK    3  A    between atoms: S_4  and  C_5
REMARK    4  A    between atoms: N_9  and  C_10
REMARK    5  A    between atoms: N_15  and  C_16
REMARK    6  A    between atoms: C_20  and  N_21
REMARK    7  A    between atoms: C_22  and  C_24
REMARK                            x       y       z     vdW  Elec       q    Type
REMARK                         _______ _______ _______ _____ _____    ______ ____
ROOT
ATOM      1  O   UNL     1       2.258   9.228  17.090  0.00  0.00    +0.000 OA
ATOM      2  C   UNL     1       2.096   8.827  18.242  0.00  0.00    +0.000 C 
ATOM      3  N   UNL     1       1.350   9.470  19.226  0.00  0.00    +0.000 N 
ATOM      4  H   UNL     1       1.203   8.983  20.102  0.00  0.00    +0.000 HD
ENDROOT
BRANCH   3   5
ATOM      5  C   UNL     1       0.686  10.715  19.081  0.00  0.00    +0.000 A 
ATOM      6  C   UNL     1       1.382  11.919  18.966  0.00  0.00    +0.000 A 
ATOM      7  C   UNL     1       0.701  13.114  18.768  0.00  0.00    +0.000 A 
ATOM      8  C   UNL     1      -0.688  13.122  18.676  0.00  0.00    +0.000 A 
ATOM      9  C   UNL     1      -1.420  11.940  18.808  0.00  0.00    +0.000 A 
ATOM     10  C   UNL     1      -0.722  10.738  19.037  0.00  0.00    +0.000 A 
BRANCH   9  11
ATOM     11  N   UNL     1      -2.832  11.897  18.682  0.00  0.00    +0.000 N 
ATOM     12  C   UNL     1      -3.768  12.335  19.612  0.00  0.00    +0.000 C 
ATOM     13  O   UNL     1      -3.511  12.763  20.732  0.00  0.00    +0.000 OA
ATOM     14  H   UNL     1      -3.218  11.549  17.813  0.00  0.00    +0.000 HD
BRANCH  12  15
ATOM     15  C   UNL     1      -5.143  12.261  19.149  0.00  0.00    +0.000 A 
ATOM     16  C   UNL     1      -6.169  13.184  19.267  0.00  0.00    +0.000 A 
ATOM     17  C   UNL     1      -7.297  12.626  18.619  0.00  0.00    +0.000 A 
ATOM     18  C   UNL     1      -6.891  11.399  18.144  0.00  0.00    +0.000 A 
ATOM     19  O   UNL     1      -5.590  11.166  18.460  0.00  0.00    +0.000 OA
ENDBRANCH  12  15
ENDBRANCH   9  11
ENDBRANCH   3   5
BRANCH   2  20
ATOM     20  C   UNL     1       2.686   7.491  18.674  0.00  0.00    +0.000 C 
BRANCH  20  21
ATOM     21  S   UNL     1       3.824   6.854  17.399  0.00  0.00    +0.000 S 
BRANCH  21  22
ATOM     22  C   UNL     1       4.599   5.598  18.288  0.00  0.00    +0.000 A 
ATOM     23  N   UNL     1       5.872   5.562  18.612  0.00  0.00    +0.000 NA
ATOM     24  N   UNL     1       6.041   4.413  19.340  0.00  0.00    +0.000 NA
ATOM     25  N   UNL     1       4.898   3.753  19.463  0.00  0.00    +0.000 NA
ATOM     26  N   UNL     1       3.982   4.487  18.791  0.00  0.00    +0.000 N 
BRANCH  26  27
ATOM     27  C   UNL     1       2.614   4.030  18.693  0.00  0.00    +0.000 C 
ATOM     28  C   UNL     1       2.495   2.556  18.298  0.00  0.00    +0.000 C 
ATOM     29  C   UNL     1       1.109   2.141  18.769  0.00  0.00    +0.000 C 
ATOM     30  C   UNL     1       0.766   3.044  19.948  0.00  0.00    +0.000 C 
ATOM     31  C   UNL     1       1.845   4.122  20.014  0.00  0.00    +0.000 C 
ENDBRANCH  26  27
ENDBRANCH  21  22
ENDBRANCH  20  21
ENDBRANCH   2  20
TORSDOF 7
ENDMDL
MODEL 7
REMARK VINA RESULT:      -7.7      1.944      2.610
REMARK  Name = 
REMARK  7 active torsions:
REMARK  status: ('A' for Active; 'I' for Inactive)
REMARK    1  A    between atoms: C_2  and  C_3
REMARK    2  A    between atoms: C_3  and  S_4
REMARK    3  A    between atoms: S_4  and  C_5
REMARK    4  A    between atoms: N_9  and  C_10
REMARK    5  A    between atoms: N_15  and  C_16
REMARK    6  A    between atoms: C_20  and  N_21
REMARK    7  A    between atoms: C_22  and  C_24
REMARK                            x       y       z     vdW  Elec       q    Type
REMARK                         _______ _______ _______ _____ _____    ______ ____
ROOT
ATOM      1  O   UNL     1       2.002   8.171  19.372  0.00  0.00    +0.000 OA
ATOM      2  C   UNL     1       1.617   7.908  20.510  0.00  0.00    +0.000 C 
ATOM      3  N   UNL     1       1.625   6.646  21.097  0.00  0.00    +0.000 N 
ATOM      4  H   UNL     1       1.384   6.579  22.078  0.00  0.00    +0.000 HD
ENDROOT
BRANCH   3   5
ATOM      5  C   UNL     1       2.036   5.443  20.468  0.00  0.00    +0.000 A 
ATOM      6  C   UNL     1       1.575   4.193  20.881  0.00  0.00    +0.000 A 
ATOM      7  C   UNL     1       1.955   3.039  20.205  0.00  0.00    +0.000 A 
ATOM      8  C   UNL     1       2.798   3.120  19.101  0.00  0.00    +0.000 A 
ATOM      9  C   UNL     1       3.297   4.351  18.671  0.00  0.00    +0.000 A 
ATOM     10  C   UNL     1       2.930   5.512  19.380  0.00  0.00    +0.000 A 
BRANCH   9  11
ATOM     11  N   UNL     1       4.127   4.483  17.529  0.00  0.00    +0.000 N 
ATOM     12  C   UNL     1       5.514   4.397  17.488  0.00  0.00    +0.000 C 
ATOM     13  O   UNL     1       6.247   4.266  18.463  0.00  0.00    +0.000 OA
ATOM     14  H   UNL     1       3.677   4.616  16.631  0.00  0.00    +0.000 HD
BRANCH  12  15
ATOM     15  C   UNL     1       6.074   4.464  16.149  0.00  0.00    +0.000 A 
ATOM     16  C   UNL     1       5.540   4.039  14.943  0.00  0.00    +0.000 A 
ATOM     17  C   UNL     1       6.483   4.368  13.941  0.00  0.00    +0.000 A 
ATOM     18  C   UNL     1       7.534   4.973  14.594  0.00  0.00    +0.000 A 
ATOM     19  O   UNL     1       7.298   5.035  15.932  0.00  0.00    +0.000 OA
ENDBRANCH  12  15
ENDBRANCH   9  11
ENDBRANCH   3   5
BRANCH   2  20
ATOM     20  C   UNL     1       1.137   9.024  21.429  0.00  0.00    +0.000 C 
BRANCH  20  21
ATOM     21  S   UNL     1      -0.097  10.064  20.578  0.00  0.00    +0.000 S 
BRANCH  21  22
ATOM     22  C   UNL     1       0.417  11.625  21.095  0.00  0.00    +0.000 A 
ATOM     23  N   UNL     1       1.639  12.098  21.004  0.00  0.00    +0.000 NA
ATOM     24  N   UNL     1       1.584  13.377  21.497  0.00  0.00    +0.000 NA
ATOM     25  N   UNL     1       0.354  13.686  21.882  0.00  0.00    +0.000 NA
ATOM     26  N   UNL     1      -0.390  12.582  21.645  0.00  0.00    +0.000 N 
BRANCH  26  27
ATOM     27  C   UNL     1      -1.794  12.563  21.988  0.00  0.00    +0.000 C 
ATOM     28  C   UNL     1      -2.082  11.872  23.323  0.00  0.00    +0.000 C 
ATOM     29  C   UNL     1      -3.437  12.415  23.754  0.00  0.00    +0.000 C 
ATOM     30  C   UNL     1      -3.566  13.798  23.126  0.00  0.00    +0.000 C 
ATOM     31  C   UNL     1      -2.399  13.960  22.156  0.00  0.00    +0.000 C 
ENDBRANCH  26  27
ENDBRANCH  21  22
ENDBRANCH  20  21
ENDBRANCH   2  20
TORSDOF 7
ENDMDL
MODEL 8
REMARK VINA RESULT:      -7.7      3.075      9.879
REMARK  Name = 
REMARK  7 active torsions:
REMARK  status: ('A' for Active; 'I' for Inactive)
REMARK    1  A    between atoms: C_2  and  C_3
REMARK    2  A    between atoms: C_3  and  S_4
REMARK    3  A    between atoms: S_4  and  C_5
REMARK    4  A    between atoms: N_9  and  C_10
REMARK    5  A    between atoms: N_15  and  C_16
REMARK    6  A    between atoms: C_20  and  N_21
REMARK    7  A    between atoms: C_22  and  C_24
REMARK                            x       y       z     vdW  Elec       q    Type
REMARK                         _______ _______ _______ _____ _____    ______ ____
ROOT
ATOM      1  O   UNL     1       1.365   8.967  21.400  0.00  0.00    +0.000 OA
ATOM      2  C   UNL     1       1.468   8.471  20.279  0.00  0.00    +0.000 C 
ATOM      3  N   UNL     1       1.160   9.108  19.080  0.00  0.00    +0.000 N 
ATOM      4  H   UNL     1       1.391   8.630  18.217  0.00  0.00    +0.000 HD
ENDROOT
BRANCH   3   5
ATOM      5  C   UNL     1       0.635  10.420  18.950  0.00  0.00    +0.000 A 
ATOM      6  C   UNL     1       1.456  11.542  18.848  0.00  0.00    +0.000 A 
ATOM      7  C   UNL     1       0.908  12.807  18.665  0.00  0.00    +0.000 A 
ATOM      8  C   UNL     1      -0.471  12.966  18.575  0.00  0.00    +0.000 A 
ATOM      9  C   UNL     1      -1.326  11.868  18.693  0.00  0.00    +0.000 A 
ATOM     10  C   UNL     1      -0.763  10.595  18.908  0.00  0.00    +0.000 A 
BRANCH   9  11
ATOM     11  N   UNL     1      -2.735  11.979  18.568  0.00  0.00    +0.000 N 
ATOM     12  C   UNL     1      -3.516  11.547  17.501  0.00  0.00    +0.000 C 
ATOM     13  O   UNL     1      -3.089  11.065  16.457  0.00  0.00    +0.000 OA
ATOM     14  H   UNL     1      -3.249  12.376  19.345  0.00  0.00    +0.000 HD
BRANCH  12  15
ATOM     15  C   UNL     1      -4.945  11.699  17.713  0.00  0.00    +0.000 A 
ATOM     16  C   UNL     1      -5.840  12.577  17.123  0.00  0.00    +0.000 A 
ATOM     17  C   UNL     1      -7.114  12.287  17.666  0.00  0.00    +0.000 A 
ATOM     18  C   UNL     1      -6.920  11.251  18.552  0.00  0.00    +0.000 A 
ATOM     19  O   UNL     1      -5.611  10.888  18.591  0.00  0.00    +0.000 OA
ENDBRANCH  12  15
ENDBRANCH   9  11
ENDBRANCH   3   5
BRANCH   2  20
ATOM     20  C   UNL     1       2.032   7.066  20.116  0.00  0.00    +0.000 C 
BRANCH  20  21
ATOM     21  S   UNL     1       3.210   7.009  18.725  0.00  0.00    +0.000 S 
BRANCH  21  22
ATOM     22  C   UNL     1       2.849   5.449  18.088  0.00  0.00    +0.000 A 
ATOM     23  N   UNL     1       1.766   4.750  18.343  0.00  0.00    +0.000 NA
ATOM     24  N   UNL     1       1.879   3.601  17.603  0.00  0.00    +0.000 NA
ATOM     25  N   UNL     1       3.006   3.592  16.906  0.00  0.00    +0.000 NA
ATOM     26  N   UNL     1       3.633   4.750  17.214  0.00  0.00    +0.000 N 
BRANCH  26  27
ATOM     27  C   UNL     1       4.927   5.050  16.646  0.00  0.00    +0.000 C 
ATOM     28  C   UNL     1       6.095   4.654  17.554  0.00  0.00    +0.000 C 
ATOM     29  C   UNL     1       7.288   4.530  16.617  0.00  0.00    +0.000 C 
ATOM     30  C   UNL     1       6.724   4.166  15.248  0.00  0.00    +0.000 C 
ATOM     31  C   UNL     1       5.207   4.303  15.338  0.00  0.00    +0.000 C 
ENDBRANCH  26  27
ENDBRANCH  21  22
ENDBRANCH  20  21
ENDBRANCH   2  20
TORSDOF 7
ENDMDL
MODEL 9
REMARK VINA RESULT:      -7.7      0.769      1.175
REMARK  Name = 
REMARK  7 active torsions:
REMARK  status: ('A' for Active; 'I' for Inactive)
REMARK    1  A    between atoms: C_2  and  C_3
REMARK    2  A    between atoms: C_3  and  S_4
REMARK    3  A    between atoms: S_4  and  C_5
REMARK    4  A    between atoms: N_9  and  C_10
REMARK    5  A    between atoms: N_15  and  C_16
REMARK    6  A    between atoms: C_20  and  N_21
REMARK    7  A    between atoms: C_22  and  C_24
REMARK                            x       y       z     vdW  Elec       q    Type
REMARK                         _______ _______ _______ _____ _____    ______ ____
ROOT
ATOM      1  O   UNL     1       1.950   8.396  19.448  0.00  0.00    +0.000 OA
ATOM      2  C   UNL     1       1.609   8.093  20.591  0.00  0.00    +0.000 C 
ATOM      3  N   UNL     1       1.542   6.800  21.101  0.00  0.00    +0.000 N 
ATOM      4  H   UNL     1       1.352   6.690  22.090  0.00  0.00    +0.000 HD
ENDROOT
BRANCH   3   5
ATOM      5  C   UNL     1       1.813   5.610  20.378  0.00  0.00    +0.000 A 
ATOM      6  C   UNL     1       1.161   4.408  20.653  0.00  0.00    +0.000 A 
ATOM      7  C   UNL     1       1.410   3.275  19.887  0.00  0.00    +0.000 A 
ATOM      8  C   UNL     1       2.313   3.329  18.830  0.00  0.00    +0.000 A 
ATOM      9  C   UNL     1       3.001   4.509  18.538  0.00  0.00    +0.000 A 
ATOM     10  C   UNL     1       2.764   5.644  19.338  0.00  0.00    +0.000 A 
BRANCH   9  11
ATOM     11  N   UNL     1       3.899   4.620  17.446  0.00  0.00    +0.000 N 
ATOM     12  C   UNL     1       5.270   4.381  17.462  0.00  0.00    +0.000 C 
ATOM     13  O   UNL     1       5.931   4.107  18.458  0.00  0.00    +0.000 OA
ATOM     14  H   UNL     1       3.515   4.859  16.540  0.00  0.00    +0.000 HD
BRANCH  12  15
ATOM     15  C   UNL     1       5.903   4.471  16.158  0.00  0.00    +0.000 A 
ATOM     16  C   UNL     1       7.190   4.857  15.822  0.00  0.00    +0.000 A 
ATOM     17  C   UNL     1       7.299   4.737  14.417  0.00  0.00    +0.000 A 
ATOM     18  C   UNL     1       6.073   4.286  13.980  0.00  0.00    +0.000 A 
ATOM     19  O   UNL     1       5.219   4.122  15.025  0.00  0.00    +0.000 OA
ENDBRANCH  12  15
ENDBRANCH   9  11
ENDBRANCH   3   5
BRANCH   2  20
ATOM     20  C   UNL     1       1.278   9.184  21.601  0.00  0.00    +0.000 C 
BRANCH  20  21
ATOM     21  S   UNL     1      -0.243  10.064  21.115  0.00  0.00    +0.000 S 
BRANCH  21  22
ATOM     22  C   UNL     1       0.438  11.512  20.475  0.00  0.00    +0.000 A 
ATOM     23  N   UNL     1       1.429  12.191  21.005  0.00  0.00    +0.000 NA
ATOM     24  N   UNL     1       1.664  13.239  20.153  0.00  0.00    +0.000 NA
ATOM     25  N   UNL     1       0.835  13.207  19.119  0.00  0.00    +0.000 NA
ATOM     26  N   UNL     1       0.047  12.126  19.319  0.00  0.00    +0.000 N 
BRANCH  26  27
ATOM     27  C   UNL     1      -1.007  11.812  18.381  0.00  0.00    +0.000 C 
ATOM     28  C   UNL     1      -0.938  10.377  17.851  0.00  0.00    +0.000 C 
ATOM     29  C   UNL     1      -2.347  10.079  17.359  0.00  0.00    +0.000 C 
ATOM     30  C   UNL     1      -3.285  10.955  18.183  0.00  0.00    +0.000 C 
ATOM     31  C   UNL     1      -2.411  11.916  18.984  0.00  0.00    +0.000 C 
ENDBRANCH  26  27
ENDBRANCH  21  22
ENDBRANCH  20  21
ENDBRANCH   2  20
TORSDOF 7
ENDMDL
