MODEL 1
REMARK VINA RESULT:      -8.2      0.000      0.000
REMARK  Name = 
REMARK  8 active torsions:
REMARK  status: ('A' for Active; 'I' for Inactive)
REMARK    1  A    between atoms: C_1  and  C_2
REMARK    2  A    between atoms: C_4  and  C_5
REMARK    3  A    between atoms: N_6  and  C_7
REMARK    4  A    between atoms: C_7  and  C_8
REMARK    5  A    between atoms: C_8  and  N_9
REMARK    6  A    between atoms: C_10  and  C_12
REMARK    7  A    between atoms: C_12  and  C_13
REMARK    8  A    between atoms: C_15  and  C_16
REMARK                            x       y       z     vdW  Elec       q    Type
REMARK                         _______ _______ _______ _____ _____    ______ ____
ROOT
ATOM      1  N   UNL     1       5.591   3.708  18.334  0.00  0.00    +0.000 N 
ATOM      2  C   UNL     1       6.181   4.866  18.811  0.00  0.00    +0.000 C 
ATOM      3  O   UNL     1       6.211   5.146  20.007  0.00  0.00    +0.000 OA
ATOM      4  H   UNL     1       5.476   3.667  17.321  0.00  0.00    +0.000 HD
ENDROOT
BRANCH   2   5
ATOM      5  C   UNL     1       6.822   5.760  17.728  0.00  0.00    +0.000 C 
ATOM      6  C   UNL     1       7.858   6.681  18.369  0.00  0.00    +0.000 C 
ATOM      7  C   UNL     1       7.443   4.959  16.603  0.00  0.00    +0.000 C 
ATOM      8  C   UNL     1       6.482   5.260  15.507  0.00  0.00    +0.000 C 
ATOM      9  N   UNL     1       5.542   6.096  15.816  0.00  0.00    +0.000 NA
ATOM     10  O   UNL     1       5.787   6.556  17.131  0.00  0.00    +0.000 OA
BRANCH   8  11
ATOM     11  C   UNL     1       6.665   4.691  14.147  0.00  0.00    +0.000 A 
ATOM     12  C   UNL     1       7.635   5.210  13.279  0.00  0.00    +0.000 A 
ATOM     13  C   UNL     1       7.699   4.770  11.954  0.00  0.00    +0.000 A 
ATOM     14  C   UNL     1       6.806   3.805  11.495  0.00  0.00    +0.000 A 
ATOM     15  C   UNL     1       5.862   3.260  12.363  0.00  0.00    +0.000 A 
ATOM     16  C   UNL     1       5.791   3.699  13.688  0.00  0.00    +0.000 A 
ENDBRANCH   8  11
ENDBRANCH   2   5
BRANCH   1  17
ATOM     17  C   UNL     1       4.735   2.912  19.204  0.00  0.00    +0.000 C 
BRANCH  17  18
ATOM     18  C   UNL     1       3.252   3.063  18.889  0.00  0.00    +0.000 C 
BRANCH  18  24
ATOM     19  C   UNL     1       2.113   7.740  19.325  0.00  0.00    +0.000 C 
ATOM     20  C   UNL     1       2.225   6.296  19.616  0.00  0.00    +0.000 A 
ATOM     21  N   UNL     1       1.772   5.743  20.781  0.00  0.00    +0.000 NA
ATOM     22  C   UNL     1       2.077   4.470  20.658  0.00  0.00    +0.000 A 
ATOM     23  C   UNL     1       1.814   3.405  21.656  0.00  0.00    +0.000 C 
ATOM     24  N   UNL     1       2.689   4.274  19.447  0.00  0.00    +0.000 N 
ATOM     25  N   UNL     1       2.790   5.434  18.768  0.00  0.00    +0.000 NA
ENDBRANCH  18  24
ENDBRANCH  17  18
ENDBRANCH   1  17
TORSDOF 5
ENDMDL
MODEL 2
REMARK VINA RESULT:      -8.1      0.889      1.356
REMARK  Name = 
REMARK  8 active torsions:
REMARK  status: ('A' for Active; 'I' for Inactive)
REMARK    1  A    between atoms: C_1  and  C_2
REMARK    2  A    between atoms: C_4  and  C_5
REMARK    3  A    between atoms: N_6  and  C_7
REMARK    4  A    between atoms: C_7  and  C_8
REMARK    5  A    between atoms: C_8  and  N_9
REMARK    6  A    between atoms: C_10  and  C_12
REMARK    7  A    between atoms: C_12  and  C_13
REMARK    8  A    between atoms: C_15  and  C_16
REMARK                            x       y       z     vdW  Elec       q    Type
REMARK                         _______ _______ _______ _____ _____    ______ ____
ROOT
ATOM      1  N   UNL     1       4.521   3.142  17.913  0.00  0.00    +0.000 N 
ATOM      2  C   UNL     1       5.370   3.903  18.699  0.00  0.00    +0.000 C 
ATOM      3  O   UNL     1       5.445   3.760  19.916  0.00  0.00    +0.000 OA
ATOM      4  H   UNL     1       4.419   3.464  16.950  0.00  0.00    +0.000 HD
ENDROOT
BRANCH   2   5
ATOM      5  C   UNL     1       6.234   4.920  17.922  0.00  0.00    +0.000 C 
ATOM      6  C   UNL     1       7.276   5.529  18.857  0.00  0.00    +0.000 C 
ATOM      7  C   UNL     1       6.898   4.312  16.705  0.00  0.00    +0.000 C 
ATOM      8  C   UNL     1       6.119   4.973  15.624  0.00  0.00    +0.000 C 
ATOM      9  N   UNL     1       5.244   5.839  16.028  0.00  0.00    +0.000 NA
ATOM     10  O   UNL     1       5.373   5.960  17.432  0.00  0.00    +0.000 OA
BRANCH   8  11
ATOM     11  C   UNL     1       6.407   4.700  14.192  0.00  0.00    +0.000 A 
ATOM     12  C   UNL     1       5.695   3.715  13.495  0.00  0.00    +0.000 A 
ATOM     13  C   UNL     1       6.072   3.362  12.196  0.00  0.00    +0.000 A 
ATOM     14  C   UNL     1       7.151   3.998  11.585  0.00  0.00    +0.000 A 
ATOM     15  C   UNL     1       7.841   5.004  12.262  0.00  0.00    +0.000 A 
ATOM     16  C   UNL     1       7.470   5.357  13.562  0.00  0.00    +0.000 A 
ENDBRANCH   8  11
ENDBRANCH   2   5
BRANCH   1  17
ATOM     17  C   UNL     1       3.477   2.337  18.534  0.00  0.00    +0.000 C 
BRANCH  17  18
ATOM     18  C   UNL     1       2.099   2.985  18.469  0.00  0.00    +0.000 C 
BRANCH  18  24
ATOM     19  C   UNL     1       2.381   7.796  18.110  0.00  0.00    +0.000 C 
ATOM     20  C   UNL     1       2.262   6.443  18.690  0.00  0.00    +0.000 A 
ATOM     21  N   UNL     1       2.219   6.221  20.039  0.00  0.00    +0.000 NA
ATOM     22  C   UNL     1       2.137   4.912  20.134  0.00  0.00    +0.000 A 
ATOM     23  C   UNL     1       2.072   4.127  21.390  0.00  0.00    +0.000 C 
ATOM     24  N   UNL     1       2.123   4.374  18.873  0.00  0.00    +0.000 N 
ATOM     25  N   UNL     1       2.201   5.342  17.938  0.00  0.00    +0.000 NA
ENDBRANCH  18  24
ENDBRANCH  17  18
ENDBRANCH   1  17
TORSDOF 5
ENDMDL
MODEL 3
REMARK VINA RESULT:      -7.9      1.742      2.925
REMARK  Name = 
REMARK  8 active torsions:
REMARK  status: ('A' for Active; 'I' for Inactive)
REMARK    1  A    between atoms: C_1  and  C_2
REMARK    2  A    between atoms: C_4  and  C_5
REMARK    3  A    between atoms: N_6  and  C_7
REMARK    4  A    between atoms: C_7  and  C_8
REMARK    5  A    between atoms: C_8  and  N_9
REMARK    6  A    between atoms: C_10  and  C_12
REMARK    7  A    between atoms: C_12  and  C_13
REMARK    8  A    between atoms: C_15  and  C_16
REMARK                            x       y       z     vdW  Elec       q    Type
REMARK                         _______ _______ _______ _____ _____    ______ ____
ROOT
ATOM      1  N   UNL     1       4.831   5.739  17.546  0.00  0.00    +0.000 N 
ATOM      2  C   UNL     1       5.895   6.245  16.818  0.00  0.00    +0.000 C 
ATOM      3  O   UNL     1       6.069   7.450  16.658  0.00  0.00    +0.000 OA
ATOM      4  H   UNL     1       4.695   4.731  17.468  0.00  0.00    +0.000 HD
ENDROOT
BRANCH   2   5
ATOM      5  C   UNL     1       6.858   5.179  16.252  0.00  0.00    +0.000 C 
ATOM      6  C   UNL     1       7.656   4.550  17.393  0.00  0.00    +0.000 C 
ATOM      7  C   UNL     1       6.142   4.113  15.449  0.00  0.00    +0.000 C 
ATOM      8  C   UNL     1       6.600   4.467  14.079  0.00  0.00    +0.000 C 
ATOM      9  N   UNL     1       7.449   5.445  14.019  0.00  0.00    +0.000 NA
ATOM     10  O   UNL     1       7.762   5.827  15.344  0.00  0.00    +0.000 OA
BRANCH   8  11
ATOM     11  C   UNL     1       6.162   3.683  12.896  0.00  0.00    +0.000 A 
ATOM     12  C   UNL     1       4.828   3.719  12.467  0.00  0.00    +0.000 A 
ATOM     13  C   UNL     1       4.394   2.866  11.449  0.00  0.00    +0.000 A 
ATOM     14  C   UNL     1       5.289   1.985  10.848  0.00  0.00    +0.000 A 
ATOM     15  C   UNL     1       6.625   1.969  11.246  0.00  0.00    +0.000 A 
ATOM     16  C   UNL     1       7.063   2.817  12.266  0.00  0.00    +0.000 A 
ENDBRANCH   8  11
ENDBRANCH   2   5
BRANCH   1  17
ATOM     17  C   UNL     1       3.719   6.606  17.914  0.00  0.00    +0.000 C 
BRANCH  17  18
ATOM     18  C   UNL     1       2.393   5.864  18.033  0.00  0.00    +0.000 C 
BRANCH  18  24
ATOM     19  C   UNL     1       3.546   1.187  18.424  0.00  0.00    +0.000 C 
ATOM     20  C   UNL     1       3.039   2.533  18.758  0.00  0.00    +0.000 A 
ATOM     21  N   UNL     1       2.409   2.811  19.939  0.00  0.00    +0.000 NA
ATOM     22  C   UNL     1       2.102   4.086  19.833  0.00  0.00    +0.000 A 
ATOM     23  C   UNL     1       1.388   4.902  20.844  0.00  0.00    +0.000 C 
ATOM     24  N   UNL     1       2.546   4.552  18.623  0.00  0.00    +0.000 N 
ATOM     25  N   UNL     1       3.150   3.570  17.924  0.00  0.00    +0.000 NA
ENDBRANCH  18  24
ENDBRANCH  17  18
ENDBRANCH   1  17
TORSDOF 5
ENDMDL
MODEL 4
REMARK VINA RESULT:      -7.9      0.947      1.374
REMARK  Name = 
REMARK  8 active torsions:
REMARK  status: ('A' for Active; 'I' for Inactive)
REMARK    1  A    between atoms: C_1  and  C_2
REMARK    2  A    between atoms: C_4  and  C_5
REMARK    3  A    between atoms: N_6  and  C_7
REMARK    4  A    between atoms: C_7  and  C_8
REMARK    5  A    between atoms: C_8  and  N_9
REMARK    6  A    between atoms: C_10  and  C_12
REMARK    7  A    between atoms: C_12  and  C_13
REMARK    8  A    between atoms: C_15  and  C_16
REMARK                            x       y       z     vdW  Elec       q    Type
REMARK                         _______ _______ _______ _____ _____    ______ ____
ROOT
ATOM      1  N   UNL     1       5.763   4.008  18.700  0.00  0.00    +0.000 N 
ATOM      2  C   UNL     1       6.585   5.093  18.952  0.00  0.00    +0.000 C 
ATOM      3  O   UNL     1       7.076   5.304  20.058  0.00  0.00    +0.000 OA
ATOM      4  H   UNL     1       5.282   4.030  17.800  0.00  0.00    +0.000 HD
ENDROOT
BRANCH   2   5
ATOM      5  C   UNL     1       6.860   5.995  17.730  0.00  0.00    +0.000 C 
ATOM      6  C   UNL     1       7.770   7.151  18.139  0.00  0.00    +0.000 C 
ATOM      7  C   UNL     1       7.455   5.234  16.565  0.00  0.00    +0.000 C 
ATOM      8  C   UNL     1       6.300   5.246  15.627  0.00  0.00    +0.000 C 
ATOM      9  N   UNL     1       5.266   5.909  16.039  0.00  0.00    +0.000 NA
ATOM     10  O   UNL     1       5.606   6.521  17.268  0.00  0.00    +0.000 OA
BRANCH   8  11
ATOM     11  C   UNL     1       6.389   4.607  14.289  0.00  0.00    +0.000 A 
ATOM     12  C   UNL     1       7.439   4.917  13.416  0.00  0.00    +0.000 A 
ATOM     13  C   UNL     1       7.434   4.427  12.108  0.00  0.00    +0.000 A 
ATOM     14  C   UNL     1       6.389   3.616  11.670  0.00  0.00    +0.000 A 
ATOM     15  C   UNL     1       5.359   3.275  12.546  0.00  0.00    +0.000 A 
ATOM     16  C   UNL     1       5.358   3.766  13.854  0.00  0.00    +0.000 A 
ENDBRANCH   8  11
ENDBRANCH   2   5
BRANCH   1  17
ATOM     17  C   UNL     1       5.220   3.230  19.806  0.00  0.00    +0.000 C 
BRANCH  17  18
ATOM     18  C   UNL     1       3.698   3.264  19.874  0.00  0.00    +0.000 C 
BRANCH  18  24
ATOM     19  C   UNL     1       2.231   7.807  19.115  0.00  0.00    +0.000 C 
ATOM     20  C   UNL     1       2.504   6.372  18.896  0.00  0.00    +0.000 A 
ATOM     21  N   UNL     1       2.111   5.712  17.765  0.00  0.00    +0.000 NA
ATOM     22  C   UNL     1       2.517   4.478  17.971  0.00  0.00    +0.000 A 
ATOM     23  C   UNL     1       2.335   3.331  17.050  0.00  0.00    +0.000 C 
ATOM     24  N   UNL     1       3.140   4.411  19.190  0.00  0.00    +0.000 N 
ATOM     25  N   UNL     1       3.141   5.617  19.794  0.00  0.00    +0.000 NA
ENDBRANCH  18  24
ENDBRANCH  17  18
ENDBRANCH   1  17
TORSDOF 5
ENDMDL
MODEL 5
REMARK VINA RESULT:      -7.8      1.253      2.594
REMARK  Name = 
REMARK  8 active torsions:
REMARK  status: ('A' for Active; 'I' for Inactive)
REMARK    1  A    between atoms: C_1  and  C_2
REMARK    2  A    between atoms: C_4  and  C_5
REMARK    3  A    between atoms: N_6  and  C_7
REMARK    4  A    between atoms: C_7  and  C_8
REMARK    5  A    between atoms: C_8  and  N_9
REMARK    6  A    between atoms: C_10  and  C_12
REMARK    7  A    between atoms: C_12  and  C_13
REMARK    8  A    between atoms: C_15  and  C_16
REMARK                            x       y       z     vdW  Elec       q    Type
REMARK                         _______ _______ _______ _____ _____    ______ ____
ROOT
ATOM      1  N   UNL     1       4.155   6.255  18.138  0.00  0.00    +0.000 N 
ATOM      2  C   UNL     1       5.214   5.623  18.767  0.00  0.00    +0.000 C 
ATOM      3  O   UNL     1       5.097   5.072  19.859  0.00  0.00    +0.000 OA
ATOM      4  H   UNL     1       4.409   6.819  17.326  0.00  0.00    +0.000 HD
ENDROOT
BRANCH   2   5
ATOM      5  C   UNL     1       6.539   5.636  17.976  0.00  0.00    +0.000 C 
ATOM      6  C   UNL     1       7.714   5.465  18.937  0.00  0.00    +0.000 C 
ATOM      7  C   UNL     1       6.581   4.583  16.889  0.00  0.00    +0.000 C 
ATOM      8  C   UNL     1       6.485   5.449  15.682  0.00  0.00    +0.000 C 
ATOM      9  N   UNL     1       6.471   6.723  15.920  0.00  0.00    +0.000 NA
ATOM     10  O   UNL     1       6.653   6.904  17.312  0.00  0.00    +0.000 OA
BRANCH   8  11
ATOM     11  C   UNL     1       6.492   4.866  14.316  0.00  0.00    +0.000 A 
ATOM     12  C   UNL     1       5.526   3.927  13.933  0.00  0.00    +0.000 A 
ATOM     13  C   UNL     1       5.628   3.275  12.702  0.00  0.00    +0.000 A 
ATOM     14  C   UNL     1       6.686   3.567  11.843  0.00  0.00    +0.000 A 
ATOM     15  C   UNL     1       7.631   4.526  12.204  0.00  0.00    +0.000 A 
ATOM     16  C   UNL     1       7.536   5.177  13.436  0.00  0.00    +0.000 A 
ENDBRANCH   8  11
ENDBRANCH   2   5
BRANCH   1  17
ATOM     17  C   UNL     1       2.931   6.538  18.875  0.00  0.00    +0.000 C 
BRANCH  17  18
ATOM     18  C   UNL     1       1.764   5.647  18.467  0.00  0.00    +0.000 C 
BRANCH  18  24
ATOM     19  C   UNL     1       1.371   2.372  22.000  0.00  0.00    +0.000 C 
ATOM     20  C   UNL     1       1.628   2.976  20.676  0.00  0.00    +0.000 A 
ATOM     21  N   UNL     1       2.127   2.259  19.625  0.00  0.00    +0.000 NA
ATOM     22  C   UNL     1       2.227   3.150  18.663  0.00  0.00    +0.000 A 
ATOM     23  C   UNL     1       2.731   2.905  17.290  0.00  0.00    +0.000 C 
ATOM     24  N   UNL     1       1.791   4.362  19.131  0.00  0.00    +0.000 N 
ATOM     25  N   UNL     1       1.402   4.266  20.419  0.00  0.00    +0.000 NA
ENDBRANCH  18  24
ENDBRANCH  17  18
ENDBRANCH   1  17
TORSDOF 5
ENDMDL
MODEL 6
REMARK VINA RESULT:      -7.8      3.986      7.546
REMARK  Name = 
REMARK  8 active torsions:
REMARK  status: ('A' for Active; 'I' for Inactive)
REMARK    1  A    between atoms: C_1  and  C_2
REMARK    2  A    between atoms: C_4  and  C_5
REMARK    3  A    between atoms: N_6  and  C_7
REMARK    4  A    between atoms: C_7  and  C_8
REMARK    5  A    between atoms: C_8  and  N_9
REMARK    6  A    between atoms: C_10  and  C_12
REMARK    7  A    between atoms: C_12  and  C_13
REMARK    8  A    between atoms: C_15  and  C_16
REMARK                            x       y       z     vdW  Elec       q    Type
REMARK                         _______ _______ _______ _____ _____    ______ ____
ROOT
ATOM      1  N   UNL     1       7.934   7.395  17.936  0.00  0.00    +0.000 N 
ATOM      2  C   UNL     1       6.802   6.862  17.343  0.00  0.00    +0.000 C 
ATOM      3  O   UNL     1       6.091   7.511  16.580  0.00  0.00    +0.000 OA
ATOM      4  H   UNL     1       8.343   6.823  18.676  0.00  0.00    +0.000 HD
ENDROOT
BRANCH   2   5
ATOM      5  C   UNL     1       6.523   5.384  17.691  0.00  0.00    +0.000 C 
ATOM      6  C   UNL     1       7.836   4.675  18.013  0.00  0.00    +0.000 C 
ATOM      7  C   UNL     1       5.538   5.228  18.829  0.00  0.00    +0.000 C 
ATOM      8  C   UNL     1       4.358   4.709  18.086  0.00  0.00    +0.000 C 
ATOM      9  N   UNL     1       4.553   4.504  16.822  0.00  0.00    +0.000 NA
ATOM     10  O   UNL     1       5.917   4.761  16.547  0.00  0.00    +0.000 OA
BRANCH   8  11
ATOM     11  C   UNL     1       3.091   4.381  18.788  0.00  0.00    +0.000 A 
ATOM     12  C   UNL     1       2.828   4.889  20.067  0.00  0.00    +0.000 A 
ATOM     13  C   UNL     1       1.706   4.458  20.779  0.00  0.00    +0.000 A 
ATOM     14  C   UNL     1       0.836   3.528  20.213  0.00  0.00    +0.000 A 
ATOM     15  C   UNL     1       1.073   3.045  18.927  0.00  0.00    +0.000 A 
ATOM     16  C   UNL     1       2.196   3.471  18.213  0.00  0.00    +0.000 A 
ENDBRANCH   8  11
ENDBRANCH   2   5
BRANCH   1  17
ATOM     17  C   UNL     1       8.170   8.832  17.901  0.00  0.00    +0.000 C 
BRANCH  17  18
ATOM     18  C   UNL     1       8.904   9.351  19.132  0.00  0.00    +0.000 C 
BRANCH  18  24
ATOM     19  C   UNL     1      11.069  13.080  16.950  0.00  0.00    +0.000 C 
ATOM     20  C   UNL     1      10.388  12.266  17.977  0.00  0.00    +0.000 A 
ATOM     21  N   UNL     1      10.163  12.720  19.247  0.00  0.00    +0.000 NA
ATOM     22  C   UNL     1       9.568  11.706  19.837  0.00  0.00    +0.000 A 
ATOM     23  C   UNL     1       9.109  11.659  21.245  0.00  0.00    +0.000 C 
ATOM     24  N   UNL     1       9.438  10.681  18.937  0.00  0.00    +0.000 N 
ATOM     25  N   UNL     1       9.957  11.025  17.741  0.00  0.00    +0.000 NA
ENDBRANCH  18  24
ENDBRANCH  17  18
ENDBRANCH   1  17
TORSDOF 5
ENDMDL
MODEL 7
REMARK VINA RESULT:      -7.6      1.680      2.742
REMARK  Name = 
REMARK  8 active torsions:
REMARK  status: ('A' for Active; 'I' for Inactive)
REMARK    1  A    between atoms: C_1  and  C_2
REMARK    2  A    between atoms: C_4  and  C_5
REMARK    3  A    between atoms: N_6  and  C_7
REMARK    4  A    between atoms: C_7  and  C_8
REMARK    5  A    between atoms: C_8  and  N_9
REMARK    6  A    between atoms: C_10  and  C_12
REMARK    7  A    between atoms: C_12  and  C_13
REMARK    8  A    between atoms: C_15  and  C_16
REMARK                            x       y       z     vdW  Elec       q    Type
REMARK                         _______ _______ _______ _____ _____    ______ ____
ROOT
ATOM      1  N   UNL     1       4.993   5.643  18.253  0.00  0.00    +0.000 N 
ATOM      2  C   UNL     1       5.808   6.161  17.261  0.00  0.00    +0.000 C 
ATOM      3  O   UNL     1       5.752   7.336  16.910  0.00  0.00    +0.000 OA
ATOM      4  H   UNL     1       5.010   4.626  18.339  0.00  0.00    +0.000 HD
ENDROOT
BRANCH   2   5
ATOM      5  C   UNL     1       6.811   5.156  16.657  0.00  0.00    +0.000 C 
ATOM      6  C   UNL     1       7.658   4.541  17.770  0.00  0.00    +0.000 C 
ATOM      7  C   UNL     1       6.135   4.074  15.841  0.00  0.00    +0.000 C 
ATOM      8  C   UNL     1       6.552   4.480  14.472  0.00  0.00    +0.000 C 
ATOM      9  N   UNL     1       7.351   5.498  14.420  0.00  0.00    +0.000 NA
ATOM     10  O   UNL     1       7.668   5.866  15.749  0.00  0.00    +0.000 OA
BRANCH   8  11
ATOM     11  C   UNL     1       6.131   3.701  13.278  0.00  0.00    +0.000 A 
ATOM     12  C   UNL     1       7.076   3.031  12.492  0.00  0.00    +0.000 A 
ATOM     13  C   UNL     1       6.692   2.428  11.292  0.00  0.00    +0.000 A 
ATOM     14  C   UNL     1       5.362   2.481  10.879  0.00  0.00    +0.000 A 
ATOM     15  C   UNL     1       4.410   3.116  11.675  0.00  0.00    +0.000 A 
ATOM     16  C   UNL     1       4.791   3.724  12.874  0.00  0.00    +0.000 A 
ENDBRANCH   8  11
ENDBRANCH   2   5
BRANCH   1  17
ATOM     17  C   UNL     1       3.841   6.402  18.723  0.00  0.00    +0.000 C 
BRANCH  17  18
ATOM     18  C   UNL     1       2.509   5.810  18.277  0.00  0.00    +0.000 C 
BRANCH  18  24
ATOM     19  C   UNL     1       1.453   2.628  21.759  0.00  0.00    +0.000 C 
ATOM     20  C   UNL     1       1.788   3.190  20.434  0.00  0.00    +0.000 A 
ATOM     21  N   UNL     1       2.019   2.406  19.339  0.00  0.00    +0.000 NA
ATOM     22  C   UNL     1       2.300   3.274  18.391  0.00  0.00    +0.000 A 
ATOM     23  C   UNL     1       2.644   2.956  16.985  0.00  0.00    +0.000 C 
ATOM     24  N   UNL     1       2.230   4.540  18.912  0.00  0.00    +0.000 N 
ATOM     25  N   UNL     1       1.901   4.503  20.219  0.00  0.00    +0.000 NA
ENDBRANCH  18  24
ENDBRANCH  17  18
ENDBRANCH   1  17
TORSDOF 5
ENDMDL
MODEL 8
REMARK VINA RESULT:      -7.6      3.956      7.625
REMARK  Name = 
REMARK  8 active torsions:
REMARK  status: ('A' for Active; 'I' for Inactive)
REMARK    1  A    between atoms: C_1  and  C_2
REMARK    2  A    between atoms: C_4  and  C_5
REMARK    3  A    between atoms: N_6  and  C_7
REMARK    4  A    between atoms: C_7  and  C_8
REMARK    5  A    between atoms: C_8  and  N_9
REMARK    6  A    between atoms: C_10  and  C_12
REMARK    7  A    between atoms: C_12  and  C_13
REMARK    8  A    between atoms: C_15  and  C_16
REMARK                            x       y       z     vdW  Elec       q    Type
REMARK                         _______ _______ _______ _____ _____    ______ ____
ROOT
ATOM      1  N   UNL     1       7.290   7.768  17.317  0.00  0.00    +0.000 N 
ATOM      2  C   UNL     1       7.208   6.472  17.799  0.00  0.00    +0.000 C 
ATOM      3  O   UNL     1       7.854   6.089  18.771  0.00  0.00    +0.000 OA
ATOM      4  H   UNL     1       6.844   7.920  16.412  0.00  0.00    +0.000 HD
ENDROOT
BRANCH   2   5
ATOM      5  C   UNL     1       6.221   5.559  17.040  0.00  0.00    +0.000 C 
ATOM      6  C   UNL     1       6.953   4.839  15.910  0.00  0.00    +0.000 C 
ATOM      7  C   UNL     1       5.530   4.565  17.948  0.00  0.00    +0.000 C 
ATOM      8  C   UNL     1       4.153   5.129  17.954  0.00  0.00    +0.000 C 
ATOM      9  N   UNL     1       3.980   6.161  17.190  0.00  0.00    +0.000 NA
ATOM     10  O   UNL     1       5.185   6.383  16.483  0.00  0.00    +0.000 OA
BRANCH   8  11
ATOM     11  C   UNL     1       3.061   4.483  18.726  0.00  0.00    +0.000 A 
ATOM     12  C   UNL     1       2.274   3.478  18.149  0.00  0.00    +0.000 A 
ATOM     13  C   UNL     1       1.158   2.982  18.827  0.00  0.00    +0.000 A 
ATOM     14  C   UNL     1       0.830   3.478  20.087  0.00  0.00    +0.000 A 
ATOM     15  C   UNL     1       1.629   4.453  20.682  0.00  0.00    +0.000 A 
ATOM     16  C   UNL     1       2.744   4.955  20.005  0.00  0.00    +0.000 A 
ENDBRANCH   8  11
ENDBRANCH   2   5
BRANCH   1  17
ATOM     17  C   UNL     1       8.357   8.650  17.770  0.00  0.00    +0.000 C 
BRANCH  17  18
ATOM     18  C   UNL     1       7.880  10.066  18.069  0.00  0.00    +0.000 C 
BRANCH  18  24
ATOM     19  C   UNL     1      12.134  11.740  19.639  0.00  0.00    +0.000 C 
ATOM     20  C   UNL     1      10.808  11.683  18.989  0.00  0.00    +0.000 A 
ATOM     21  N   UNL     1      10.225  12.775  18.410  0.00  0.00    +0.000 NA
ATOM     22  C   UNL     1       9.070  12.316  17.978  0.00  0.00    +0.000 A 
ATOM     23  C   UNL     1       8.025  13.096  17.274  0.00  0.00    +0.000 C 
ATOM     24  N   UNL     1       8.977  10.984  18.287  0.00  0.00    +0.000 N 
ATOM     25  N   UNL     1      10.083  10.564  18.933  0.00  0.00    +0.000 NA
ENDBRANCH  18  24
ENDBRANCH  17  18
ENDBRANCH   1  17
TORSDOF 5
ENDMDL
MODEL 9
REMARK VINA RESULT:      -7.6      4.294      7.618
REMARK  Name = 
REMARK  8 active torsions:
REMARK  status: ('A' for Active; 'I' for Inactive)
REMARK    1  A    between atoms: C_1  and  C_2
REMARK    2  A    between atoms: C_4  and  C_5
REMARK    3  A    between atoms: N_6  and  C_7
REMARK    4  A    between atoms: C_7  and  C_8
REMARK    5  A    between atoms: C_8  and  N_9
REMARK    6  A    between atoms: C_10  and  C_12
REMARK    7  A    between atoms: C_12  and  C_13
REMARK    8  A    between atoms: C_15  and  C_16
REMARK                            x       y       z     vdW  Elec       q    Type
REMARK                         _______ _______ _______ _____ _____    ______ ____
ROOT
ATOM      1  N   UNL     1       8.181   7.965  18.239  0.00  0.00    +0.000 N 
ATOM      2  C   UNL     1       7.270   7.087  17.676  0.00  0.00    +0.000 C 
ATOM      3  O   UNL     1       6.639   7.357  16.657  0.00  0.00    +0.000 OA
ATOM      4  H   UNL     1       8.513   7.705  19.168  0.00  0.00    +0.000 HD
ENDROOT
BRANCH   2   5
ATOM      5  C   UNL     1       7.135   5.735  18.409  0.00  0.00    +0.000 C 
ATOM      6  C   UNL     1       8.206   5.628  19.492  0.00  0.00    +0.000 C 
ATOM      7  C   UNL     1       5.756   5.526  18.998  0.00  0.00    +0.000 C 
ATOM      8  C   UNL     1       5.242   4.465  18.091  0.00  0.00    +0.000 C 
ATOM      9  N   UNL     1       6.088   4.042  17.206  0.00  0.00    +0.000 NA
ATOM     10  O   UNL     1       7.325   4.683  17.450  0.00  0.00    +0.000 OA
BRANCH   8  11
ATOM     11  C   UNL     1       3.881   3.897  18.268  0.00  0.00    +0.000 A 
ATOM     12  C   UNL     1       3.707   2.572  18.689  0.00  0.00    +0.000 A 
ATOM     13  C   UNL     1       2.432   2.002  18.708  0.00  0.00    +0.000 A 
ATOM     14  C   UNL     1       1.325   2.753  18.321  0.00  0.00    +0.000 A 
ATOM     15  C   UNL     1       1.487   4.083  17.934  0.00  0.00    +0.000 A 
ATOM     16  C   UNL     1       2.761   4.657  17.909  0.00  0.00    +0.000 A 
ENDBRANCH   8  11
ENDBRANCH   2   5
BRANCH   1  17
ATOM     17  C   UNL     1       8.219   9.356  17.806  0.00  0.00    +0.000 C 
BRANCH  17  18
ATOM     18  C   UNL     1       8.892  10.280  18.813  0.00  0.00    +0.000 C 
BRANCH  18  24
ATOM     19  C   UNL     1      12.333  13.344  17.353  0.00  0.00    +0.000 C 
ATOM     20  C   UNL     1      11.004  12.742  17.580  0.00  0.00    +0.000 A 
ATOM     21  N   UNL     1       9.842  13.359  17.208  0.00  0.00    +0.000 NA
ATOM     22  C   UNL     1       8.908  12.520  17.601  0.00  0.00    +0.000 A 
ATOM     23  C   UNL     1       7.445  12.707  17.451  0.00  0.00    +0.000 C 
ATOM     24  N   UNL     1       9.502  11.431  18.184  0.00  0.00    +0.000 N 
ATOM     25  N   UNL     1      10.845  11.558  18.176  0.00  0.00    +0.000 NA
ENDBRANCH  18  24
ENDBRANCH  17  18
ENDBRANCH   1  17
TORSDOF 5
ENDMDL
