MODEL 1
REMARK VINA RESULT:      -8.3      0.000      0.000
REMARK  Name = 
REMARK  7 active torsions:
REMARK  status: ('A' for Active; 'I' for Inactive)
REMARK    1  A    between atoms: C_1  and  C_2
REMARK    2  A    between atoms: C_2  and  O_3
REMARK    3  A    between atoms: C_4  and  C_5
REMARK    4  A    between atoms: C_5  and  O_6
REMARK    5  A    between atoms: C_8  and  N_9
REMARK    6  A    between atoms: N_14  and  N_15
REMARK    7  A    between atoms: C_21  and  O_22
REMARK                            x       y       z     vdW  Elec       q    Type
REMARK                         _______ _______ _______ _____ _____    ______ ____
ROOT
ATOM      1  N   UNL     1       4.175   4.583  17.973  0.00  0.00    +0.000 N 
ATOM      2  C   UNL     1       2.989   5.278  17.963  0.00  0.00    +0.000 A 
ATOM      3  N   UNL     1       2.108   4.783  18.799  0.00  0.00    +0.000 NA
ATOM      4  C   UNL     1       2.790   3.797  19.465  0.00  0.00    +0.000 A 
ATOM      5  C   UNL     1       2.400   2.957  20.510  0.00  0.00    +0.000 A 
ATOM      6  N   UNL     1       1.079   3.003  21.015  0.00  0.00    +0.000 N 
ATOM      7  N   UNL     1       3.328   2.094  21.018  0.00  0.00    +0.000 NA
ATOM      8  C   UNL     1       4.564   2.081  20.484  0.00  0.00    +0.000 A 
ATOM      9  N   UNL     1       5.452   1.186  21.049  0.00  0.00    +0.000 N 
ATOM     10  N   UNL     1       5.013   2.814  19.445  0.00  0.00    +0.000 NA
ATOM     11  C   UNL     1       4.086   3.665  18.989  0.00  0.00    +0.000 A 
ATOM     12  H   UNL     1       0.612   3.842  20.657  0.00  0.00    +0.000 HD
ATOM     13  H   UNL     1       4.946   0.449  21.516  0.00  0.00    +0.000 HD
ATOM     14  H   UNL     1       6.156   0.919  20.375  0.00  0.00    +0.000 HD
ENDROOT
BRANCH   1  19
ATOM     15  C   UNL     1       7.454   7.863  17.581  0.00  0.00    +0.000 C 
ATOM     16  C   UNL     1       7.097   6.466  17.082  0.00  0.00    +0.000 C 
ATOM     17  C   UNL     1       7.433   5.305  18.018  0.00  0.00    +0.000 C 
ATOM     18  O   UNL     1       6.488   4.255  17.704  0.00  0.00    +0.000 OA
ATOM     19  C   UNL     1       5.307   4.824  17.081  0.00  0.00    +0.000 C 
ATOM     20  C   UNL     1       5.595   6.311  16.823  0.00  0.00    +0.000 C 
BRANCH  16  21
ATOM     21  O   UNL     1       7.776   6.264  15.819  0.00  0.00    +0.000 OA
ATOM     22  H   UNL     1       8.730   6.162  16.004  0.00  0.00    +0.000 HD
ENDBRANCH  16  21
BRANCH  20  23
ATOM     23  O   UNL     1       5.299   6.708  15.477  0.00  0.00    +0.000 OA
ATOM     24  H   UNL     1       5.784   7.551  15.343  0.00  0.00    +0.000 HD
ENDBRANCH  20  23
BRANCH  17  25
ATOM     25  C   UNL     1       7.375   5.633  19.516  0.00  0.00    +0.000 C 
BRANCH  25  26
ATOM     26  O   UNL     1       8.579   5.249  20.175  0.00  0.00    +0.000 OA
ATOM     27  H   UNL     1       8.998   6.051  20.530  0.00  0.00    +0.000 HD
ENDBRANCH  25  26
ENDBRANCH  17  25
ENDBRANCH   1  19
BRANCH   6  28
ATOM     28  N   UNL     1       0.879   2.688  22.375  0.00  0.00    +0.000 NA
ATOM     29  H   UNL     1       1.069   1.690  22.517  0.00  0.00    +0.000 HD
ATOM     30  H   UNL     1      -0.111   2.807  22.603  0.00  0.00    +0.000 HD
ENDBRANCH   6  28
TORSDOF 6
ENDMDL
MODEL 2
REMARK VINA RESULT:      -8.1      3.248      6.310
REMARK  Name = 
REMARK  7 active torsions:
REMARK  status: ('A' for Active; 'I' for Inactive)
REMARK    1  A    between atoms: C_1  and  C_2
REMARK    2  A    between atoms: C_2  and  O_3
REMARK    3  A    between atoms: C_4  and  C_5
REMARK    4  A    between atoms: C_5  and  O_6
REMARK    5  A    between atoms: C_8  and  N_9
REMARK    6  A    between atoms: N_14  and  N_15
REMARK    7  A    between atoms: C_21  and  O_22
REMARK                            x       y       z     vdW  Elec       q    Type
REMARK                         _______ _______ _______ _____ _____    ______ ____
ROOT
ATOM      1  N   UNL     1       4.889   4.355  18.195  0.00  0.00    +0.000 N 
ATOM      2  C   UNL     1       4.557   3.548  17.134  0.00  0.00    +0.000 A 
ATOM      3  N   UNL     1       5.153   3.906  16.021  0.00  0.00    +0.000 NA
ATOM      4  C   UNL     1       6.000   4.916  16.402  0.00  0.00    +0.000 A 
ATOM      5  C   UNL     1       6.934   5.654  15.672  0.00  0.00    +0.000 A 
ATOM      6  N   UNL     1       7.082   5.451  14.280  0.00  0.00    +0.000 N 
ATOM      7  N   UNL     1       7.686   6.575  16.343  0.00  0.00    +0.000 NA
ATOM      8  C   UNL     1       7.487   6.739  17.664  0.00  0.00    +0.000 A 
ATOM      9  N   UNL     1       8.287   7.684  18.278  0.00  0.00    +0.000 N 
ATOM     10  N   UNL     1       6.578   6.113  18.438  0.00  0.00    +0.000 NA
ATOM     11  C   UNL     1       5.876   5.201  17.754  0.00  0.00    +0.000 A 
ATOM     12  H   UNL     1       6.592   4.591  14.013  0.00  0.00    +0.000 HD
ATOM     13  H   UNL     1       8.630   8.341  17.593  0.00  0.00    +0.000 HD
ATOM     14  H   UNL     1       7.824   8.056  19.096  0.00  0.00    +0.000 HD
ENDROOT
BRANCH   1  19
ATOM     15  C   UNL     1       0.694   3.354  19.948  0.00  0.00    +0.000 C 
ATOM     16  C   UNL     1       2.150   3.540  20.367  0.00  0.00    +0.000 C 
ATOM     17  C   UNL     1       3.076   2.344  20.148  0.00  0.00    +0.000 C 
ATOM     18  O   UNL     1       4.404   2.895  19.974  0.00  0.00    +0.000 OA
ATOM     19  C   UNL     1       4.311   4.276  19.534  0.00  0.00    +0.000 C 
ATOM     20  C   UNL     1       2.830   4.681  19.602  0.00  0.00    +0.000 C 
BRANCH  16  21
ATOM     21  O   UNL     1       2.162   3.893  21.770  0.00  0.00    +0.000 OA
ATOM     22  H   UNL     1       3.040   3.661  22.130  0.00  0.00    +0.000 HD
ENDBRANCH  16  21
BRANCH  20  23
ATOM     23  O   UNL     1       2.624   5.914  20.304  0.00  0.00    +0.000 OA
ATOM     24  H   UNL     1       3.113   5.816  21.150  0.00  0.00    +0.000 HD
ENDBRANCH  20  23
BRANCH  17  25
ATOM     25  C   UNL     1       2.719   1.448  18.953  0.00  0.00    +0.000 C 
BRANCH  25  26
ATOM     26  O   UNL     1       3.840   0.672  18.537  0.00  0.00    +0.000 OA
ATOM     27  H   UNL     1       4.612   0.956  19.056  0.00  0.00    +0.000 HD
ENDBRANCH  25  26
ENDBRANCH  17  25
ENDBRANCH   1  19
BRANCH   6  28
ATOM     28  N   UNL     1       8.354   5.668  13.711  0.00  0.00    +0.000 NA
ATOM     29  H   UNL     1       8.840   4.768  13.632  0.00  0.00    +0.000 HD
ATOM     30  H   UNL     1       8.920   6.222  14.358  0.00  0.00    +0.000 HD
ENDBRANCH   6  28
TORSDOF 6
ENDMDL
MODEL 3
REMARK VINA RESULT:      -7.5      1.010      1.010
REMARK  Name = 
REMARK  7 active torsions:
REMARK  status: ('A' for Active; 'I' for Inactive)
REMARK    1  A    between atoms: C_1  and  C_2
REMARK    2  A    between atoms: C_2  and  O_3
REMARK    3  A    between atoms: C_4  and  C_5
REMARK    4  A    between atoms: C_5  and  O_6
REMARK    5  A    between atoms: C_8  and  N_9
REMARK    6  A    between atoms: N_14  and  N_15
REMARK    7  A    between atoms: C_21  and  O_22
REMARK                            x       y       z     vdW  Elec       q    Type
REMARK                         _______ _______ _______ _____ _____    ______ ____
ROOT
ATOM      1  N   UNL     1       4.426   5.042  18.297  0.00  0.00    +0.000 N 
ATOM      2  C   UNL     1       3.767   6.020  19.001  0.00  0.00    +0.000 A 
ATOM      3  N   UNL     1       2.794   5.540  19.740  0.00  0.00    +0.000 NA
ATOM      4  C   UNL     1       2.903   4.180  19.600  0.00  0.00    +0.000 A 
ATOM      5  C   UNL     1       2.185   3.137  20.188  0.00  0.00    +0.000 A 
ATOM      6  N   UNL     1       1.099   3.409  21.052  0.00  0.00    +0.000 N 
ATOM      7  N   UNL     1       2.560   1.857  19.895  0.00  0.00    +0.000 NA
ATOM      8  C   UNL     1       3.589   1.659  19.051  0.00  0.00    +0.000 A 
ATOM      9  N   UNL     1       3.917   0.340  18.804  0.00  0.00    +0.000 N 
ATOM     10  N   UNL     1       4.304   2.598  18.398  0.00  0.00    +0.000 NA
ATOM     11  C   UNL     1       3.926   3.839  18.727  0.00  0.00    +0.000 A 
ATOM     12  H   UNL     1       1.112   4.403  21.306  0.00  0.00    +0.000 HD
ATOM     13  H   UNL     1       3.126  -0.254  19.004  0.00  0.00    +0.000 HD
ATOM     14  H   UNL     1       4.354   0.251  17.897  0.00  0.00    +0.000 HD
ENDROOT
BRANCH   1  19
ATOM     15  C   UNL     1       7.779   8.216  17.698  0.00  0.00    +0.000 C 
ATOM     16  C   UNL     1       7.325   6.849  17.194  0.00  0.00    +0.000 C 
ATOM     17  C   UNL     1       7.701   5.648  18.062  0.00  0.00    +0.000 C 
ATOM     18  O   UNL     1       6.692   4.642  17.806  0.00  0.00    +0.000 OA
ATOM     19  C   UNL     1       5.481   5.272  17.312  0.00  0.00    +0.000 C 
ATOM     20  C   UNL     1       5.800   6.755  17.071  0.00  0.00    +0.000 C 
BRANCH  16  21
ATOM     21  O   UNL     1       7.878   6.664  15.869  0.00  0.00    +0.000 OA
ATOM     22  H   UNL     1       7.903   7.536  15.430  0.00  0.00    +0.000 HD
ENDBRANCH  16  21
BRANCH  20  23
ATOM     23  O   UNL     1       5.399   7.205  15.770  0.00  0.00    +0.000 OA
ATOM     24  H   UNL     1       4.525   6.787  15.609  0.00  0.00    +0.000 HD
ENDBRANCH  20  23
BRANCH  17  25
ATOM     25  C   UNL     1       7.792   5.930  19.568  0.00  0.00    +0.000 C 
BRANCH  25  26
ATOM     26  O   UNL     1       8.769   5.100  20.190  0.00  0.00    +0.000 OA
ATOM     27  H   UNL     1       9.647   5.395  19.895  0.00  0.00    +0.000 HD
ENDBRANCH  25  26
ENDBRANCH  17  25
ENDBRANCH   1  19
BRANCH   6  28
ATOM     28  N   UNL     1       0.826   2.488  22.084  0.00  0.00    +0.000 NA
ATOM     29  H   UNL     1       1.527   2.601  22.825  0.00  0.00    +0.000 HD
ATOM     30  H   UNL     1       0.964   1.539  21.730  0.00  0.00    +0.000 HD
ENDBRANCH   6  28
TORSDOF 6
ENDMDL
MODEL 4
REMARK VINA RESULT:      -7.5      2.697      4.116
REMARK  Name = 
REMARK  7 active torsions:
REMARK  status: ('A' for Active; 'I' for Inactive)
REMARK    1  A    between atoms: C_1  and  C_2
REMARK    2  A    between atoms: C_2  and  O_3
REMARK    3  A    between atoms: C_4  and  C_5
REMARK    4  A    between atoms: C_5  and  O_6
REMARK    5  A    between atoms: C_8  and  N_9
REMARK    6  A    between atoms: N_14  and  N_15
REMARK    7  A    between atoms: C_21  and  O_22
REMARK                            x       y       z     vdW  Elec       q    Type
REMARK                         _______ _______ _______ _____ _____    ______ ____
ROOT
ATOM      1  N   UNL     1       3.675   5.848  18.575  0.00  0.00    +0.000 N 
ATOM      2  C   UNL     1       3.295   5.026  19.608  0.00  0.00    +0.000 A 
ATOM      3  N   UNL     1       2.491   5.621  20.457  0.00  0.00    +0.000 NA
ATOM      4  C   UNL     1       2.244   6.844  19.887  0.00  0.00    +0.000 A 
ATOM      5  C   UNL     1       1.418   7.895  20.292  0.00  0.00    +0.000 A 
ATOM      6  N   UNL     1       0.706   7.821  21.512  0.00  0.00    +0.000 N 
ATOM      7  N   UNL     1       1.329   8.988  19.479  0.00  0.00    +0.000 NA
ATOM      8  C   UNL     1       2.045   9.010  18.339  0.00  0.00    +0.000 A 
ATOM      9  N   UNL     1       1.902  10.145  17.563  0.00  0.00    +0.000 N 
ATOM     10  N   UNL     1       2.904   8.071  17.894  0.00  0.00    +0.000 NA
ATOM     11  C   UNL     1       2.948   7.004  18.702  0.00  0.00    +0.000 A 
ATOM     12  H   UNL     1       0.739   6.857  21.862  0.00  0.00    +0.000 HD
ATOM     13  H   UNL     1       1.577  10.911  18.133  0.00  0.00    +0.000 HD
ATOM     14  H   UNL     1       2.731  10.293  17.005  0.00  0.00    +0.000 HD
ENDROOT
BRANCH   1  19
ATOM     15  C   UNL     1       7.841   7.457  17.262  0.00  0.00    +0.000 C 
ATOM     16  C   UNL     1       6.897   6.277  17.053  0.00  0.00    +0.000 C 
ATOM     17  C   UNL     1       6.918   5.192  18.131  0.00  0.00    +0.000 C 
ATOM     18  O   UNL     1       5.604   4.585  18.109  0.00  0.00    +0.000 OA
ATOM     19  C   UNL     1       4.643   5.509  17.534  0.00  0.00    +0.000 C 
ATOM     20  C   UNL     1       5.429   6.713  16.994  0.00  0.00    +0.000 C 
BRANCH  16  21
ATOM     21  O   UNL     1       7.220   5.677  15.776  0.00  0.00    +0.000 OA
ATOM     22  H   UNL     1       6.456   5.136  15.496  0.00  0.00    +0.000 HD
ENDBRANCH  16  21
BRANCH  20  23
ATOM     23  O   UNL     1       5.083   7.041  15.642  0.00  0.00    +0.000 OA
ATOM     24  H   UNL     1       4.105   6.968  15.599  0.00  0.00    +0.000 HD
ENDBRANCH  20  23
BRANCH  17  25
ATOM     25  C   UNL     1       7.247   5.683  19.548  0.00  0.00    +0.000 C 
BRANCH  25  26
ATOM     26  O   UNL     1       8.533   5.233  19.963  0.00  0.00    +0.000 OA
ATOM     27  H   UNL     1       9.179   5.501  19.287  0.00  0.00    +0.000 HD
ENDBRANCH  25  26
ENDBRANCH  17  25
ENDBRANCH   1  19
BRANCH   6  28
ATOM     28  N   UNL     1      -0.529   8.494  21.600  0.00  0.00    +0.000 NA
ATOM     29  H   UNL     1      -0.671   8.804  22.567  0.00  0.00    +0.000 HD
ATOM     30  H   UNL     1      -1.286   7.831  21.418  0.00  0.00    +0.000 HD
ENDBRANCH   6  28
TORSDOF 6
ENDMDL
MODEL 5
REMARK VINA RESULT:      -7.3      3.837      6.076
REMARK  Name = 
REMARK  7 active torsions:
REMARK  status: ('A' for Active; 'I' for Inactive)
REMARK    1  A    between atoms: C_1  and  C_2
REMARK    2  A    between atoms: C_2  and  O_3
REMARK    3  A    between atoms: C_4  and  C_5
REMARK    4  A    between atoms: C_5  and  O_6
REMARK    5  A    between atoms: C_8  and  N_9
REMARK    6  A    between atoms: N_14  and  N_15
REMARK    7  A    between atoms: C_21  and  O_22
REMARK                            x       y       z     vdW  Elec       q    Type
REMARK                         _______ _______ _______ _____ _____    ______ ____
ROOT
ATOM      1  N   UNL     1       2.918   6.618  19.186  0.00  0.00    +0.000 N 
ATOM      2  C   UNL     1       3.333   7.067  17.956  0.00  0.00    +0.000 A 
ATOM      3  N   UNL     1       2.717   8.164  17.586  0.00  0.00    +0.000 NA
ATOM      4  C   UNL     1       1.956   8.508  18.674  0.00  0.00    +0.000 A 
ATOM      5  C   UNL     1       1.127   9.608  18.903  0.00  0.00    +0.000 A 
ATOM      6  N   UNL     1       0.917  10.573  17.890  0.00  0.00    +0.000 N 
ATOM      7  N   UNL     1       0.528   9.714  20.125  0.00  0.00    +0.000 NA
ATOM      8  C   UNL     1       0.751   8.755  21.043  0.00  0.00    +0.000 A 
ATOM      9  N   UNL     1       0.117   8.929  22.258  0.00  0.00    +0.000 N 
ATOM     10  N   UNL     1       1.488   7.636  20.895  0.00  0.00    +0.000 NA
ATOM     11  C   UNL     1       2.079   7.577  19.695  0.00  0.00    +0.000 A 
ATOM     12  H   UNL     1       1.604  10.431  17.143  0.00  0.00    +0.000 HD
ATOM     13  H   UNL     1      -0.679   9.539  22.146  0.00  0.00    +0.000 HD
ATOM     14  H   UNL     1      -0.036   8.035  22.705  0.00  0.00    +0.000 HD
ENDROOT
BRANCH   1  19
ATOM     15  C   UNL     1       2.801   2.106  18.043  0.00  0.00    +0.000 C 
ATOM     16  C   UNL     1       3.425   3.066  19.052  0.00  0.00    +0.000 C 
ATOM     17  C   UNL     1       4.661   3.835  18.583  0.00  0.00    +0.000 C 
ATOM     18  O   UNL     1       4.678   5.065  19.346  0.00  0.00    +0.000 OA
ATOM     19  C   UNL     1       3.339   5.370  19.820  0.00  0.00    +0.000 C 
ATOM     20  C   UNL     1       2.447   4.165  19.484  0.00  0.00    +0.000 C 
BRANCH  16  21
ATOM     21  O   UNL     1       3.765   2.302  20.233  0.00  0.00    +0.000 OA
ATOM     22  H   UNL     1       3.569   2.855  21.014  0.00  0.00    +0.000 HD
ENDBRANCH  16  21
BRANCH  20  23
ATOM     23  O   UNL     1       1.685   3.709  20.610  0.00  0.00    +0.000 OA
ATOM     24  H   UNL     1       1.640   2.732  20.514  0.00  0.00    +0.000 HD
ENDBRANCH  20  23
BRANCH  17  25
ATOM     25  C   UNL     1       4.707   4.148  17.080  0.00  0.00    +0.000 C 
BRANCH  25  26
ATOM     26  O   UNL     1       5.773   3.451  16.442  0.00  0.00    +0.000 OA
ATOM     27  H   UNL     1       5.386   2.823  15.808  0.00  0.00    +0.000 HD
ENDBRANCH  25  26
ENDBRANCH  17  25
ENDBRANCH   1  19
BRANCH   6  28
ATOM     28  N   UNL     1       0.664  11.903  18.285  0.00  0.00    +0.000 NA
ATOM     29  H   UNL     1       0.012  11.896  19.078  0.00  0.00    +0.000 HD
ATOM     30  H   UNL     1       0.165  12.386  17.534  0.00  0.00    +0.000 HD
ENDBRANCH   6  28
TORSDOF 6
ENDMDL
MODEL 6
REMARK VINA RESULT:      -7.3      3.301      5.930
REMARK  Name = 
REMARK  7 active torsions:
REMARK  status: ('A' for Active; 'I' for Inactive)
REMARK    1  A    between atoms: C_1  and  C_2
REMARK    2  A    between atoms: C_2  and  O_3
REMARK    3  A    between atoms: C_4  and  C_5
REMARK    4  A    between atoms: C_5  and  O_6
REMARK    5  A    between atoms: C_8  and  N_9
REMARK    6  A    between atoms: N_14  and  N_15
REMARK    7  A    between atoms: C_21  and  O_22
REMARK                            x       y       z     vdW  Elec       q    Type
REMARK                         _______ _______ _______ _____ _____    ______ ____
ROOT
ATOM      1  N   UNL     1       5.132   4.716  17.229  0.00  0.00    +0.000 N 
ATOM      2  C   UNL     1       4.815   5.599  16.225  0.00  0.00    +0.000 A 
ATOM      3  N   UNL     1       5.464   6.735  16.329  0.00  0.00    +0.000 NA
ATOM      4  C   UNL     1       6.326   6.537  17.377  0.00  0.00    +0.000 A 
ATOM      5  C   UNL     1       7.309   7.364  17.924  0.00  0.00    +0.000 A 
ATOM      6  N   UNL     1       7.503   8.675  17.430  0.00  0.00    +0.000 N 
ATOM      7  N   UNL     1       8.064   6.869  18.949  0.00  0.00    +0.000 NA
ATOM      8  C   UNL     1       7.820   5.621  19.391  0.00  0.00    +0.000 A 
ATOM      9  N   UNL     1       8.625   5.184  20.425  0.00  0.00    +0.000 N 
ATOM     10  N   UNL     1       6.863   4.773  18.961  0.00  0.00    +0.000 NA
ATOM     11  C   UNL     1       6.160   5.281  17.942  0.00  0.00    +0.000 A 
ATOM     12  H   UNL     1       6.997   8.778  16.543  0.00  0.00    +0.000 HD
ATOM     13  H   UNL     1       9.013   5.975  20.916  0.00  0.00    +0.000 HD
ATOM     14  H   UNL     1       8.143   4.483  20.971  0.00  0.00    +0.000 HD
ENDROOT
BRANCH   1  19
ATOM     15  C   UNL     1       2.001   2.999  20.216  0.00  0.00    +0.000 C 
ATOM     16  C   UNL     1       2.714   2.664  18.910  0.00  0.00    +0.000 C 
ATOM     17  C   UNL     1       2.139   3.297  17.642  0.00  0.00    +0.000 C 
ATOM     18  O   UNL     1       3.246   3.408  16.716  0.00  0.00    +0.000 OA
ATOM     19  C   UNL     1       4.501   3.416  17.446  0.00  0.00    +0.000 C 
ATOM     20  C   UNL     1       4.179   3.114  18.918  0.00  0.00    +0.000 C 
BRANCH  16  21
ATOM     21  O   UNL     1       2.705   1.224  18.762  0.00  0.00    +0.000 OA
ATOM     22  H   UNL     1       3.293   0.849  19.447  0.00  0.00    +0.000 HD
ENDBRANCH  16  21
BRANCH  20  23
ATOM     23  O   UNL     1       4.996   2.069  19.461  0.00  0.00    +0.000 OA
ATOM     24  H   UNL     1       4.402   1.557  20.054  0.00  0.00    +0.000 HD
ENDBRANCH  20  23
BRANCH  17  25
ATOM     25  C   UNL     1       1.477   4.668  17.836  0.00  0.00    +0.000 C 
BRANCH  25  26
ATOM     26  O   UNL     1       2.349   5.570  18.510  0.00  0.00    +0.000 OA
ATOM     27  H   UNL     1       2.770   5.091  19.244  0.00  0.00    +0.000 HD
ENDBRANCH  25  26
ENDBRANCH  17  25
ENDBRANCH   1  19
BRANCH   6  28
ATOM     28  N   UNL     1       8.801   9.222  17.494  0.00  0.00    +0.000 NA
ATOM     29  H   UNL     1       8.876   9.802  18.336  0.00  0.00    +0.000 HD
ATOM     30  H   UNL     1       8.932   9.868  16.712  0.00  0.00    +0.000 HD
ENDBRANCH   6  28
TORSDOF 6
ENDMDL
MODEL 7
REMARK VINA RESULT:      -7.0      3.275      6.407
REMARK  Name = 
REMARK  7 active torsions:
REMARK  status: ('A' for Active; 'I' for Inactive)
REMARK    1  A    between atoms: C_1  and  C_2
REMARK    2  A    between atoms: C_2  and  O_3
REMARK    3  A    between atoms: C_4  and  C_5
REMARK    4  A    between atoms: C_5  and  O_6
REMARK    5  A    between atoms: C_8  and  N_9
REMARK    6  A    between atoms: N_14  and  N_15
REMARK    7  A    between atoms: C_21  and  O_22
REMARK                            x       y       z     vdW  Elec       q    Type
REMARK                         _______ _______ _______ _____ _____    ______ ____
ROOT
ATOM      1  N   UNL     1       4.503   4.305  18.538  0.00  0.00    +0.000 N 
ATOM      2  C   UNL     1       5.251   4.340  19.690  0.00  0.00    +0.000 A 
ATOM      3  N   UNL     1       6.290   5.135  19.594  0.00  0.00    +0.000 NA
ATOM      4  C   UNL     1       6.145   5.732  18.368  0.00  0.00    +0.000 A 
ATOM      5  C   UNL     1       6.907   6.714  17.730  0.00  0.00    +0.000 A 
ATOM      6  N   UNL     1       8.085   7.215  18.333  0.00  0.00    +0.000 N 
ATOM      7  N   UNL     1       6.482   7.163  16.513  0.00  0.00    +0.000 NA
ATOM      8  C   UNL     1       5.364   6.635  15.980  0.00  0.00    +0.000 A 
ATOM      9  N   UNL     1       4.991   7.140  14.749  0.00  0.00    +0.000 N 
ATOM     10  N   UNL     1       4.597   5.653  16.495  0.00  0.00    +0.000 NA
ATOM     11  C   UNL     1       5.029   5.254  17.698  0.00  0.00    +0.000 A 
ATOM     12  H   UNL     1       8.114   6.914  19.313  0.00  0.00    +0.000 HD
ATOM     13  H   UNL     1       5.789   7.551  14.290  0.00  0.00    +0.000 HD
ATOM     14  H   UNL     1       4.457   6.452  14.236  0.00  0.00    +0.000 HD
ENDROOT
BRANCH   1  19
ATOM     15  C   UNL     1       1.391   2.105  21.212  0.00  0.00    +0.000 C 
ATOM     16  C   UNL     1       1.653   2.498  19.761  0.00  0.00    +0.000 C 
ATOM     17  C   UNL     1       1.292   3.932  19.371  0.00  0.00    +0.000 C 
ATOM     18  O   UNL     1       2.167   4.277  18.270  0.00  0.00    +0.000 OA
ATOM     19  C   UNL     1       3.351   3.438  18.300  0.00  0.00    +0.000 C 
ATOM     20  C   UNL     1       3.134   2.374  19.386  0.00  0.00    +0.000 C 
BRANCH  16  21
ATOM     21  O   UNL     1       0.915   1.581  18.918  0.00  0.00    +0.000 OA
ATOM     22  H   UNL     1       1.074   1.836  17.988  0.00  0.00    +0.000 HD
ENDBRANCH  16  21
BRANCH  20  23
ATOM     23  O   UNL     1       3.397   1.043  18.920  0.00  0.00    +0.000 OA
ATOM     24  H   UNL     1       3.465   0.493  19.730  0.00  0.00    +0.000 HD
ENDBRANCH  20  23
BRANCH  17  25
ATOM     25  C   UNL     1       1.427   4.970  20.494  0.00  0.00    +0.000 C 
BRANCH  25  26
ATOM     26  O   UNL     1       2.073   6.152  20.028  0.00  0.00    +0.000 OA
ATOM     27  H   UNL     1       2.798   6.360  20.641  0.00  0.00    +0.000 HD
ENDBRANCH  25  26
ENDBRANCH  17  25
ENDBRANCH   1  19
BRANCH   6  28
ATOM     28  N   UNL     1       8.453   8.548  18.059  0.00  0.00    +0.000 NA
ATOM     29  H   UNL     1       7.627   9.148  18.156  0.00  0.00    +0.000 HD
ATOM     30  H   UNL     1       8.725   8.625  17.076  0.00  0.00    +0.000 HD
ENDBRANCH   6  28
TORSDOF 6
ENDMDL
MODEL 8
REMARK VINA RESULT:      -7.0      3.457      5.075
REMARK  Name = 
REMARK  7 active torsions:
REMARK  status: ('A' for Active; 'I' for Inactive)
REMARK    1  A    between atoms: C_1  and  C_2
REMARK    2  A    between atoms: C_2  and  O_3
REMARK    3  A    between atoms: C_4  and  C_5
REMARK    4  A    between atoms: C_5  and  O_6
REMARK    5  A    between atoms: C_8  and  N_9
REMARK    6  A    between atoms: N_14  and  N_15
REMARK    7  A    between atoms: C_21  and  O_22
REMARK                            x       y       z     vdW  Elec       q    Type
REMARK                         _______ _______ _______ _____ _____    ______ ____
ROOT
ATOM      1  N   UNL     1       2.527   6.183  18.882  0.00  0.00    +0.000 N 
ATOM      2  C   UNL     1       2.184   5.532  20.043  0.00  0.00    +0.000 A 
ATOM      3  N   UNL     1       1.711   6.347  20.957  0.00  0.00    +0.000 NA
ATOM      4  C   UNL     1       1.633   7.559  20.320  0.00  0.00    +0.000 A 
ATOM      5  C   UNL     1       1.154   8.796  20.758  0.00  0.00    +0.000 A 
ATOM      6  N   UNL     1       0.694   8.960  22.086  0.00  0.00    +0.000 N 
ATOM      7  N   UNL     1       1.152   9.832  19.869  0.00  0.00    +0.000 NA
ATOM      8  C   UNL     1       1.620   9.622  18.625  0.00  0.00    +0.000 A 
ATOM      9  N   UNL     1       1.583  10.713  17.778  0.00  0.00    +0.000 N 
ATOM     10  N   UNL     1       2.148   8.483  18.131  0.00  0.00    +0.000 NA
ATOM     11  C   UNL     1       2.111   7.483  19.021  0.00  0.00    +0.000 A 
ATOM     12  H   UNL     1       0.580   8.037  22.518  0.00  0.00    +0.000 HD
ATOM     13  H   UNL     1       1.552  11.565  18.317  0.00  0.00    +0.000 HD
ATOM     14  H   UNL     1       2.300  10.630  17.070  0.00  0.00    +0.000 HD
ENDROOT
BRANCH   1  19
ATOM     15  C   UNL     1       6.813   4.651  17.902  0.00  0.00    +0.000 C 
ATOM     16  C   UNL     1       5.380   4.608  17.378  0.00  0.00    +0.000 C 
ATOM     17  C   UNL     1       4.448   3.588  18.032  0.00  0.00    +0.000 C 
ATOM     18  O   UNL     1       3.111   4.128  17.898  0.00  0.00    +0.000 OA
ATOM     19  C   UNL     1       3.176   5.568  17.726  0.00  0.00    +0.000 C 
ATOM     20  C   UNL     1       4.656   5.946  17.565  0.00  0.00    +0.000 C 
BRANCH  16  21
ATOM     21  O   UNL     1       5.441   4.346  15.956  0.00  0.00    +0.000 OA
ATOM     22  H   UNL     1       4.737   4.868  15.524  0.00  0.00    +0.000 HD
ENDBRANCH  16  21
BRANCH  20  23
ATOM     23  O   UNL     1       4.894   6.781  16.423  0.00  0.00    +0.000 OA
ATOM     24  H   UNL     1       5.731   6.451  16.030  0.00  0.00    +0.000 HD
ENDBRANCH  20  23
BRANCH  17  25
ATOM     25  C   UNL     1       4.745   3.281  19.506  0.00  0.00    +0.000 C 
BRANCH  25  26
ATOM     26  O   UNL     1       5.069   1.905  19.691  0.00  0.00    +0.000 OA
ATOM     27  H   UNL     1       4.870   1.669  20.612  0.00  0.00    +0.000 HD
ENDBRANCH  25  26
ENDBRANCH  17  25
ENDBRANCH   1  19
BRANCH   6  28
ATOM     28  N   UNL     1      -0.322   9.909  22.323  0.00  0.00    +0.000 NA
ATOM     29  H   UNL     1      -1.173   9.613  21.833  0.00  0.00    +0.000 HD
ATOM     30  H   UNL     1      -0.058  10.796  21.888  0.00  0.00    +0.000 HD
ENDBRANCH   6  28
TORSDOF 6
ENDMDL
MODEL 9
REMARK VINA RESULT:      -6.9      3.262      6.039
REMARK  Name = 
REMARK  7 active torsions:
REMARK  status: ('A' for Active; 'I' for Inactive)
REMARK    1  A    between atoms: C_1  and  C_2
REMARK    2  A    between atoms: C_2  and  O_3
REMARK    3  A    between atoms: C_4  and  C_5
REMARK    4  A    between atoms: C_5  and  O_6
REMARK    5  A    between atoms: C_8  and  N_9
REMARK    6  A    between atoms: N_14  and  N_15
REMARK    7  A    between atoms: C_21  and  O_22
REMARK                            x       y       z     vdW  Elec       q    Type
REMARK                         _______ _______ _______ _____ _____    ______ ____
ROOT
ATOM      1  N   UNL     1       4.419   4.827  18.497  0.00  0.00    +0.000 N 
ATOM      2  C   UNL     1       3.610   5.230  17.462  0.00  0.00    +0.000 A 
ATOM      3  N   UNL     1       4.289   5.557  16.388  0.00  0.00    +0.000 NA
ATOM      4  C   UNL     1       5.587   5.241  16.700  0.00  0.00    +0.000 A 
ATOM      5  C   UNL     1       6.756   5.312  15.940  0.00  0.00    +0.000 A 
ATOM      6  N   UNL     1       6.729   5.834  14.626  0.00  0.00    +0.000 N 
ATOM      7  N   UNL     1       7.916   4.869  16.508  0.00  0.00    +0.000 NA
ATOM      8  C   UNL     1       7.884   4.401  17.770  0.00  0.00    +0.000 A 
ATOM      9  N   UNL     1       9.093   3.966  18.279  0.00  0.00    +0.000 N 
ATOM     10  N   UNL     1       6.819   4.344  18.594  0.00  0.00    +0.000 NA
ATOM     11  C   UNL     1       5.696   4.762  17.997  0.00  0.00    +0.000 A 
ATOM     12  H   UNL     1       5.755   5.910  14.315  0.00  0.00    +0.000 HD
ATOM     13  H   UNL     1       9.853   4.393  17.771  0.00  0.00    +0.000 HD
ATOM     14  H   UNL     1       9.097   4.046  19.286  0.00  0.00    +0.000 HD
ENDROOT
BRANCH   1  19
ATOM     15  C   UNL     1       0.541   3.063  20.373  0.00  0.00    +0.000 C 
ATOM     16  C   UNL     1       1.993   3.386  20.715  0.00  0.00    +0.000 C 
ATOM     17  C   UNL     1       3.038   2.361  20.273  0.00  0.00    +0.000 C 
ATOM     18  O   UNL     1       4.268   3.102  20.088  0.00  0.00    +0.000 OA
ATOM     19  C   UNL     1       3.969   4.502  19.848  0.00  0.00    +0.000 C 
ATOM     20  C   UNL     1       2.461   4.695  20.069  0.00  0.00    +0.000 C 
BRANCH  16  21
ATOM     21  O   UNL     1       2.079   3.557  22.149  0.00  0.00    +0.000 OA
ATOM     22  H   UNL     1       1.684   4.422  22.372  0.00  0.00    +0.000 HD
ENDBRANCH  16  21
BRANCH  20  23
ATOM     23  O   UNL     1       2.164   5.791  20.945  0.00  0.00    +0.000 OA
ATOM     24  H   UNL     1       1.452   5.464  21.537  0.00  0.00    +0.000 HD
ENDBRANCH  20  23
BRANCH  17  25
ATOM     25  C   UNL     1       2.695   1.585  18.994  0.00  0.00    +0.000 C 
BRANCH  25  26
ATOM     26  O   UNL     1       3.863   1.321  18.222  0.00  0.00    +0.000 OA
ATOM     27  H   UNL     1       4.580   1.887  18.556  0.00  0.00    +0.000 HD
ENDBRANCH  25  26
ENDBRANCH  17  25
ENDBRANCH   1  19
BRANCH   6  28
ATOM     28  N   UNL     1       7.663   5.333  13.695  0.00  0.00    +0.000 NA
ATOM     29  H   UNL     1       8.286   4.673  14.172  0.00  0.00    +0.000 HD
ATOM     30  H   UNL     1       8.269   6.096  13.385  0.00  0.00    +0.000 HD
ENDBRANCH   6  28
TORSDOF 6
ENDMDL
