MODEL 1
REMARK VINA RESULT:      -7.4      0.000      0.000
REMARK  Name = 
REMARK  20 active torsions:
REMARK  status: ('A' for Active; 'I' for Inactive)
REMARK    1  A    between atoms: C_1  and  O_2
REMARK    2  A    between atoms: O_2  and  C_3
REMARK    3  A    between atoms: C_3  and  C_5
REMARK    4  A    between atoms: C_5  and  N_6
REMARK    5  A    between atoms: C_7  and  C_9
REMARK    6  A    between atoms: C_9  and  C_10
REMARK    7  A    between atoms: C_10  and  C_11
REMARK    8  A    between atoms: C_11  and  C_12
REMARK    9  A    between atoms: C_15  and  O_16
REMARK   10  A    between atoms: O_16  and  C_17
REMARK   11  A    between atoms: C_17  and  C_18
REMARK   12  A    between atoms: C_18  and  C_19
REMARK   13  A    between atoms: C_19  and  N_20
REMARK   14  A    between atoms: C_21  and  C_22
REMARK   15  A    between atoms: C_24  and  C_25
REMARK   16  A    between atoms: C_25  and  C_26
REMARK   17  A    between atoms: C_26  and  C_27
REMARK   18  A    between atoms: C_27  and  C_28
REMARK   19  A    between atoms: C_28  and  C_29
REMARK   20  A    between atoms: C_28  and  C_30
REMARK                            x       y       z     vdW  Elec       q    Type
REMARK                         _______ _______ _______ _____ _____    ______ ____
ROOT
ATOM      1  C   UNL     1       2.924   6.979  18.113  0.00  0.00    +0.000 A 
ATOM      2  C   UNL     1       4.172   7.466  17.753  0.00  0.00    +0.000 A 
ATOM      3  C   UNL     1       5.129   6.609  17.213  0.00  0.00    +0.000 A 
ATOM      4  C   UNL     1       4.870   5.242  17.002  0.00  0.00    +0.000 A 
ATOM      5  C   UNL     1       3.609   4.730  17.366  0.00  0.00    +0.000 A 
ATOM      6  C   UNL     1       2.656   5.617  17.919  0.00  0.00    +0.000 A 
ENDROOT
BRANCH   1   7
ATOM      7  C   UNL     1       1.883   7.907  18.686  0.00  0.00    +0.000 C 
BRANCH   7   8
ATOM      8  C   UNL     1       1.664   9.119  17.787  0.00  0.00    +0.000 C 
BRANCH   8   9
ATOM      9  C   UNL     1       1.365  10.389  18.579  0.00  0.00    +0.000 C 
BRANCH   9  11
ATOM     10  N   UNL     1      -0.647  11.477  17.779  0.00  0.00    +0.000 N 
ATOM     11  C   UNL     1      -0.133  10.590  18.688  0.00  0.00    +0.000 C 
ATOM     12  O   UNL     1      -0.839  10.013  19.509  0.00  0.00    +0.000 OA
ATOM     13  H   UNL     1      -0.057  11.953  17.103  0.00  0.00    +0.000 HD
BRANCH  10  14
ATOM     14  C   UNL     1      -2.073  11.760  17.776  0.00  0.00    +0.000 C 
BRANCH  14  15
ATOM     15  C   UNL     1      -2.815  10.823  16.845  0.00  0.00    +0.000 C 
ATOM     16  O   UNL     1      -2.357  10.385  15.796  0.00  0.00    +0.000 OA
BRANCH  15  18
ATOM     17  C   UNL     1      -4.553  11.544  18.236  0.00  0.00    +0.000 C 
ATOM     18  O   UNL     1      -4.050  10.547  17.348  0.00  0.00    +0.000 OA
ENDBRANCH  15  18
ENDBRANCH  14  15
ENDBRANCH  10  14
ENDBRANCH   9  11
ENDBRANCH   8   9
ENDBRANCH   7   8
ENDBRANCH   1   7
BRANCH   4  19
ATOM     19  O   UNL     1       5.807   4.395  16.433  0.00  0.00    +0.000 OA
BRANCH  19  20
ATOM     20  C   UNL     1       6.908   5.068  15.795  0.00  0.00    +0.000 C 
BRANCH  20  21
ATOM     21  C   UNL     1       6.986   4.817  14.293  0.00  0.00    +0.000 C 
BRANCH  21  22
ATOM     22  C   UNL     1       5.807   3.992  13.802  0.00  0.00    +0.000 C 
BRANCH  22  23
ATOM     23  N   UNL     1       6.231   2.925  12.915  0.00  0.00    +0.000 N 
ATOM     24  C   UNL     1       5.505   2.562  11.805  0.00  0.00    +0.000 C 
ATOM     25  C   UNL     1       6.085   1.396  11.045  0.00  0.00    +0.000 C 
ATOM     26  O   UNL     1       4.471   3.112  11.457  0.00  0.00    +0.000 OA
ATOM     27  H   UNL     1       7.117   2.475  13.101  0.00  0.00    +0.000 HD
ENDBRANCH  22  23
ENDBRANCH  21  22
ENDBRANCH  20  21
ENDBRANCH  19  20
ENDBRANCH   4  19
BRANCH   5  28
ATOM     28  C   UNL     1       3.148   3.301  17.157  0.00  0.00    +0.000 C 
BRANCH  28  29
ATOM     29  C   UNL     1       3.278   2.347  18.344  0.00  0.00    +0.000 C 
BRANCH  29  30
ATOM     30  C   UNL     1       3.142   3.035  19.708  0.00  0.00    +0.000 C 
BRANCH  30  31
ATOM     31  C   UNL     1       1.800   2.727  20.401  0.00  0.00    +0.000 C 
ATOM     32  C   UNL     1       1.966   2.519  21.908  0.00  0.00    +0.000 C 
ATOM     33  C   UNL     1       0.806   3.863  20.144  0.00  0.00    +0.000 C 
ENDBRANCH  30  31
ENDBRANCH  29  30
ENDBRANCH  28  29
ENDBRANCH   5  28
TORSDOF 16
ENDMDL
MODEL 2
REMARK VINA RESULT:      -7.2      0.945      1.397
REMARK  Name = 
REMARK  20 active torsions:
REMARK  status: ('A' for Active; 'I' for Inactive)
REMARK    1  A    between atoms: C_1  and  O_2
REMARK    2  A    between atoms: O_2  and  C_3
REMARK    3  A    between atoms: C_3  and  C_5
REMARK    4  A    between atoms: C_5  and  N_6
REMARK    5  A    between atoms: C_7  and  C_9
REMARK    6  A    between atoms: C_9  and  C_10
REMARK    7  A    between atoms: C_10  and  C_11
REMARK    8  A    between atoms: C_11  and  C_12
REMARK    9  A    between atoms: C_15  and  O_16
REMARK   10  A    between atoms: O_16  and  C_17
REMARK   11  A    between atoms: C_17  and  C_18
REMARK   12  A    between atoms: C_18  and  C_19
REMARK   13  A    between atoms: C_19  and  N_20
REMARK   14  A    between atoms: C_21  and  C_22
REMARK   15  A    between atoms: C_24  and  C_25
REMARK   16  A    between atoms: C_25  and  C_26
REMARK   17  A    between atoms: C_26  and  C_27
REMARK   18  A    between atoms: C_27  and  C_28
REMARK   19  A    between atoms: C_28  and  C_29
REMARK   20  A    between atoms: C_28  and  C_30
REMARK                            x       y       z     vdW  Elec       q    Type
REMARK                         _______ _______ _______ _____ _____    ______ ____
ROOT
ATOM      1  C   UNL     1       3.267   7.012  18.415  0.00  0.00    +0.000 A 
ATOM      2  C   UNL     1       3.712   7.262  17.124  0.00  0.00    +0.000 A 
ATOM      3  C   UNL     1       4.639   6.413  16.527  0.00  0.00    +0.000 A 
ATOM      4  C   UNL     1       5.147   5.280  17.189  0.00  0.00    +0.000 A 
ATOM      5  C   UNL     1       4.711   5.014  18.502  0.00  0.00    +0.000 A 
ATOM      6  C   UNL     1       3.773   5.894  19.092  0.00  0.00    +0.000 A 
ENDROOT
BRANCH   1   7
ATOM      7  C   UNL     1       2.254   7.924  19.059  0.00  0.00    +0.000 C 
BRANCH   7   8
ATOM      8  C   UNL     1       1.578   8.820  18.027  0.00  0.00    +0.000 C 
BRANCH   8   9
ATOM      9  C   UNL     1       1.399  10.253  18.523  0.00  0.00    +0.000 C 
BRANCH   9  11
ATOM     10  N   UNL     1      -0.656  11.318  17.805  0.00  0.00    +0.000 N 
ATOM     11  C   UNL     1      -0.070  10.537  18.766  0.00  0.00    +0.000 C 
ATOM     12  O   UNL     1      -0.696  10.107  19.729  0.00  0.00    +0.000 OA
ATOM     13  H   UNL     1      -0.131  11.671  17.009  0.00  0.00    +0.000 HD
BRANCH  10  14
ATOM     14  C   UNL     1      -2.063  11.664  17.917  0.00  0.00    +0.000 C 
BRANCH  14  15
ATOM     15  C   UNL     1      -2.926  10.720  17.105  0.00  0.00    +0.000 C 
ATOM     16  O   UNL     1      -3.411   9.681  17.538  0.00  0.00    +0.000 OA
BRANCH  15  18
ATOM     17  C   UNL     1      -2.958  10.207  14.823  0.00  0.00    +0.000 C 
ATOM     18  O   UNL     1      -3.081  11.201  15.840  0.00  0.00    +0.000 OA
ENDBRANCH  15  18
ENDBRANCH  14  15
ENDBRANCH  10  14
ENDBRANCH   9  11
ENDBRANCH   8   9
ENDBRANCH   7   8
ENDBRANCH   1   7
BRANCH   4  19
ATOM     19  O   UNL     1       6.044   4.414  16.584  0.00  0.00    +0.000 OA
BRANCH  19  20
ATOM     20  C   UNL     1       7.105   5.064  15.861  0.00  0.00    +0.000 C 
BRANCH  20  21
ATOM     21  C   UNL     1       6.963   4.960  14.348  0.00  0.00    +0.000 C 
BRANCH  21  22
ATOM     22  C   UNL     1       5.881   3.967  13.954  0.00  0.00    +0.000 C 
BRANCH  22  23
ATOM     23  N   UNL     1       6.382   2.962  13.037  0.00  0.00    +0.000 N 
ATOM     24  C   UNL     1       5.700   2.604  11.897  0.00  0.00    +0.000 C 
ATOM     25  C   UNL     1       6.360   1.503  11.107  0.00  0.00    +0.000 C 
ATOM     26  O   UNL     1       4.645   3.109  11.547  0.00  0.00    +0.000 OA
ATOM     27  H   UNL     1       7.287   2.553  13.225  0.00  0.00    +0.000 HD
ENDBRANCH  22  23
ENDBRANCH  21  22
ENDBRANCH  20  21
ENDBRANCH  19  20
ENDBRANCH   4  19
BRANCH   5  28
ATOM     28  C   UNL     1       5.113   3.813  19.334  0.00  0.00    +0.000 C 
BRANCH  28  29
ATOM     29  C   UNL     1       4.020   2.800  19.670  0.00  0.00    +0.000 C 
BRANCH  29  30
ATOM     30  C   UNL     1       2.918   2.704  18.608  0.00  0.00    +0.000 C 
BRANCH  30  31
ATOM     31  C   UNL     1       1.539   3.144  19.136  0.00  0.00    +0.000 C 
ATOM     32  C   UNL     1       0.437   2.148  18.766  0.00  0.00    +0.000 C 
ATOM     33  C   UNL     1       1.590   3.313  20.657  0.00  0.00    +0.000 C 
ENDBRANCH  30  31
ENDBRANCH  29  30
ENDBRANCH  28  29
ENDBRANCH   5  28
TORSDOF 16
ENDMDL
MODEL 3
REMARK VINA RESULT:      -7.2      2.515      9.204
REMARK  Name = 
REMARK  20 active torsions:
REMARK  status: ('A' for Active; 'I' for Inactive)
REMARK    1  A    between atoms: C_1  and  O_2
REMARK    2  A    between atoms: O_2  and  C_3
REMARK    3  A    between atoms: C_3  and  C_5
REMARK    4  A    between atoms: C_5  and  N_6
REMARK    5  A    between atoms: C_7  and  C_9
REMARK    6  A    between atoms: C_9  and  C_10
REMARK    7  A    between atoms: C_10  and  C_11
REMARK    8  A    between atoms: C_11  and  C_12
REMARK    9  A    between atoms: C_15  and  O_16
REMARK   10  A    between atoms: O_16  and  C_17
REMARK   11  A    between atoms: C_17  and  C_18
REMARK   12  A    between atoms: C_18  and  C_19
REMARK   13  A    between atoms: C_19  and  N_20
REMARK   14  A    between atoms: C_21  and  C_22
REMARK   15  A    between atoms: C_24  and  C_25
REMARK   16  A    between atoms: C_25  and  C_26
REMARK   17  A    between atoms: C_26  and  C_27
REMARK   18  A    between atoms: C_27  and  C_28
REMARK   19  A    between atoms: C_28  and  C_29
REMARK   20  A    between atoms: C_28  and  C_30
REMARK                            x       y       z     vdW  Elec       q    Type
REMARK                         _______ _______ _______ _____ _____    ______ ____
ROOT
ATOM      1  C   UNL     1       5.510   5.731  18.432  0.00  0.00    +0.000 A 
ATOM      2  C   UNL     1       5.247   6.615  17.396  0.00  0.00    +0.000 A 
ATOM      3  C   UNL     1       4.009   7.248  17.314  0.00  0.00    +0.000 A 
ATOM      4  C   UNL     1       2.996   7.031  18.266  0.00  0.00    +0.000 A 
ATOM      5  C   UNL     1       3.245   6.130  19.321  0.00  0.00    +0.000 A 
ATOM      6  C   UNL     1       4.506   5.494  19.381  0.00  0.00    +0.000 A 
ENDROOT
BRANCH   1   7
ATOM      7  C   UNL     1       6.854   5.054  18.530  0.00  0.00    +0.000 C 
BRANCH   7   8
ATOM      8  C   UNL     1       7.432   4.765  17.149  0.00  0.00    +0.000 C 
BRANCH   8   9
ATOM      9  C   UNL     1       6.445   4.037  16.240  0.00  0.00    +0.000 C 
BRANCH   9  11
ATOM     10  N   UNL     1       5.972   3.657  13.894  0.00  0.00    +0.000 N 
ATOM     11  C   UNL     1       6.792   4.294  14.788  0.00  0.00    +0.000 C 
ATOM     12  O   UNL     1       7.719   5.012  14.426  0.00  0.00    +0.000 OA
ATOM     13  H   UNL     1       5.206   3.063  14.200  0.00  0.00    +0.000 HD
BRANCH  10  14
ATOM     14  C   UNL     1       6.196   3.821  12.467  0.00  0.00    +0.000 C 
BRANCH  14  15
ATOM     15  C   UNL     1       5.247   2.958  11.661  0.00  0.00    +0.000 C 
ATOM     16  O   UNL     1       4.193   3.355  11.177  0.00  0.00    +0.000 OA
BRANCH  15  18
ATOM     17  C   UNL     1       7.082   1.631  11.070  0.00  0.00    +0.000 C 
ATOM     18  O   UNL     1       5.741   1.693  11.556  0.00  0.00    +0.000 OA
ENDBRANCH  15  18
ENDBRANCH  14  15
ENDBRANCH  10  14
ENDBRANCH   9  11
ENDBRANCH   8   9
ENDBRANCH   7   8
ENDBRANCH   1   7
BRANCH   4  19
ATOM     19  O   UNL     1       1.776   7.685  18.206  0.00  0.00    +0.000 OA
BRANCH  19  20
ATOM     20  C   UNL     1       1.872   9.118  18.136  0.00  0.00    +0.000 C 
BRANCH  20  21
ATOM     21  C   UNL     1       0.787   9.840  18.926  0.00  0.00    +0.000 C 
BRANCH  21  22
ATOM     22  C   UNL     1       0.757   9.386  20.377  0.00  0.00    +0.000 C 
BRANCH  22  23
ATOM     23  N   UNL     1      -0.351   9.979  21.102  0.00  0.00    +0.000 N 
ATOM     24  C   UNL     1      -0.236  11.181  21.762  0.00  0.00    +0.000 C 
ATOM     25  C   UNL     1      -1.482  11.598  22.500  0.00  0.00    +0.000 C 
ATOM     26  O   UNL     1       0.781  11.857  21.774  0.00  0.00    +0.000 OA
ATOM     27  H   UNL     1      -1.246   9.510  21.073  0.00  0.00    +0.000 HD
ENDBRANCH  22  23
ENDBRANCH  21  22
ENDBRANCH  20  21
ENDBRANCH  19  20
ENDBRANCH   4  19
BRANCH   5  28
ATOM     28  C   UNL     1       2.288   5.823  20.456  0.00  0.00    +0.000 C 
BRANCH  28  29
ATOM     29  C   UNL     1       1.405   4.586  20.308  0.00  0.00    +0.000 C 
BRANCH  29  30
ATOM     30  C   UNL     1       2.087   3.283  20.742  0.00  0.00    +0.000 C 
BRANCH  30  31
ATOM     31  C   UNL     1       1.861   2.128  19.746  0.00  0.00    +0.000 C 
ATOM     32  C   UNL     1       0.579   2.315  18.932  0.00  0.00    +0.000 C 
ATOM     33  C   UNL     1       3.060   2.011  18.800  0.00  0.00    +0.000 C 
ENDBRANCH  30  31
ENDBRANCH  29  30
ENDBRANCH  28  29
ENDBRANCH   5  28
TORSDOF 16
ENDMDL
MODEL 4
REMARK VINA RESULT:      -7.1      2.023      2.613
REMARK  Name = 
REMARK  20 active torsions:
REMARK  status: ('A' for Active; 'I' for Inactive)
REMARK    1  A    between atoms: C_1  and  O_2
REMARK    2  A    between atoms: O_2  and  C_3
REMARK    3  A    between atoms: C_3  and  C_5
REMARK    4  A    between atoms: C_5  and  N_6
REMARK    5  A    between atoms: C_7  and  C_9
REMARK    6  A    between atoms: C_9  and  C_10
REMARK    7  A    between atoms: C_10  and  C_11
REMARK    8  A    between atoms: C_11  and  C_12
REMARK    9  A    between atoms: C_15  and  O_16
REMARK   10  A    between atoms: O_16  and  C_17
REMARK   11  A    between atoms: C_17  and  C_18
REMARK   12  A    between atoms: C_18  and  C_19
REMARK   13  A    between atoms: C_19  and  N_20
REMARK   14  A    between atoms: C_21  and  C_22
REMARK   15  A    between atoms: C_24  and  C_25
REMARK   16  A    between atoms: C_25  and  C_26
REMARK   17  A    between atoms: C_26  and  C_27
REMARK   18  A    between atoms: C_27  and  C_28
REMARK   19  A    between atoms: C_28  and  C_29
REMARK   20  A    between atoms: C_28  and  C_30
REMARK                            x       y       z     vdW  Elec       q    Type
REMARK                         _______ _______ _______ _____ _____    ______ ____
ROOT
ATOM      1  C   UNL     1       2.880   7.029  18.282  0.00  0.00    +0.000 A 
ATOM      2  C   UNL     1       4.106   7.441  17.780  0.00  0.00    +0.000 A 
ATOM      3  C   UNL     1       4.918   6.542  17.093  0.00  0.00    +0.000 A 
ATOM      4  C   UNL     1       4.533   5.207  16.872  0.00  0.00    +0.000 A 
ATOM      5  C   UNL     1       3.293   4.771  17.380  0.00  0.00    +0.000 A 
ATOM      6  C   UNL     1       2.487   5.698  18.080  0.00  0.00    +0.000 A 
ENDROOT
BRANCH   1   7
ATOM      7  C   UNL     1       1.993   8.003  19.015  0.00  0.00    +0.000 C 
BRANCH   7   8
ATOM      8  C   UNL     1       1.242   8.909  18.045  0.00  0.00    +0.000 C 
BRANCH   8   9
ATOM      9  C   UNL     1       1.688  10.365  18.137  0.00  0.00    +0.000 C 
BRANCH   9  11
ATOM     10  N   UNL     1       0.728  12.584  18.303  0.00  0.00    +0.000 N 
ATOM     11  C   UNL     1       0.509  11.246  18.499  0.00  0.00    +0.000 C 
ATOM     12  O   UNL     1      -0.558  10.814  18.925  0.00  0.00    +0.000 OA
ATOM     13  H   UNL     1       1.614  12.936  17.950  0.00  0.00    +0.000 HD
BRANCH  10  14
ATOM     14  C   UNL     1      -0.324  13.539  18.610  0.00  0.00    +0.000 C 
BRANCH  14  15
ATOM     15  C   UNL     1       0.254  14.881  19.011  0.00  0.00    +0.000 C 
ATOM     16  O   UNL     1      -0.067  15.951  18.505  0.00  0.00    +0.000 OA
BRANCH  15  18
ATOM     17  C   UNL     1       2.373  15.458  19.817  0.00  0.00    +0.000 C 
ATOM     18  O   UNL     1       1.168  14.717  20.007  0.00  0.00    +0.000 OA
ENDBRANCH  15  18
ENDBRANCH  14  15
ENDBRANCH  10  14
ENDBRANCH   9  11
ENDBRANCH   8   9
ENDBRANCH   7   8
ENDBRANCH   1   7
BRANCH   4  19
ATOM     19  O   UNL     1       5.324   4.320  16.160  0.00  0.00    +0.000 OA
BRANCH  19  20
ATOM     20  C   UNL     1       6.651   4.801  15.877  0.00  0.00    +0.000 C 
BRANCH  20  21
ATOM     21  C   UNL     1       7.087   4.572  14.435  0.00  0.00    +0.000 C 
BRANCH  21  22
ATOM     22  C   UNL     1       5.959   3.993  13.595  0.00  0.00    +0.000 C 
BRANCH  22  23
ATOM     23  N   UNL     1       6.417   2.896  12.764  0.00  0.00    +0.000 N 
ATOM     24  C   UNL     1       5.661   2.394  11.730  0.00  0.00    +0.000 C 
ATOM     25  C   UNL     1       6.290   1.220  11.023  0.00  0.00    +0.000 C 
ATOM     26  O   UNL     1       4.569   2.834  11.408  0.00  0.00    +0.000 OA
ATOM     27  H   UNL     1       7.345   2.530  12.926  0.00  0.00    +0.000 HD
ENDBRANCH  22  23
ENDBRANCH  21  22
ENDBRANCH  20  21
ENDBRANCH  19  20
ENDBRANCH   4  19
BRANCH   5  28
ATOM     28  C   UNL     1       2.704   3.388  17.186  0.00  0.00    +0.000 C 
BRANCH  28  29
ATOM     29  C   UNL     1       2.894   2.384  18.322  0.00  0.00    +0.000 C 
BRANCH  29  30
ATOM     30  C   UNL     1       1.594   2.016  19.048  0.00  0.00    +0.000 C 
BRANCH  30  31
ATOM     31  C   UNL     1       1.492   2.649  20.449  0.00  0.00    +0.000 C 
ATOM     32  C   UNL     1       2.856   2.750  21.135  0.00  0.00    +0.000 C 
ATOM     33  C   UNL     1       0.861   4.041  20.350  0.00  0.00    +0.000 C 
ENDBRANCH  30  31
ENDBRANCH  29  30
ENDBRANCH  28  29
ENDBRANCH   5  28
TORSDOF 16
ENDMDL
MODEL 5
REMARK VINA RESULT:      -7.1      1.762      2.642
REMARK  Name = 
REMARK  20 active torsions:
REMARK  status: ('A' for Active; 'I' for Inactive)
REMARK    1  A    between atoms: C_1  and  O_2
REMARK    2  A    between atoms: O_2  and  C_3
REMARK    3  A    between atoms: C_3  and  C_5
REMARK    4  A    between atoms: C_5  and  N_6
REMARK    5  A    between atoms: C_7  and  C_9
REMARK    6  A    between atoms: C_9  and  C_10
REMARK    7  A    between atoms: C_10  and  C_11
REMARK    8  A    between atoms: C_11  and  C_12
REMARK    9  A    between atoms: C_15  and  O_16
REMARK   10  A    between atoms: O_16  and  C_17
REMARK   11  A    between atoms: C_17  and  C_18
REMARK   12  A    between atoms: C_18  and  C_19
REMARK   13  A    between atoms: C_19  and  N_20
REMARK   14  A    between atoms: C_21  and  C_22
REMARK   15  A    between atoms: C_24  and  C_25
REMARK   16  A    between atoms: C_25  and  C_26
REMARK   17  A    between atoms: C_26  and  C_27
REMARK   18  A    between atoms: C_27  and  C_28
REMARK   19  A    between atoms: C_28  and  C_29
REMARK   20  A    between atoms: C_28  and  C_30
REMARK                            x       y       z     vdW  Elec       q    Type
REMARK                         _______ _______ _______ _____ _____    ______ ____
ROOT
ATOM      1  C   UNL     1       2.273   8.279  18.276  0.00  0.00    +0.000 A 
ATOM      2  C   UNL     1       3.331   8.028  17.415  0.00  0.00    +0.000 A 
ATOM      3  C   UNL     1       4.137   6.908  17.604  0.00  0.00    +0.000 A 
ATOM      4  C   UNL     1       3.910   5.995  18.651  0.00  0.00    +0.000 A 
ATOM      5  C   UNL     1       2.843   6.238  19.539  0.00  0.00    +0.000 A 
ATOM      6  C   UNL     1       2.042   7.385  19.331  0.00  0.00    +0.000 A 
ENDROOT
BRANCH   1   7
ATOM      7  C   UNL     1       1.392   9.484  18.066  0.00  0.00    +0.000 C 
BRANCH   7   8
ATOM      8  C   UNL     1       0.487   9.728  19.268  0.00  0.00    +0.000 C 
BRANCH   8   9
ATOM      9  C   UNL     1       0.226  11.211  19.515  0.00  0.00    +0.000 C 
BRANCH   9  11
ATOM     10  N   UNL     1      -1.307  11.013  17.648  0.00  0.00    +0.000 N 
ATOM     11  C   UNL     1      -1.072  11.625  18.851  0.00  0.00    +0.000 C 
ATOM     12  O   UNL     1      -1.858  12.432  19.337  0.00  0.00    +0.000 OA
ATOM     13  H   UNL     1      -0.651  10.346  17.250  0.00  0.00    +0.000 HD
BRANCH  10  14
ATOM     14  C   UNL     1      -2.518  11.321  16.907  0.00  0.00    +0.000 C 
BRANCH  14  15
ATOM     15  C   UNL     1      -3.665  10.427  17.334  0.00  0.00    +0.000 C 
ATOM     16  O   UNL     1      -3.529   9.287  17.763  0.00  0.00    +0.000 OA
BRANCH  15  18
ATOM     17  C   UNL     1      -5.477  11.458  18.396  0.00  0.00    +0.000 C 
ATOM     18  O   UNL     1      -4.850  11.077  17.171  0.00  0.00    +0.000 OA
ENDBRANCH  15  18
ENDBRANCH  14  15
ENDBRANCH  10  14
ENDBRANCH   9  11
ENDBRANCH   8   9
ENDBRANCH   7   8
ENDBRANCH   1   7
BRANCH   4  19
ATOM     19  O   UNL     1       4.689   4.861  18.821  0.00  0.00    +0.000 OA
BRANCH  19  20
ATOM     20  C   UNL     1       6.089   5.126  19.022  0.00  0.00    +0.000 C 
BRANCH  20  21
ATOM     21  C   UNL     1       6.984   4.507  17.955  0.00  0.00    +0.000 C 
BRANCH  21  22
ATOM     22  C   UNL     1       7.283   5.492  16.836  0.00  0.00    +0.000 C 
BRANCH  22  23
ATOM     23  N   UNL     1       7.335   4.836  15.543  0.00  0.00    +0.000 N 
ATOM     24  C   UNL     1       6.218   4.673  14.758  0.00  0.00    +0.000 C 
ATOM     25  C   UNL     1       6.472   3.918  13.478  0.00  0.00    +0.000 C 
ATOM     26  O   UNL     1       5.107   5.081  15.059  0.00  0.00    +0.000 OA
ATOM     27  H   UNL     1       8.237   4.538  15.196  0.00  0.00    +0.000 HD
ENDBRANCH  22  23
ENDBRANCH  21  22
ENDBRANCH  20  21
ENDBRANCH  19  20
ENDBRANCH   4  19
BRANCH   5  28
ATOM     28  C   UNL     1       2.427   5.332  20.681  0.00  0.00    +0.000 C 
BRANCH  28  29
ATOM     29  C   UNL     1       1.169   4.490  20.479  0.00  0.00    +0.000 C 
BRANCH  29  30
ATOM     30  C   UNL     1       1.436   2.981  20.422  0.00  0.00    +0.000 C 
BRANCH  30  31
ATOM     31  C   UNL     1       1.543   2.446  18.981  0.00  0.00    +0.000 C 
ATOM     32  C   UNL     1       1.254   3.533  17.942  0.00  0.00    +0.000 C 
ATOM     33  C   UNL     1       2.938   1.862  18.741  0.00  0.00    +0.000 C 
ENDBRANCH  30  31
ENDBRANCH  29  30
ENDBRANCH  28  29
ENDBRANCH   5  28
TORSDOF 16
ENDMDL
MODEL 6
REMARK VINA RESULT:      -7.1      3.980      8.982
REMARK  Name = 
REMARK  20 active torsions:
REMARK  status: ('A' for Active; 'I' for Inactive)
REMARK    1  A    between atoms: C_1  and  O_2
REMARK    2  A    between atoms: O_2  and  C_3
REMARK    3  A    between atoms: C_3  and  C_5
REMARK    4  A    between atoms: C_5  and  N_6
REMARK    5  A    between atoms: C_7  and  C_9
REMARK    6  A    between atoms: C_9  and  C_10
REMARK    7  A    between atoms: C_10  and  C_11
REMARK    8  A    between atoms: C_11  and  C_12
REMARK    9  A    between atoms: C_15  and  O_16
REMARK   10  A    between atoms: O_16  and  C_17
REMARK   11  A    between atoms: C_17  and  C_18
REMARK   12  A    between atoms: C_18  and  C_19
REMARK   13  A    between atoms: C_19  and  N_20
REMARK   14  A    between atoms: C_21  and  C_22
REMARK   15  A    between atoms: C_24  and  C_25
REMARK   16  A    between atoms: C_25  and  C_26
REMARK   17  A    between atoms: C_26  and  C_27
REMARK   18  A    between atoms: C_27  and  C_28
REMARK   19  A    between atoms: C_28  and  C_29
REMARK   20  A    between atoms: C_28  and  C_30
REMARK                            x       y       z     vdW  Elec       q    Type
REMARK                         _______ _______ _______ _____ _____    ______ ____
ROOT
ATOM      1  C   UNL     1       4.974   5.443  18.319  0.00  0.00    +0.000 A 
ATOM      2  C   UNL     1       4.719   6.419  17.366  0.00  0.00    +0.000 A 
ATOM      3  C   UNL     1       3.540   7.159  17.420  0.00  0.00    +0.000 A 
ATOM      4  C   UNL     1       2.581   6.960  18.429  0.00  0.00    +0.000 A 
ATOM      5  C   UNL     1       2.821   5.969  19.402  0.00  0.00    +0.000 A 
ATOM      6  C   UNL     1       4.022   5.226  19.325  0.00  0.00    +0.000 A 
ENDROOT
BRANCH   1   7
ATOM      7  C   UNL     1       6.254   4.650  18.270  0.00  0.00    +0.000 C 
BRANCH   7   8
ATOM      8  C   UNL     1       7.400   5.479  17.698  0.00  0.00    +0.000 C 
BRANCH   8   9
ATOM      9  C   UNL     1       8.038   6.394  18.739  0.00  0.00    +0.000 C 
BRANCH   9  11
ATOM     10  N   UNL     1       8.806   8.676  19.017  0.00  0.00    +0.000 N 
ATOM     11  C   UNL     1       8.141   7.805  18.195  0.00  0.00    +0.000 C 
ATOM     12  O   UNL     1       7.680   8.151  17.111  0.00  0.00    +0.000 OA
ATOM     13  H   UNL     1       9.185   8.383  19.913  0.00  0.00    +0.000 HD
BRANCH  10  14
ATOM     14  C   UNL     1       8.975  10.061  18.612  0.00  0.00    +0.000 C 
BRANCH  14  15
ATOM     15  C   UNL     1       9.680  10.865  19.686  0.00  0.00    +0.000 C 
ATOM     16  O   UNL     1       9.286  10.970  20.842  0.00  0.00    +0.000 OA
BRANCH  15  18
ATOM     17  C   UNL     1      10.723  11.740  17.783  0.00  0.00    +0.000 C 
ATOM     18  O   UNL     1      10.804  11.441  19.176  0.00  0.00    +0.000 OA
ENDBRANCH  15  18
ENDBRANCH  14  15
ENDBRANCH  10  14
ENDBRANCH   9  11
ENDBRANCH   8   9
ENDBRANCH   7   8
ENDBRANCH   1   7
BRANCH   4  19
ATOM     19  O   UNL     1       1.423   7.718  18.505  0.00  0.00    +0.000 OA
BRANCH  19  20
ATOM     20  C   UNL     1       1.571   8.961  19.215  0.00  0.00    +0.000 C 
BRANCH  20  21
ATOM     21  C   UNL     1       1.571  10.184  18.306  0.00  0.00    +0.000 C 
BRANCH  21  22
ATOM     22  C   UNL     1       0.994  11.403  19.009  0.00  0.00    +0.000 C 
BRANCH  22  23
ATOM     23  N   UNL     1       0.147  11.029  20.125  0.00  0.00    +0.000 N 
ATOM     24  C   UNL     1       0.187  11.691  21.330  0.00  0.00    +0.000 C 
ATOM     25  C   UNL     1      -0.729  11.114  22.379  0.00  0.00    +0.000 C 
ATOM     26  O   UNL     1       0.905  12.653  21.556  0.00  0.00    +0.000 OA
ATOM     27  H   UNL     1      -0.525  10.287  19.985  0.00  0.00    +0.000 HD
ENDBRANCH  22  23
ENDBRANCH  21  22
ENDBRANCH  20  21
ENDBRANCH  19  20
ENDBRANCH   4  19
BRANCH   5  28
ATOM     28  C   UNL     1       1.922   5.664  20.584  0.00  0.00    +0.000 C 
BRANCH  28  29
ATOM     29  C   UNL     1       1.228   4.303  20.598  0.00  0.00    +0.000 C 
BRANCH  29  30
ATOM     30  C   UNL     1       0.958   3.731  19.201  0.00  0.00    +0.000 C 
BRANCH  30  31
ATOM     31  C   UNL     1       1.697   2.403  18.945  0.00  0.00    +0.000 C 
ATOM     32  C   UNL     1       2.507   2.437  17.647  0.00  0.00    +0.000 C 
ATOM     33  C   UNL     1       2.623   2.084  20.122  0.00  0.00    +0.000 C 
ENDBRANCH  30  31
ENDBRANCH  29  30
ENDBRANCH  28  29
ENDBRANCH   5  28
TORSDOF 16
ENDMDL
MODEL 7
REMARK VINA RESULT:      -7.0      2.946      9.927
REMARK  Name = 
REMARK  20 active torsions:
REMARK  status: ('A' for Active; 'I' for Inactive)
REMARK    1  A    between atoms: C_1  and  O_2
REMARK    2  A    between atoms: O_2  and  C_3
REMARK    3  A    between atoms: C_3  and  C_5
REMARK    4  A    between atoms: C_5  and  N_6
REMARK    5  A    between atoms: C_7  and  C_9
REMARK    6  A    between atoms: C_9  and  C_10
REMARK    7  A    between atoms: C_10  and  C_11
REMARK    8  A    between atoms: C_11  and  C_12
REMARK    9  A    between atoms: C_15  and  O_16
REMARK   10  A    between atoms: O_16  and  C_17
REMARK   11  A    between atoms: C_17  and  C_18
REMARK   12  A    between atoms: C_18  and  C_19
REMARK   13  A    between atoms: C_19  and  N_20
REMARK   14  A    between atoms: C_21  and  C_22
REMARK   15  A    between atoms: C_24  and  C_25
REMARK   16  A    between atoms: C_25  and  C_26
REMARK   17  A    between atoms: C_26  and  C_27
REMARK   18  A    between atoms: C_27  and  C_28
REMARK   19  A    between atoms: C_28  and  C_29
REMARK   20  A    between atoms: C_28  and  C_30
REMARK                            x       y       z     vdW  Elec       q    Type
REMARK                         _______ _______ _______ _____ _____    ______ ____
ROOT
ATOM      1  C   UNL     1       1.946   4.536  18.717  0.00  0.00    +0.000 A 
ATOM      2  C   UNL     1       1.584   4.546  20.056  0.00  0.00    +0.000 A 
ATOM      3  C   UNL     1       1.571   5.743  20.769  0.00  0.00    +0.000 A 
ATOM      4  C   UNL     1       1.908   6.971  20.170  0.00  0.00    +0.000 A 
ATOM      5  C   UNL     1       2.283   6.978  18.811  0.00  0.00    +0.000 A 
ATOM      6  C   UNL     1       2.295   5.751  18.109  0.00  0.00    +0.000 A 
ENDROOT
BRANCH   1   7
ATOM      7  C   UNL     1       1.949   3.245  17.940  0.00  0.00    +0.000 C 
BRANCH   7   8
ATOM      8  C   UNL     1       3.362   2.691  17.787  0.00  0.00    +0.000 C 
BRANCH   8   9
ATOM      9  C   UNL     1       4.230   2.953  19.014  0.00  0.00    +0.000 C 
BRANCH   9  11
ATOM     10  N   UNL     1       5.635   3.889  17.275  0.00  0.00    +0.000 N 
ATOM     11  C   UNL     1       5.434   3.789  18.627  0.00  0.00    +0.000 C 
ATOM     12  O   UNL     1       6.171   4.339  19.440  0.00  0.00    +0.000 OA
ATOM     13  H   UNL     1       5.022   3.431  16.607  0.00  0.00    +0.000 HD
BRANCH  10  14
ATOM     14  C   UNL     1       6.756   4.664  16.770  0.00  0.00    +0.000 C 
BRANCH  14  15
ATOM     15  C   UNL     1       6.282   5.923  16.073  0.00  0.00    +0.000 C 
ATOM     16  O   UNL     1       5.873   6.923  16.653  0.00  0.00    +0.000 OA
BRANCH  15  18
ATOM     17  C   UNL     1       7.054   4.583  14.317  0.00  0.00    +0.000 C 
ATOM     18  O   UNL     1       6.383   5.775  14.723  0.00  0.00    +0.000 OA
ENDBRANCH  15  18
ENDBRANCH  14  15
ENDBRANCH  10  14
ENDBRANCH   9  11
ENDBRANCH   8   9
ENDBRANCH   7   8
ENDBRANCH   1   7
BRANCH   4  19
ATOM     19  O   UNL     1       1.863   8.167  20.868  0.00  0.00    +0.000 OA
BRANCH  19  20
ATOM     20  C   UNL     1       0.565   8.503  21.391  0.00  0.00    +0.000 C 
BRANCH  20  21
ATOM     21  C   UNL     1       0.611   9.519  22.525  0.00  0.00    +0.000 C 
BRANCH  21  22
ATOM     22  C   UNL     1      -0.779  10.022  22.882  0.00  0.00    +0.000 C 
BRANCH  22  23
ATOM     23  N   UNL     1      -0.806  11.465  23.028  0.00  0.00    +0.000 N 
ATOM     24  C   UNL     1      -1.972  12.156  23.264  0.00  0.00    +0.000 C 
ATOM     25  C   UNL     1      -1.797  13.652  23.329  0.00  0.00    +0.000 C 
ATOM     26  O   UNL     1      -3.064  11.626  23.397  0.00  0.00    +0.000 OA
ATOM     27  H   UNL     1       0.073  11.964  23.003  0.00  0.00    +0.000 HD
ENDBRANCH  22  23
ENDBRANCH  21  22
ENDBRANCH  20  21
ENDBRANCH  19  20
ENDBRANCH   4  19
BRANCH   5  28
ATOM     28  C   UNL     1       2.621   8.214  18.001  0.00  0.00    +0.000 C 
BRANCH  28  29
ATOM     29  C   UNL     1       1.482   9.190  17.712  0.00  0.00    +0.000 C 
BRANCH  29  30
ATOM     30  C   UNL     1       1.599  10.519  18.468  0.00  0.00    +0.000 C 
BRANCH  30  31
ATOM     31  C   UNL     1       0.261  11.281  18.549  0.00  0.00    +0.000 C 
ATOM     32  C   UNL     1      -0.934  10.332  18.670  0.00  0.00    +0.000 C 
ATOM     33  C   UNL     1       0.278  12.244  19.739  0.00  0.00    +0.000 C 
ENDBRANCH  30  31
ENDBRANCH  29  30
ENDBRANCH  28  29
ENDBRANCH   5  28
TORSDOF 16
ENDMDL
MODEL 8
REMARK VINA RESULT:      -7.0      1.582      8.970
REMARK  Name = 
REMARK  20 active torsions:
REMARK  status: ('A' for Active; 'I' for Inactive)
REMARK    1  A    between atoms: C_1  and  O_2
REMARK    2  A    between atoms: O_2  and  C_3
REMARK    3  A    between atoms: C_3  and  C_5
REMARK    4  A    between atoms: C_5  and  N_6
REMARK    5  A    between atoms: C_7  and  C_9
REMARK    6  A    between atoms: C_9  and  C_10
REMARK    7  A    between atoms: C_10  and  C_11
REMARK    8  A    between atoms: C_11  and  C_12
REMARK    9  A    between atoms: C_15  and  O_16
REMARK   10  A    between atoms: O_16  and  C_17
REMARK   11  A    between atoms: C_17  and  C_18
REMARK   12  A    between atoms: C_18  and  C_19
REMARK   13  A    between atoms: C_19  and  N_20
REMARK   14  A    between atoms: C_21  and  C_22
REMARK   15  A    between atoms: C_24  and  C_25
REMARK   16  A    between atoms: C_25  and  C_26
REMARK   17  A    between atoms: C_26  and  C_27
REMARK   18  A    between atoms: C_27  and  C_28
REMARK   19  A    between atoms: C_28  and  C_29
REMARK   20  A    between atoms: C_28  and  C_30
REMARK                            x       y       z     vdW  Elec       q    Type
REMARK                         _______ _______ _______ _____ _____    ______ ____
ROOT
ATOM      1  C   UNL     1       3.847   5.709  17.596  0.00  0.00    +0.000 A 
ATOM      2  C   UNL     1       3.844   7.049  17.238  0.00  0.00    +0.000 A 
ATOM      3  C   UNL     1       3.122   7.973  17.989  0.00  0.00    +0.000 A 
ATOM      4  C   UNL     1       2.388   7.595  19.129  0.00  0.00    +0.000 A 
ATOM      5  C   UNL     1       2.376   6.236  19.504  0.00  0.00    +0.000 A 
ATOM      6  C   UNL     1       3.111   5.315  18.722  0.00  0.00    +0.000 A 
ENDROOT
BRANCH   1   7
ATOM      7  C   UNL     1       4.638   4.709  16.791  0.00  0.00    +0.000 C 
BRANCH   7   8
ATOM      8  C   UNL     1       5.387   5.385  15.647  0.00  0.00    +0.000 C 
BRANCH   8   9
ATOM      9  C   UNL     1       6.830   4.902  15.525  0.00  0.00    +0.000 C 
BRANCH   9  11
ATOM     10  N   UNL     1       6.577   3.902  13.332  0.00  0.00    +0.000 N 
ATOM     11  C   UNL     1       7.236   4.852  14.066  0.00  0.00    +0.000 C 
ATOM     12  O   UNL     1       8.077   5.595  13.567  0.00  0.00    +0.000 OA
ATOM     13  H   UNL     1       5.882   3.289  13.751  0.00  0.00    +0.000 HD
BRANCH  10  14
ATOM     14  C   UNL     1       6.873   3.750  11.917  0.00  0.00    +0.000 C 
BRANCH  14  15
ATOM     15  C   UNL     1       6.598   2.335  11.448  0.00  0.00    +0.000 C 
ATOM     16  O   UNL     1       7.446   1.585  10.979  0.00  0.00    +0.000 OA
BRANCH  15  18
ATOM     17  C   UNL     1       4.389   3.088  11.280  0.00  0.00    +0.000 C 
ATOM     18  O   UNL     1       5.283   2.031  11.629  0.00  0.00    +0.000 OA
ENDBRANCH  15  18
ENDBRANCH  14  15
ENDBRANCH  10  14
ENDBRANCH   9  11
ENDBRANCH   8   9
ENDBRANCH   7   8
ENDBRANCH   1   7
BRANCH   4  19
ATOM     19  O   UNL     1       1.696   8.517  19.898  0.00  0.00    +0.000 OA
BRANCH  19  20
ATOM     20  C   UNL     1       0.411   8.889  19.369  0.00  0.00    +0.000 C 
BRANCH  20  21
ATOM     21  C   UNL     1       0.426  10.210  18.609  0.00  0.00    +0.000 C 
BRANCH  21  22
ATOM     22  C   UNL     1      -0.982  10.714  18.335  0.00  0.00    +0.000 C 
BRANCH  22  23
ATOM     23  N   UNL     1      -1.439  10.338  17.010  0.00  0.00    +0.000 N 
ATOM     24  C   UNL     1      -2.627  10.792  16.487  0.00  0.00    +0.000 C 
ATOM     25  C   UNL     1      -2.947  10.243  15.120  0.00  0.00    +0.000 C 
ATOM     26  O   UNL     1      -3.378  11.560  17.069  0.00  0.00    +0.000 OA
ATOM     27  H   UNL     1      -0.831   9.763  16.442  0.00  0.00    +0.000 HD
ENDBRANCH  22  23
ENDBRANCH  21  22
ENDBRANCH  20  21
ENDBRANCH  19  20
ENDBRANCH   4  19
BRANCH   5  28
ATOM     28  C   UNL     1       1.685   5.671  20.729  0.00  0.00    +0.000 C 
BRANCH  28  29
ATOM     29  C   UNL     1       1.014   4.306  20.582  0.00  0.00    +0.000 C 
BRANCH  29  30
ATOM     30  C   UNL     1       1.966   3.122  20.792  0.00  0.00    +0.000 C 
BRANCH  30  31
ATOM     31  C   UNL     1       1.838   2.049  19.694  0.00  0.00    +0.000 C 
ATOM     32  C   UNL     1       0.738   2.388  18.685  0.00  0.00    +0.000 C 
ATOM     33  C   UNL     1       3.173   1.885  18.963  0.00  0.00    +0.000 C 
ENDBRANCH  30  31
ENDBRANCH  29  30
ENDBRANCH  28  29
ENDBRANCH   5  28
TORSDOF 16
ENDMDL
MODEL 9
REMARK VINA RESULT:      -7.0      2.716      4.398
REMARK  Name = 
REMARK  20 active torsions:
REMARK  status: ('A' for Active; 'I' for Inactive)
REMARK    1  A    between atoms: C_1  and  O_2
REMARK    2  A    between atoms: O_2  and  C_3
REMARK    3  A    between atoms: C_3  and  C_5
REMARK    4  A    between atoms: C_5  and  N_6
REMARK    5  A    between atoms: C_7  and  C_9
REMARK    6  A    between atoms: C_9  and  C_10
REMARK    7  A    between atoms: C_10  and  C_11
REMARK    8  A    between atoms: C_11  and  C_12
REMARK    9  A    between atoms: C_15  and  O_16
REMARK   10  A    between atoms: O_16  and  C_17
REMARK   11  A    between atoms: C_17  and  C_18
REMARK   12  A    between atoms: C_18  and  C_19
REMARK   13  A    between atoms: C_19  and  N_20
REMARK   14  A    between atoms: C_21  and  C_22
REMARK   15  A    between atoms: C_24  and  C_25
REMARK   16  A    between atoms: C_25  and  C_26
REMARK   17  A    between atoms: C_26  and  C_27
REMARK   18  A    between atoms: C_27  and  C_28
REMARK   19  A    between atoms: C_28  and  C_29
REMARK   20  A    between atoms: C_28  and  C_30
REMARK                            x       y       z     vdW  Elec       q    Type
REMARK                         _______ _______ _______ _____ _____    ______ ____
ROOT
ATOM      1  C   UNL     1       2.471   8.418  18.012  0.00  0.00    +0.000 A 
ATOM      2  C   UNL     1       3.441   8.075  17.082  0.00  0.00    +0.000 A 
ATOM      3  C   UNL     1       4.196   6.917  17.252  0.00  0.00    +0.000 A 
ATOM      4  C   UNL     1       4.002   6.055  18.347  0.00  0.00    +0.000 A 
ATOM      5  C   UNL     1       3.024   6.391  19.304  0.00  0.00    +0.000 A 
ATOM      6  C   UNL     1       2.274   7.575  19.115  0.00  0.00    +0.000 A 
ENDROOT
BRANCH   1   7
ATOM      7  C   UNL     1       1.645   9.664  17.823  0.00  0.00    +0.000 C 
BRANCH   7   8
ATOM      8  C   UNL     1       0.580   9.794  18.908  0.00  0.00    +0.000 C 
BRANCH   8   9
ATOM      9  C   UNL     1      -0.802  10.104  18.338  0.00  0.00    +0.000 C 
BRANCH   9  11
ATOM     10  N   UNL     1      -0.837  11.426  20.369  0.00  0.00    +0.000 N 
ATOM     11  C   UNL     1      -1.502  11.128  19.208  0.00  0.00    +0.000 C 
ATOM     12  O   UNL     1      -2.569  11.659  18.912  0.00  0.00    +0.000 OA
ATOM     13  H   UNL     1       0.045  10.983  20.609  0.00  0.00    +0.000 HD
BRANCH  10  14
ATOM     14  C   UNL     1      -1.402  12.395  21.293  0.00  0.00    +0.000 C 
BRANCH  14  15
ATOM     15  C   UNL     1      -1.144  11.995  22.732  0.00  0.00    +0.000 C 
ATOM     16  O   UNL     1      -1.458  10.914  23.216  0.00  0.00    +0.000 OA
BRANCH  15  18
ATOM     17  C   UNL     1      -1.327  14.166  23.585  0.00  0.00    +0.000 C 
ATOM     18  O   UNL     1      -0.516  13.007  23.393  0.00  0.00    +0.000 OA
ENDBRANCH  15  18
ENDBRANCH  14  15
ENDBRANCH  10  14
ENDBRANCH   9  11
ENDBRANCH   8   9
ENDBRANCH   7   8
ENDBRANCH   1   7
BRANCH   4  19
ATOM     19  O   UNL     1       4.727   4.885  18.501  0.00  0.00    +0.000 OA
BRANCH  19  20
ATOM     20  C   UNL     1       4.639   3.979  17.386  0.00  0.00    +0.000 C 
BRANCH  20  21
ATOM     21  C   UNL     1       5.759   4.156  16.368  0.00  0.00    +0.000 C 
BRANCH  21  22
ATOM     22  C   UNL     1       7.083   4.479  17.043  0.00  0.00    +0.000 C 
BRANCH  22  23
ATOM     23  N   UNL     1       7.389   5.895  16.974  0.00  0.00    +0.000 N 
ATOM     24  C   UNL     1       7.742   6.624  18.086  0.00  0.00    +0.000 C 
ATOM     25  C   UNL     1       7.967   8.090  17.814  0.00  0.00    +0.000 C 
ATOM     26  O   UNL     1       7.854   6.149  19.206  0.00  0.00    +0.000 OA
ATOM     27  H   UNL     1       7.389   6.339  16.066  0.00  0.00    +0.000 HD
ENDBRANCH  22  23
ENDBRANCH  21  22
ENDBRANCH  20  21
ENDBRANCH  19  20
ENDBRANCH   4  19
BRANCH   5  28
ATOM     28  C   UNL     1       2.650   5.551  20.509  0.00  0.00    +0.000 C 
BRANCH  28  29
ATOM     29  C   UNL     1       1.174   5.195  20.680  0.00  0.00    +0.000 C 
BRANCH  29  30
ATOM     30  C   UNL     1       0.821   3.777  20.215  0.00  0.00    +0.000 C 
BRANCH  30  31
ATOM     31  C   UNL     1       2.039   2.833  20.197  0.00  0.00    +0.000 C 
ATOM     32  C   UNL     1       2.248   2.138  21.545  0.00  0.00    +0.000 C 
ATOM     33  C   UNL     1       1.871   1.782  19.096  0.00  0.00    +0.000 C 
ENDBRANCH  30  31
ENDBRANCH  29  30
ENDBRANCH  28  29
ENDBRANCH   5  28
TORSDOF 16
ENDMDL
