MODEL 1
REMARK VINA RESULT:      -7.3      0.000      0.000
REMARK  Name = 
REMARK  3 active torsions:
REMARK  status: ('A' for Active; 'I' for Inactive)
REMARK    1  A    between atoms: C_8  and  N_9
REMARK    2  A    between atoms: N_12  and  C_13
REMARK    3  A    between atoms: C_13  and  C_14
REMARK                            x       y       z     vdW  Elec       q    Type
REMARK                         _______ _______ _______ _____ _____    ______ ____
ROOT
ATOM      1  O   UNL     1       1.083  14.311  19.469  0.00  0.00    +0.000 OA
ATOM      2  C   UNL     1       0.725  13.185  19.825  0.00  0.00    +0.000 C 
ATOM      3  C   UNL     1       0.761  11.978  18.870  0.00  0.00    +0.000 C 
ATOM      4  N   UNL     1       0.503  10.677  19.519  0.00  0.00    +0.000 N 
ATOM      5  C   UNL     1       1.232   9.548  19.209  0.00  0.00    +0.000 A 
ATOM      6  C   UNL     1       1.811   9.399  17.954  0.00  0.00    +0.000 A 
ATOM      7  C   UNL     1       2.535   8.251  17.631  0.00  0.00    +0.000 A 
ATOM      8  C   UNL     1       2.694   7.233  18.562  0.00  0.00    +0.000 A 
ATOM      9  C   UNL     1       2.075   7.443  19.788  0.00  0.00    +0.000 A 
ATOM     10  N   UNL     1       1.361   8.559  20.124  0.00  0.00    +0.000 NA
ATOM     11  C   UNL     1      -0.425  10.673  20.645  0.00  0.00    +0.000 C 
ATOM     12  C   UNL     1       0.042  11.697  21.675  0.00  0.00    +0.000 C 
ATOM     13  N   UNL     1       0.218  13.012  21.090  0.00  0.00    +0.000 N 
ATOM     14  H   UNL     1       0.307  13.824  21.686  0.00  0.00    +0.000 HD
ENDROOT
BRANCH   8  15
ATOM     15  N   UNL     1       3.416   6.039  18.289  0.00  0.00    +0.000 N 
ATOM     16  C   UNL     1       4.710   6.000  17.825  0.00  0.00    +0.000 C 
ATOM     17  O   UNL     1       5.425   6.980  17.626  0.00  0.00    +0.000 OA
ATOM     18  N   UNL     1       5.177   4.735  17.558  0.00  0.00    +0.000 N 
ATOM     19  H   UNL     1       2.971   5.160  18.507  0.00  0.00    +0.000 HD
ATOM     20  H   UNL     1       4.828   3.952  18.090  0.00  0.00    +0.000 HD
BRANCH  18  21
ATOM     21  C   UNL     1       6.554   4.648  17.108  0.00  0.00    +0.000 C 
BRANCH  21  22
ATOM     22  C   UNL     1       6.671   4.493  15.640  0.00  0.00    +0.000 A 
ATOM     23  C   UNL     1       5.980   3.707  14.738  0.00  0.00    +0.000 A 
ATOM     24  C   UNL     1       6.460   4.055  13.454  0.00  0.00    +0.000 A 
ATOM     25  C   UNL     1       7.409   5.031  13.653  0.00  0.00    +0.000 A 
ATOM     26  O   UNL     1       7.548   5.304  14.977  0.00  0.00    +0.000 OA
ENDBRANCH  21  22
ENDBRANCH  18  21
ENDBRANCH   8  15
TORSDOF 3
ENDMDL
MODEL 2
REMARK VINA RESULT:      -7.3      1.234      1.358
REMARK  Name = 
REMARK  3 active torsions:
REMARK  status: ('A' for Active; 'I' for Inactive)
REMARK    1  A    between atoms: C_8  and  N_9
REMARK    2  A    between atoms: N_12  and  C_13
REMARK    3  A    between atoms: C_13  and  C_14
REMARK                            x       y       z     vdW  Elec       q    Type
REMARK                         _______ _______ _______ _____ _____    ______ ____
ROOT
ATOM      1  O   UNL     1       0.462  12.918  20.982  0.00  0.00    +0.000 OA
ATOM      2  C   UNL     1       0.324  11.699  21.115  0.00  0.00    +0.000 C 
ATOM      3  C   UNL     1       0.474  10.728  19.930  0.00  0.00    +0.000 C 
ATOM      4  N   UNL     1       0.488   9.300  20.307  0.00  0.00    +0.000 N 
ATOM      5  C   UNL     1       1.363   8.402  19.732  0.00  0.00    +0.000 A 
ATOM      6  C   UNL     1       1.848   8.606  18.445  0.00  0.00    +0.000 A 
ATOM      7  C   UNL     1       2.719   7.690  17.855  0.00  0.00    +0.000 A 
ATOM      8  C   UNL     1       3.121   6.555  18.545  0.00  0.00    +0.000 A 
ATOM      9  C   UNL     1       2.584   6.407  19.818  0.00  0.00    +0.000 A 
ATOM     10  N   UNL     1       1.729   7.292  20.414  0.00  0.00    +0.000 NA
ATOM     11  C   UNL     1      -0.326   8.912  21.453  0.00  0.00    +0.000 C 
ATOM     12  C   UNL     1       0.055   9.781  22.648  0.00  0.00    +0.000 C 
ATOM     13  N   UNL     1      -0.036  11.195  22.340  0.00  0.00    +0.000 N 
ATOM     14  H   UNL     1      -0.030  11.877  23.087  0.00  0.00    +0.000 HD
ENDROOT
BRANCH   8  15
ATOM     15  N   UNL     1       4.002   5.584  17.993  0.00  0.00    +0.000 N 
ATOM     16  C   UNL     1       5.180   5.879  17.348  0.00  0.00    +0.000 C 
ATOM     17  O   UNL     1       5.648   7.006  17.199  0.00  0.00    +0.000 OA
ATOM     18  N   UNL     1       5.829   4.784  16.828  0.00  0.00    +0.000 N 
ATOM     19  H   UNL     1       3.778   4.610  18.137  0.00  0.00    +0.000 HD
ATOM     20  H   UNL     1       5.734   3.887  17.280  0.00  0.00    +0.000 HD
BRANCH  18  21
ATOM     21  C   UNL     1       7.099   5.049  16.177  0.00  0.00    +0.000 C 
BRANCH  21  22
ATOM     22  C   UNL     1       7.078   4.743  14.729  0.00  0.00    +0.000 A 
ATOM     23  C   UNL     1       6.293   3.891  13.977  0.00  0.00    +0.000 A 
ATOM     24  C   UNL     1       6.659   4.095  12.626  0.00  0.00    +0.000 A 
ATOM     25  C   UNL     1       7.641   5.059  12.639  0.00  0.00    +0.000 A 
ATOM     26  O   UNL     1       7.906   5.459  13.910  0.00  0.00    +0.000 OA
ENDBRANCH  21  22
ENDBRANCH  18  21
ENDBRANCH   8  15
TORSDOF 3
ENDMDL
MODEL 3
REMARK VINA RESULT:      -7.1      3.245      4.880
REMARK  Name = 
REMARK  3 active torsions:
REMARK  status: ('A' for Active; 'I' for Inactive)
REMARK    1  A    between atoms: C_8  and  N_9
REMARK    2  A    between atoms: N_12  and  C_13
REMARK    3  A    between atoms: C_13  and  C_14
REMARK                            x       y       z     vdW  Elec       q    Type
REMARK                         _______ _______ _______ _____ _____    ______ ____
ROOT
ATOM      1  O   UNL     1      -5.046  13.652  22.930  0.00  0.00    +0.000 OA
ATOM      2  C   UNL     1      -3.814  13.684  22.847  0.00  0.00    +0.000 C 
ATOM      3  C   UNL     1      -2.931  12.545  23.387  0.00  0.00    +0.000 C 
ATOM      4  N   UNL     1      -1.506  12.647  23.014  0.00  0.00    +0.000 N 
ATOM      5  C   UNL     1      -0.774  11.547  22.617  0.00  0.00    +0.000 A 
ATOM      6  C   UNL     1      -1.106  10.273  23.063  0.00  0.00    +0.000 A 
ATOM      7  C   UNL     1      -0.358   9.161  22.677  0.00  0.00    +0.000 A 
ATOM      8  C   UNL     1       0.735   9.306  21.834  0.00  0.00    +0.000 A 
ATOM      9  C   UNL     1       1.018  10.609  21.440  0.00  0.00    +0.000 A 
ATOM     10  N   UNL     1       0.299  11.711  21.808  0.00  0.00    +0.000 NA
ATOM     11  C   UNL     1      -0.949  13.989  22.893  0.00  0.00    +0.000 C 
ATOM     12  C   UNL     1      -1.810  14.797  21.927  0.00  0.00    +0.000 C 
ATOM     13  N   UNL     1      -3.207  14.795  22.315  0.00  0.00    +0.000 N 
ATOM     14  H   UNL     1      -3.849  15.460  21.903  0.00  0.00    +0.000 HD
ENDROOT
BRANCH   8  15
ATOM     15  N   UNL     1       1.538   8.211  21.410  0.00  0.00    +0.000 N 
ATOM     16  C   UNL     1       1.869   7.947  20.102  0.00  0.00    +0.000 C 
ATOM     17  O   UNL     1       1.555   8.639  19.135  0.00  0.00    +0.000 OA
ATOM     18  N   UNL     1       2.589   6.790  19.923  0.00  0.00    +0.000 N 
ATOM     19  H   UNL     1       1.942   7.621  22.123  0.00  0.00    +0.000 HD
ATOM     20  H   UNL     1       3.205   6.469  20.655  0.00  0.00    +0.000 HD
BRANCH  18  21
ATOM     21  C   UNL     1       2.996   6.500  18.561  0.00  0.00    +0.000 C 
BRANCH  21  22
ATOM     22  C   UNL     1       2.897   5.062  18.225  0.00  0.00    +0.000 A 
ATOM     23  C   UNL     1       1.838   4.284  17.797  0.00  0.00    +0.000 A 
ATOM     24  C   UNL     1       2.364   2.998  17.536  0.00  0.00    +0.000 A 
ATOM     25  C   UNL     1       3.709   3.072  17.818  0.00  0.00    +0.000 A 
ATOM     26  O   UNL     1       4.045   4.320  18.239  0.00  0.00    +0.000 OA
ENDBRANCH  21  22
ENDBRANCH  18  21
ENDBRANCH   8  15
TORSDOF 3
ENDMDL
MODEL 4
REMARK VINA RESULT:      -7.0      3.074      9.813
REMARK  Name = 
REMARK  3 active torsions:
REMARK  status: ('A' for Active; 'I' for Inactive)
REMARK    1  A    between atoms: C_8  and  N_9
REMARK    2  A    between atoms: N_12  and  C_13
REMARK    3  A    between atoms: C_13  and  C_14
REMARK                            x       y       z     vdW  Elec       q    Type
REMARK                         _______ _______ _______ _____ _____    ______ ____
ROOT
ATOM      1  O   UNL     1       4.763   2.020  20.511  0.00  0.00    +0.000 OA
ATOM      2  C   UNL     1       4.239   2.782  19.693  0.00  0.00    +0.000 C 
ATOM      3  C   UNL     1       3.025   3.657  20.056  0.00  0.00    +0.000 C 
ATOM      4  N   UNL     1       2.665   4.658  19.032  0.00  0.00    +0.000 N 
ATOM      5  C   UNL     1       2.305   5.947  19.365  0.00  0.00    +0.000 A 
ATOM      6  C   UNL     1       1.722   6.227  20.595  0.00  0.00    +0.000 A 
ATOM      7  C   UNL     1       1.341   7.527  20.928  0.00  0.00    +0.000 A 
ATOM      8  C   UNL     1       1.542   8.570  20.035  0.00  0.00    +0.000 A 
ATOM      9  C   UNL     1       2.114   8.215  18.819  0.00  0.00    +0.000 A 
ATOM     10  N   UNL     1       2.493   6.948  18.473  0.00  0.00    +0.000 NA
ATOM     11  C   UNL     1       2.891   4.288  17.639  0.00  0.00    +0.000 C 
ATOM     12  C   UNL     1       4.345   3.857  17.472  0.00  0.00    +0.000 C 
ATOM     13  N   UNL     1       4.709   2.807  18.403  0.00  0.00    +0.000 N 
ATOM     14  H   UNL     1       5.559   2.276  18.262  0.00  0.00    +0.000 HD
ENDROOT
BRANCH   8  15
ATOM     15  N   UNL     1       1.170   9.914  20.316  0.00  0.00    +0.000 N 
ATOM     16  C   UNL     1      -0.047  10.469  19.999  0.00  0.00    +0.000 C 
ATOM     17  O   UNL     1      -0.986   9.873  19.473  0.00  0.00    +0.000 OA
ATOM     18  N   UNL     1      -0.154  11.807  20.297  0.00  0.00    +0.000 N 
ATOM     19  H   UNL     1       1.822  10.482  20.838  0.00  0.00    +0.000 HD
ATOM     20  H   UNL     1       0.367  12.187  21.073  0.00  0.00    +0.000 HD
BRANCH  18  21
ATOM     21  C   UNL     1      -1.439  12.418  20.017  0.00  0.00    +0.000 C 
BRANCH  21  22
ATOM     22  C   UNL     1      -2.341  12.425  21.191  0.00  0.00    +0.000 A 
ATOM     23  C   UNL     1      -2.107  12.208  22.535  0.00  0.00    +0.000 A 
ATOM     24  C   UNL     1      -3.333  12.446  23.199  0.00  0.00    +0.000 A 
ATOM     25  C   UNL     1      -4.235  12.795  22.221  0.00  0.00    +0.000 A 
ATOM     26  O   UNL     1      -3.645  12.784  20.996  0.00  0.00    +0.000 OA
ENDBRANCH  21  22
ENDBRANCH  18  21
ENDBRANCH   8  15
TORSDOF 3
ENDMDL
MODEL 5
REMARK VINA RESULT:      -6.9      3.353      4.884
REMARK  Name = 
REMARK  3 active torsions:
REMARK  status: ('A' for Active; 'I' for Inactive)
REMARK    1  A    between atoms: C_8  and  N_9
REMARK    2  A    between atoms: N_12  and  C_13
REMARK    3  A    between atoms: C_13  and  C_14
REMARK                            x       y       z     vdW  Elec       q    Type
REMARK                         _______ _______ _______ _____ _____    ______ ____
ROOT
ATOM      1  O   UNL     1      -5.151  12.771  23.815  0.00  0.00    +0.000 OA
ATOM      2  C   UNL     1      -4.245  12.803  22.976  0.00  0.00    +0.000 C 
ATOM      3  C   UNL     1      -2.827  12.291  23.289  0.00  0.00    +0.000 C 
ATOM      4  N   UNL     1      -1.935  12.208  22.114  0.00  0.00    +0.000 N 
ATOM      5  C   UNL     1      -1.090  11.138  21.914  0.00  0.00    +0.000 A 
ATOM      6  C   UNL     1      -0.604  10.404  22.990  0.00  0.00    +0.000 A 
ATOM      7  C   UNL     1       0.265   9.331  22.792  0.00  0.00    +0.000 A 
ATOM      8  C   UNL     1       0.661   8.973  21.510  0.00  0.00    +0.000 A 
ATOM      9  C   UNL     1       0.150   9.760  20.485  0.00  0.00    +0.000 A 
ATOM     10  N   UNL     1      -0.701  10.815  20.658  0.00  0.00    +0.000 NA
ATOM     11  C   UNL     1      -2.122  13.210  21.071  0.00  0.00    +0.000 C 
ATOM     12  C   UNL     1      -3.583  13.198  20.630  0.00  0.00    +0.000 C 
ATOM     13  N   UNL     1      -4.488  13.370  21.750  0.00  0.00    +0.000 N 
ATOM     14  H   UNL     1      -5.458  13.603  21.586  0.00  0.00    +0.000 HD
ENDROOT
BRANCH   8  15
ATOM     15  N   UNL     1       1.547   7.892  21.247  0.00  0.00    +0.000 N 
ATOM     16  C   UNL     1       2.051   7.583  20.006  0.00  0.00    +0.000 C 
ATOM     17  O   UNL     1       1.840   8.216  18.973  0.00  0.00    +0.000 OA
ATOM     18  N   UNL     1       2.827   6.448  19.977  0.00  0.00    +0.000 N 
ATOM     19  H   UNL     1       1.877   7.352  22.034  0.00  0.00    +0.000 HD
ATOM     20  H   UNL     1       3.355   6.185  20.795  0.00  0.00    +0.000 HD
BRANCH  18  21
ATOM     21  C   UNL     1       3.413   6.113  18.693  0.00  0.00    +0.000 C 
BRANCH  21  22
ATOM     22  C   UNL     1       3.013   4.771  18.210  0.00  0.00    +0.000 A 
ATOM     23  C   UNL     1       3.664   3.843  17.421  0.00  0.00    +0.000 A 
ATOM     24  C   UNL     1       2.834   2.699  17.379  0.00  0.00    +0.000 A 
ATOM     25  C   UNL     1       1.731   3.000  18.146  0.00  0.00    +0.000 A 
ATOM     26  O   UNL     1       1.828   4.257  18.655  0.00  0.00    +0.000 OA
ENDBRANCH  21  22
ENDBRANCH  18  21
ENDBRANCH   8  15
TORSDOF 3
ENDMDL
MODEL 6
REMARK VINA RESULT:      -6.9      7.201      7.984
REMARK  Name = 
REMARK  3 active torsions:
REMARK  status: ('A' for Active; 'I' for Inactive)
REMARK    1  A    between atoms: C_8  and  N_9
REMARK    2  A    between atoms: N_12  and  C_13
REMARK    3  A    between atoms: C_13  and  C_14
REMARK                            x       y       z     vdW  Elec       q    Type
REMARK                         _______ _______ _______ _____ _____    ______ ____
ROOT
ATOM      1  O   UNL     1       8.276  17.786  18.545  0.00  0.00    +0.000 OA
ATOM      2  C   UNL     1       9.126  16.916  18.335  0.00  0.00    +0.000 C 
ATOM      3  C   UNL     1       9.300  15.705  19.270  0.00  0.00    +0.000 C 
ATOM      4  N   UNL     1      10.210  14.662  18.756  0.00  0.00    +0.000 N 
ATOM      5  C   UNL     1       9.921  13.318  18.872  0.00  0.00    +0.000 A 
ATOM      6  C   UNL     1       9.125  12.850  19.911  0.00  0.00    +0.000 A 
ATOM      7  C   UNL     1       8.845  11.489  20.040  0.00  0.00    +0.000 A 
ATOM      8  C   UNL     1       9.355  10.575  19.129  0.00  0.00    +0.000 A 
ATOM      9  C   UNL     1      10.155  11.112  18.128  0.00  0.00    +0.000 A 
ATOM     10  N   UNL     1      10.442  12.440  17.983  0.00  0.00    +0.000 NA
ATOM     11  C   UNL     1      11.337  15.109  17.945  0.00  0.00    +0.000 C 
ATOM     12  C   UNL     1      10.811  15.968  16.798  0.00  0.00    +0.000 C 
ATOM     13  N   UNL     1       9.985  17.061  17.274  0.00  0.00    +0.000 N 
ATOM     14  H   UNL     1       9.756  17.829  16.657  0.00  0.00    +0.000 HD
ENDROOT
BRANCH   8  15
ATOM     15  N   UNL     1       9.108   9.177  19.213  0.00  0.00    +0.000 N 
ATOM     16  C   UNL     1       8.365   8.461  18.305  0.00  0.00    +0.000 C 
ATOM     17  O   UNL     1       7.855   8.919  17.283  0.00  0.00    +0.000 OA
ATOM     18  N   UNL     1       8.194   7.137  18.631  0.00  0.00    +0.000 N 
ATOM     19  H   UNL     1       9.557   8.664  19.958  0.00  0.00    +0.000 HD
ATOM     20  H   UNL     1       8.908   6.658  19.161  0.00  0.00    +0.000 HD
BRANCH  18  21
ATOM     21  C   UNL     1       7.453   6.337  17.674  0.00  0.00    +0.000 C 
BRANCH  21  22
ATOM     22  C   UNL     1       6.034   6.153  18.055  0.00  0.00    +0.000 A 
ATOM     23  C   UNL     1       4.857   6.511  17.427  0.00  0.00    +0.000 A 
ATOM     24  C   UNL     1       3.806   5.983  18.212  0.00  0.00    +0.000 A 
ATOM     25  C   UNL     1       4.407   5.334  19.266  0.00  0.00    +0.000 A 
ATOM     26  O   UNL     1       5.760   5.432  19.183  0.00  0.00    +0.000 OA
ENDBRANCH  21  22
ENDBRANCH  18  21
ENDBRANCH   8  15
TORSDOF 3
ENDMDL
MODEL 7
REMARK VINA RESULT:      -6.8      3.022      9.560
REMARK  Name = 
REMARK  3 active torsions:
REMARK  status: ('A' for Active; 'I' for Inactive)
REMARK    1  A    between atoms: C_8  and  N_9
REMARK    2  A    between atoms: N_12  and  C_13
REMARK    3  A    between atoms: C_13  and  C_14
REMARK                            x       y       z     vdW  Elec       q    Type
REMARK                         _______ _______ _______ _____ _____    ______ ____
ROOT
ATOM      1  O   UNL     1       5.004   3.763  15.578  0.00  0.00    +0.000 OA
ATOM      2  C   UNL     1       4.818   4.237  16.703  0.00  0.00    +0.000 C 
ATOM      3  C   UNL     1       4.631   5.749  16.928  0.00  0.00    +0.000 C 
ATOM      4  N   UNL     1       4.209   6.115  18.296  0.00  0.00    +0.000 N 
ATOM      5  C   UNL     1       3.247   7.075  18.530  0.00  0.00    +0.000 A 
ATOM      6  C   UNL     1       3.041   8.111  17.627  0.00  0.00    +0.000 A 
ATOM      7  C   UNL     1       2.081   9.093  17.870  0.00  0.00    +0.000 A 
ATOM      8  C   UNL     1       1.309   9.053  19.023  0.00  0.00    +0.000 A 
ATOM      9  C   UNL     1       1.580   8.000  19.888  0.00  0.00    +0.000 A 
ATOM     10  N   UNL     1       2.516   7.029  19.669  0.00  0.00    +0.000 NA
ATOM     11  C   UNL     1       4.707   5.284  19.385  0.00  0.00    +0.000 C 
ATOM     12  C   UNL     1       4.361   3.826  19.095  0.00  0.00    +0.000 C 
ATOM     13  N   UNL     1       4.842   3.404  17.794  0.00  0.00    +0.000 N 
ATOM     14  H   UNL     1       4.881   2.420  17.563  0.00  0.00    +0.000 HD
ENDROOT
BRANCH   8  15
ATOM     15  N   UNL     1       0.319  10.028  19.327  0.00  0.00    +0.000 N 
ATOM     16  C   UNL     1      -0.755  10.326  18.522  0.00  0.00    +0.000 C 
ATOM     17  O   UNL     1      -1.027   9.766  17.462  0.00  0.00    +0.000 OA
ATOM     18  N   UNL     1      -1.537  11.359  18.981  0.00  0.00    +0.000 N 
ATOM     19  H   UNL     1       0.376  10.492  20.222  0.00  0.00    +0.000 HD
ATOM     20  H   UNL     1      -1.614  11.522  19.974  0.00  0.00    +0.000 HD
BRANCH  18  21
ATOM     21  C   UNL     1      -2.706  11.674  18.182  0.00  0.00    +0.000 C 
BRANCH  21  22
ATOM     22  C   UNL     1      -3.903  11.967  19.003  0.00  0.00    +0.000 A 
ATOM     23  C   UNL     1      -5.244  11.704  18.806  0.00  0.00    +0.000 A 
ATOM     24  C   UNL     1      -5.913  12.126  19.978  0.00  0.00    +0.000 A 
ATOM     25  C   UNL     1      -4.939  12.618  20.816  0.00  0.00    +0.000 A 
ATOM     26  O   UNL     1      -3.714  12.528  20.235  0.00  0.00    +0.000 OA
ENDBRANCH  21  22
ENDBRANCH  18  21
ENDBRANCH   8  15
TORSDOF 3
ENDMDL
MODEL 8
REMARK VINA RESULT:      -6.8      2.430      9.602
REMARK  Name = 
REMARK  3 active torsions:
REMARK  status: ('A' for Active; 'I' for Inactive)
REMARK    1  A    between atoms: C_8  and  N_9
REMARK    2  A    between atoms: N_12  and  C_13
REMARK    3  A    between atoms: C_13  and  C_14
REMARK                            x       y       z     vdW  Elec       q    Type
REMARK                         _______ _______ _______ _____ _____    ______ ____
ROOT
ATOM      1  O   UNL     1       8.198   4.332  18.509  0.00  0.00    +0.000 OA
ATOM      2  C   UNL     1       7.232   4.741  17.858  0.00  0.00    +0.000 C 
ATOM      3  C   UNL     1       5.804   4.739  18.432  0.00  0.00    +0.000 C 
ATOM      4  N   UNL     1       4.812   5.456  17.605  0.00  0.00    +0.000 N 
ATOM      5  C   UNL     1       3.855   6.278  18.162  0.00  0.00    +0.000 A 
ATOM      6  C   UNL     1       3.395   6.060  19.456  0.00  0.00    +0.000 A 
ATOM      7  C   UNL     1       2.415   6.880  20.015  0.00  0.00    +0.000 A 
ATOM      8  C   UNL     1       1.880   7.935  19.289  0.00  0.00    +0.000 A 
ATOM      9  C   UNL     1       2.375   8.084  17.998  0.00  0.00    +0.000 A 
ATOM     10  N   UNL     1       3.333   7.292  17.432  0.00  0.00    +0.000 NA
ATOM     11  C   UNL     1       5.004   5.416  16.160  0.00  0.00    +0.000 C 
ATOM     12  C   UNL     1       6.415   5.898  15.835  0.00  0.00    +0.000 C 
ATOM     13  N   UNL     1       7.423   5.152  16.562  0.00  0.00    +0.000 N 
ATOM     14  H   UNL     1       8.394   5.209  16.284  0.00  0.00    +0.000 HD
ENDROOT
BRANCH   8  15
ATOM     15  N   UNL     1       0.877   8.801  19.804  0.00  0.00    +0.000 N 
ATOM     16  C   UNL     1       0.754   9.150  21.128  0.00  0.00    +0.000 C 
ATOM     17  O   UNL     1       1.512   8.800  22.031  0.00  0.00    +0.000 OA
ATOM     18  N   UNL     1      -0.339   9.936  21.407  0.00  0.00    +0.000 N 
ATOM     19  H   UNL     1       0.248   9.236  19.145  0.00  0.00    +0.000 HD
ATOM     20  H   UNL     1      -0.691  10.568  20.703  0.00  0.00    +0.000 HD
BRANCH  18  21
ATOM     21  C   UNL     1      -0.479  10.362  22.787  0.00  0.00    +0.000 C 
BRANCH  21  22
ATOM     22  C   UNL     1      -1.137  11.682  22.917  0.00  0.00    +0.000 A 
ATOM     23  C   UNL     1      -2.466  12.057  22.889  0.00  0.00    +0.000 A 
ATOM     24  C   UNL     1      -2.499  13.443  23.170  0.00  0.00    +0.000 A 
ATOM     25  C   UNL     1      -1.189  13.825  23.353  0.00  0.00    +0.000 A 
ATOM     26  O   UNL     1      -0.353  12.765  23.200  0.00  0.00    +0.000 OA
ENDBRANCH  21  22
ENDBRANCH  18  21
ENDBRANCH   8  15
TORSDOF 3
ENDMDL
MODEL 9
REMARK VINA RESULT:      -6.8      7.131      7.767
REMARK  Name = 
REMARK  3 active torsions:
REMARK  status: ('A' for Active; 'I' for Inactive)
REMARK    1  A    between atoms: C_8  and  N_9
REMARK    2  A    between atoms: N_12  and  C_13
REMARK    3  A    between atoms: C_13  and  C_14
REMARK                            x       y       z     vdW  Elec       q    Type
REMARK                         _______ _______ _______ _____ _____    ______ ____
ROOT
ATOM      1  O   UNL     1      11.339  16.371  16.714  0.00  0.00    +0.000 OA
ATOM      2  C   UNL     1      11.010  15.758  17.734  0.00  0.00    +0.000 C 
ATOM      3  C   UNL     1       9.869  14.724  17.730  0.00  0.00    +0.000 C 
ATOM      4  N   UNL     1       9.754  13.937  18.975  0.00  0.00    +0.000 N 
ATOM      5  C   UNL     1       9.506  12.580  18.960  0.00  0.00    +0.000 A 
ATOM      6  C   UNL     1       8.812  11.996  17.907  0.00  0.00    +0.000 A 
ATOM      7  C   UNL     1       8.545  10.626  17.898  0.00  0.00    +0.000 A 
ATOM      8  C   UNL     1       8.972   9.818  18.943  0.00  0.00    +0.000 A 
ATOM      9  C   UNL     1       9.645  10.472  19.968  0.00  0.00    +0.000 A 
ATOM     10  N   UNL     1       9.916  11.812  19.997  0.00  0.00    +0.000 NA
ATOM     11  C   UNL     1      10.106  14.612  20.218  0.00  0.00    +0.000 C 
ATOM     12  C   UNL     1      11.511  15.193  20.086  0.00  0.00    +0.000 C 
ATOM     13  N   UNL     1      11.635  16.048  18.921  0.00  0.00    +0.000 N 
ATOM     14  H   UNL     1      12.429  16.669  18.831  0.00  0.00    +0.000 HD
ENDROOT
BRANCH   8  15
ATOM     15  N   UNL     1       8.725   8.419  18.990  0.00  0.00    +0.000 N 
ATOM     16  C   UNL     1       7.990   7.725  18.059  0.00  0.00    +0.000 C 
ATOM     17  O   UNL     1       7.488   8.207  17.045  0.00  0.00    +0.000 OA
ATOM     18  N   UNL     1       7.818   6.393  18.352  0.00  0.00    +0.000 N 
ATOM     19  H   UNL     1       9.169   7.888  19.726  0.00  0.00    +0.000 HD
ATOM     20  H   UNL     1       8.528   5.902  18.874  0.00  0.00    +0.000 HD
BRANCH  18  21
ATOM     21  C   UNL     1       7.085   5.616  17.369  0.00  0.00    +0.000 C 
BRANCH  21  22
ATOM     22  C   UNL     1       5.829   5.046  17.908  0.00  0.00    +0.000 A 
ATOM     23  C   UNL     1       5.034   4.000  17.482  0.00  0.00    +0.000 A 
ATOM     24  C   UNL     1       4.016   3.849  18.451  0.00  0.00    +0.000 A 
ATOM     25  C   UNL     1       4.255   4.808  19.408  0.00  0.00    +0.000 A 
ATOM     26  O   UNL     1       5.353   5.544  19.088  0.00  0.00    +0.000 OA
ENDBRANCH  21  22
ENDBRANCH  18  21
ENDBRANCH   8  15
TORSDOF 3
ENDMDL
