MODEL 1
REMARK VINA RESULT:      -7.7      0.000      0.000
REMARK  Name = 
REMARK  6 active torsions:
REMARK  status: ('A' for Active; 'I' for Inactive)
REMARK    1  A    between atoms: C_1  and  C_2
REMARK    2  A    between atoms: C_2  and  O_3
REMARK    3  A    between atoms: O_3  and  C_4
REMARK    4  A    between atoms: C_7  and  O_8
REMARK    5  A    between atoms: O_8  and  C_9
REMARK    6  A    between atoms: C_9  and  C_10
REMARK                            x       y       z     vdW  Elec       q    Type
REMARK                         _______ _______ _______ _____ _____    ______ ____
ROOT
ATOM      1  C   UNL     1       7.825   7.258  17.364  0.00  0.00    +0.000 C 
ATOM      2  O   UNL     1       7.997   7.533  16.173  0.00  0.00    +0.000 OA
ATOM      3  N   UNL     1       7.163   6.076  17.754  0.00  0.00    +0.000 N 
ATOM      4  C   UNL     1       6.600   5.299  16.636  0.00  0.00    +0.000 C 
ATOM      5  C   UNL     1       5.953   3.975  17.033  0.00  0.00    +0.000 C 
ATOM      6  C   UNL     1       5.001   4.163  18.223  0.00  0.00    +0.000 C 
ATOM      7  C   UNL     1       5.956   4.565  19.378  0.00  0.00    +0.000 C 
ATOM      8  C   UNL     1       6.563   5.957  19.092  0.00  0.00    +0.000 C 
ATOM      9  C   UNL     1       3.955   5.264  17.978  0.00  0.00    +0.000 C 
ATOM     10  C   UNL     1       3.196   5.311  19.277  0.00  0.00    +0.000 C 
ATOM     11  O   UNL     1       3.165   6.261  20.037  0.00  0.00    +0.000 OA
ATOM     12  C   UNL     1       2.493   4.058  19.529  0.00  0.00    +0.000 A 
ATOM     13  C   UNL     1       1.193   4.137  20.018  0.00  0.00    +0.000 A 
ATOM     14  C   UNL     1       0.285   3.181  19.590  0.00  0.00    +0.000 A 
ATOM     15  C   UNL     1       0.712   2.158  18.732  0.00  0.00    +0.000 A 
ATOM     16  C   UNL     1       2.072   2.011  18.394  0.00  0.00    +0.000 A 
ATOM     17  C   UNL     1       2.991   2.967  18.818  0.00  0.00    +0.000 A 
ATOM     18  O   UNL     1       4.313   2.885  18.417  0.00  0.00    +0.000 OA
ENDROOT
BRANCH   1  19
ATOM     19  C   UNL     1       8.401   8.188  18.448  0.00  0.00    +0.000 C 
BRANCH  19  20
ATOM     20  O   UNL     1       8.070   9.555  18.238  0.00  0.00    +0.000 OA
BRANCH  20  24
ATOM     21  C   UNL     1      11.139  12.143  19.444  0.00  0.00    +0.000 A 
ATOM     22  C   UNL     1      10.358  11.441  20.368  0.00  0.00    +0.000 A 
ATOM     23  C   UNL     1       9.327  10.590  19.932  0.00  0.00    +0.000 A 
ATOM     24  C   UNL     1       9.044  10.463  18.574  0.00  0.00    +0.000 A 
ATOM     25  C   UNL     1       9.798  11.196  17.647  0.00  0.00    +0.000 A 
ATOM     26  C   UNL     1      10.832  12.036  18.085  0.00  0.00    +0.000 A 
BRANCH  21  27
ATOM     27  O   UNL     1      12.141  12.894  19.978  0.00  0.00    +0.000 OA
BRANCH  27  29
ATOM     28  C   UNL     1      11.544  15.190  20.245  0.00  0.00    +0.000 C 
ATOM     29  C   UNL     1      12.333  14.188  19.408  0.00  0.00    +0.000 C 
ENDBRANCH  27  29
ENDBRANCH  21  27
ENDBRANCH  20  24
ENDBRANCH  19  20
ENDBRANCH   1  19
TORSDOF 5
ENDMDL
MODEL 2
REMARK VINA RESULT:      -7.6      6.245      9.470
REMARK  Name = 
REMARK  6 active torsions:
REMARK  status: ('A' for Active; 'I' for Inactive)
REMARK    1  A    between atoms: C_1  and  C_2
REMARK    2  A    between atoms: C_2  and  O_3
REMARK    3  A    between atoms: O_3  and  C_4
REMARK    4  A    between atoms: C_7  and  O_8
REMARK    5  A    between atoms: O_8  and  C_9
REMARK    6  A    between atoms: C_9  and  C_10
REMARK                            x       y       z     vdW  Elec       q    Type
REMARK                         _______ _______ _______ _____ _____    ______ ____
ROOT
ATOM      1  C   UNL     1       1.851   7.894  19.730  0.00  0.00    +0.000 C 
ATOM      2  O   UNL     1       1.818   7.135  20.703  0.00  0.00    +0.000 OA
ATOM      3  N   UNL     1       1.107   9.091  19.710  0.00  0.00    +0.000 N 
ATOM      4  C   UNL     1       0.215   9.271  20.870  0.00  0.00    +0.000 C 
ATOM      5  C   UNL     1      -0.535  10.599  20.906  0.00  0.00    +0.000 C 
ATOM      6  C   UNL     1      -1.185  10.901  19.548  0.00  0.00    +0.000 C 
ATOM      7  C   UNL     1       0.035  11.096  18.609  0.00  0.00    +0.000 C 
ATOM      8  C   UNL     1       0.780   9.753  18.437  0.00  0.00    +0.000 C 
ATOM      9  C   UNL     1      -2.075   9.751  19.048  0.00  0.00    +0.000 C 
ATOM     10  C   UNL     1      -2.539  10.239  17.700  0.00  0.00    +0.000 C 
ATOM     11  O   UNL     1      -2.267   9.716  16.635  0.00  0.00    +0.000 OA
ATOM     12  C   UNL     1      -3.361  11.437  17.821  0.00  0.00    +0.000 A 
ATOM     13  C   UNL     1      -4.507  11.512  17.035  0.00  0.00    +0.000 A 
ATOM     14  C   UNL     1      -5.619  12.136  17.578  0.00  0.00    +0.000 A 
ATOM     15  C   UNL     1      -5.539  12.701  18.857  0.00  0.00    +0.000 A 
ATOM     16  C   UNL     1      -4.315  12.756  19.554  0.00  0.00    +0.000 A 
ATOM     17  C   UNL     1      -3.193  12.131  19.018  0.00  0.00    +0.000 A 
ATOM     18  O   UNL     1      -2.009  12.098  19.733  0.00  0.00    +0.000 OA
ENDROOT
BRANCH   1  19
ATOM     19  C   UNL     1       2.772   7.563  18.540  0.00  0.00    +0.000 C 
BRANCH  19  20
ATOM     20  O   UNL     1       2.733   6.190  18.175  0.00  0.00    +0.000 OA
BRANCH  20  24
ATOM     21  C   UNL     1       5.794   4.633  15.772  0.00  0.00    +0.000 A 
ATOM     22  C   UNL     1       4.952   3.807  16.524  0.00  0.00    +0.000 A 
ATOM     23  C   UNL     1       3.942   4.360  17.330  0.00  0.00    +0.000 A 
ATOM     24  C   UNL     1       3.791   5.743  17.423  0.00  0.00    +0.000 A 
ATOM     25  C   UNL     1       4.660   6.574  16.702  0.00  0.00    +0.000 A 
ATOM     26  C   UNL     1       5.659   6.018  15.891  0.00  0.00    +0.000 A 
BRANCH  21  27
ATOM     27  O   UNL     1       6.700   3.985  14.988  0.00  0.00    +0.000 OA
BRANCH  27  29
ATOM     28  C   UNL     1       5.931   3.573  12.766  0.00  0.00    +0.000 C 
ATOM     29  C   UNL     1       6.819   4.449  13.644  0.00  0.00    +0.000 C 
ENDBRANCH  27  29
ENDBRANCH  21  27
ENDBRANCH  20  24
ENDBRANCH  19  20
ENDBRANCH   1  19
TORSDOF 5
ENDMDL
MODEL 3
REMARK VINA RESULT:      -7.6      6.216      9.480
REMARK  Name = 
REMARK  6 active torsions:
REMARK  status: ('A' for Active; 'I' for Inactive)
REMARK    1  A    between atoms: C_1  and  C_2
REMARK    2  A    between atoms: C_2  and  O_3
REMARK    3  A    between atoms: O_3  and  C_4
REMARK    4  A    between atoms: C_7  and  O_8
REMARK    5  A    between atoms: O_8  and  C_9
REMARK    6  A    between atoms: C_9  and  C_10
REMARK                            x       y       z     vdW  Elec       q    Type
REMARK                         _______ _______ _______ _____ _____    ______ ____
ROOT
ATOM      1  C   UNL     1       2.034   7.849  19.354  0.00  0.00    +0.000 C 
ATOM      2  O   UNL     1       2.030   7.007  20.256  0.00  0.00    +0.000 OA
ATOM      3  N   UNL     1       1.273   9.031  19.453  0.00  0.00    +0.000 N 
ATOM      4  C   UNL     1       0.402   9.094  20.640  0.00  0.00    +0.000 C 
ATOM      5  C   UNL     1      -0.366  10.403  20.807  0.00  0.00    +0.000 C 
ATOM      6  C   UNL     1      -1.046  10.813  19.494  0.00  0.00    +0.000 C 
ATOM      7  C   UNL     1       0.153  11.109  18.553  0.00  0.00    +0.000 C 
ATOM      8  C   UNL     1       0.913   9.798  18.250  0.00  0.00    +0.000 C 
ATOM      9  C   UNL     1      -1.930   9.698  18.909  0.00  0.00    +0.000 C 
ATOM     10  C   UNL     1      -2.425  10.296  17.619  0.00  0.00    +0.000 C 
ATOM     11  O   UNL     1      -2.168   9.873  16.507  0.00  0.00    +0.000 OA
ATOM     12  C   UNL     1      -3.262  11.466  17.860  0.00  0.00    +0.000 A 
ATOM     13  C   UNL     1      -4.423  11.592  17.105  0.00  0.00    +0.000 A 
ATOM     14  C   UNL     1      -5.534  12.149  17.720  0.00  0.00    +0.000 A 
ATOM     15  C   UNL     1      -5.436  12.600  19.043  0.00  0.00    +0.000 A 
ATOM     16  C   UNL     1      -4.200  12.612  19.720  0.00  0.00    +0.000 A 
ATOM     17  C   UNL     1      -3.080  12.054  19.111  0.00  0.00    +0.000 A 
ATOM     18  O   UNL     1      -1.882  11.976  19.799  0.00  0.00    +0.000 OA
ENDROOT
BRANCH   1  19
ATOM     19  C   UNL     1       2.936   7.638  18.123  0.00  0.00    +0.000 C 
BRANCH  19  20
ATOM     20  O   UNL     1       4.114   6.899  18.419  0.00  0.00    +0.000 OA
BRANCH  20  24
ATOM     21  C   UNL     1       5.586   4.344  15.440  0.00  0.00    +0.000 A 
ATOM     22  C   UNL     1       5.627   5.736  15.307  0.00  0.00    +0.000 A 
ATOM     23  C   UNL     1       5.114   6.566  16.319  0.00  0.00    +0.000 A 
ATOM     24  C   UNL     1       4.521   6.013  17.452  0.00  0.00    +0.000 A 
ATOM     25  C   UNL     1       4.442   4.618  17.570  0.00  0.00    +0.000 A 
ATOM     26  C   UNL     1       4.964   3.794  16.564  0.00  0.00    +0.000 A 
BRANCH  21  27
ATOM     27  O   UNL     1       6.160   3.642  14.424  0.00  0.00    +0.000 OA
BRANCH  27  29
ATOM     28  C   UNL     1       6.542   3.497  12.072  0.00  0.00    +0.000 C 
ATOM     29  C   UNL     1       5.495   3.698  13.163  0.00  0.00    +0.000 C 
ENDBRANCH  27  29
ENDBRANCH  21  27
ENDBRANCH  20  24
ENDBRANCH  19  20
ENDBRANCH   1  19
TORSDOF 5
ENDMDL
MODEL 4
REMARK VINA RESULT:      -7.3      5.920      8.882
REMARK  Name = 
REMARK  6 active torsions:
REMARK  status: ('A' for Active; 'I' for Inactive)
REMARK    1  A    between atoms: C_1  and  C_2
REMARK    2  A    between atoms: C_2  and  O_3
REMARK    3  A    between atoms: O_3  and  C_4
REMARK    4  A    between atoms: C_7  and  O_8
REMARK    5  A    between atoms: O_8  and  C_9
REMARK    6  A    between atoms: C_9  and  C_10
REMARK                            x       y       z     vdW  Elec       q    Type
REMARK                         _______ _______ _______ _____ _____    ______ ____
ROOT
ATOM      1  C   UNL     1       2.041   7.465  19.846  0.00  0.00    +0.000 C 
ATOM      2  O   UNL     1       1.928   6.671  20.785  0.00  0.00    +0.000 OA
ATOM      3  N   UNL     1       1.342   8.689  19.835  0.00  0.00    +0.000 N 
ATOM      4  C   UNL     1       0.396   8.858  20.952  0.00  0.00    +0.000 C 
ATOM      5  C   UNL     1      -0.307  10.212  21.000  0.00  0.00    +0.000 C 
ATOM      6  C   UNL     1      -0.871  10.589  19.623  0.00  0.00    +0.000 C 
ATOM      7  C   UNL     1       0.405  10.773  18.758  0.00  0.00    +0.000 C 
ATOM      8  C   UNL     1       1.109   9.410  18.573  0.00  0.00    +0.000 C 
ATOM      9  C   UNL     1      -1.773   9.493  19.031  0.00  0.00    +0.000 C 
ATOM     10  C   UNL     1      -2.145  10.048  17.681  0.00  0.00    +0.000 C 
ATOM     11  O   UNL     1      -1.834   9.556  16.612  0.00  0.00    +0.000 OA
ATOM     12  C   UNL     1      -2.929  11.271  17.805  0.00  0.00    +0.000 A 
ATOM     13  C   UNL     1      -4.027  11.419  16.963  0.00  0.00    +0.000 A 
ATOM     14  C   UNL     1      -5.144  12.064  17.470  0.00  0.00    +0.000 A 
ATOM     15  C   UNL     1      -5.114  12.577  18.774  0.00  0.00    +0.000 A 
ATOM     16  C   UNL     1      -3.929  12.559  19.536  0.00  0.00    +0.000 A 
ATOM     17  C   UNL     1      -2.802  11.913  19.036  0.00  0.00    +0.000 A 
ATOM     18  O   UNL     1      -1.661  11.808  19.811  0.00  0.00    +0.000 OA
ENDROOT
BRANCH   1  19
ATOM     19  C   UNL     1       3.013   7.144  18.695  0.00  0.00    +0.000 C 
BRANCH  19  20
ATOM     20  O   UNL     1       3.853   6.031  18.972  0.00  0.00    +0.000 OA
BRANCH  20  24
ATOM     21  C   UNL     1       6.804   5.504  16.042  0.00  0.00    +0.000 A 
ATOM     22  C   UNL     1       5.444   5.334  15.761  0.00  0.00    +0.000 A 
ATOM     23  C   UNL     1       4.479   5.507  16.769  0.00  0.00    +0.000 A 
ATOM     24  C   UNL     1       4.866   5.810  18.073  0.00  0.00    +0.000 A 
ATOM     25  C   UNL     1       6.231   5.940  18.366  0.00  0.00    +0.000 A 
ATOM     26  C   UNL     1       7.190   5.779  17.356  0.00  0.00    +0.000 A 
BRANCH  21  27
ATOM     27  O   UNL     1       7.642   5.365  14.978  0.00  0.00    +0.000 OA
BRANCH  27  29
ATOM     28  C   UNL     1       7.885   5.301  12.604  0.00  0.00    +0.000 C 
ATOM     29  C   UNL     1       7.076   4.801  13.797  0.00  0.00    +0.000 C 
ENDBRANCH  27  29
ENDBRANCH  21  27
ENDBRANCH  20  24
ENDBRANCH  19  20
ENDBRANCH   1  19
TORSDOF 5
ENDMDL
MODEL 5
REMARK VINA RESULT:      -7.3      0.636      1.122
REMARK  Name = 
REMARK  6 active torsions:
REMARK  status: ('A' for Active; 'I' for Inactive)
REMARK    1  A    between atoms: C_1  and  C_2
REMARK    2  A    between atoms: C_2  and  O_3
REMARK    3  A    between atoms: O_3  and  C_4
REMARK    4  A    between atoms: C_7  and  O_8
REMARK    5  A    between atoms: O_8  and  C_9
REMARK    6  A    between atoms: C_9  and  C_10
REMARK                            x       y       z     vdW  Elec       q    Type
REMARK                         _______ _______ _______ _____ _____    ______ ____
ROOT
ATOM      1  C   UNL     1       7.734   7.248  17.369  0.00  0.00    +0.000 C 
ATOM      2  O   UNL     1       7.942   7.428  16.166  0.00  0.00    +0.000 OA
ATOM      3  N   UNL     1       7.085   6.085  17.832  0.00  0.00    +0.000 N 
ATOM      4  C   UNL     1       6.582   5.204  16.764  0.00  0.00    +0.000 C 
ATOM      5  C   UNL     1       5.951   3.901  17.247  0.00  0.00    +0.000 C 
ATOM      6  C   UNL     1       4.952   4.161  18.383  0.00  0.00    +0.000 C 
ATOM      7  C   UNL     1       5.855   4.681  19.534  0.00  0.00    +0.000 C 
ATOM      8  C   UNL     1       6.439   6.060  19.154  0.00  0.00    +0.000 C 
ATOM      9  C   UNL     1       3.891   5.211  18.012  0.00  0.00    +0.000 C 
ATOM     10  C   UNL     1       3.083   5.344  19.276  0.00  0.00    +0.000 C 
ATOM     11  O   UNL     1       3.003   6.353  19.953  0.00  0.00    +0.000 OA
ATOM     12  C   UNL     1       2.401   4.098  19.607  0.00  0.00    +0.000 A 
ATOM     13  C   UNL     1       1.082   4.183  20.041  0.00  0.00    +0.000 A 
ATOM     14  C   UNL     1       0.214   3.172  19.663  0.00  0.00    +0.000 A 
ATOM     15  C   UNL     1       0.695   2.094  18.909  0.00  0.00    +0.000 A 
ATOM     16  C   UNL     1       2.070   1.955  18.631  0.00  0.00    +0.000 A 
ATOM     17  C   UNL     1       2.950   2.966  19.006  0.00  0.00    +0.000 A 
ATOM     18  O   UNL     1       4.287   2.886  18.659  0.00  0.00    +0.000 OA
ENDROOT
BRANCH   1  19
ATOM     19  C   UNL     1       8.247   8.279  18.391  0.00  0.00    +0.000 C 
BRANCH  19  20
ATOM     20  O   UNL     1       8.312   9.597  17.864  0.00  0.00    +0.000 OA
BRANCH  20  24
ATOM     21  C   UNL     1      10.389  12.549  19.997  0.00  0.00    +0.000 A 
ATOM     22  C   UNL     1      10.106  12.683  18.633  0.00  0.00    +0.000 A 
ATOM     23  C   UNL     1       9.418  11.669  17.943  0.00  0.00    +0.000 A 
ATOM     24  C   UNL     1       9.043  10.498  18.599  0.00  0.00    +0.000 A 
ATOM     25  C   UNL     1       9.361  10.344  19.956  0.00  0.00    +0.000 A 
ATOM     26  C   UNL     1      10.037  11.361  20.643  0.00  0.00    +0.000 A 
BRANCH  21  27
ATOM     27  O   UNL     1      11.011  13.615  20.571  0.00  0.00    +0.000 OA
BRANCH  27  29
ATOM     28  C   UNL     1       9.567  15.420  21.167  0.00  0.00    +0.000 C 
ATOM     29  C   UNL     1      10.577  14.906  20.146  0.00  0.00    +0.000 C 
ENDBRANCH  27  29
ENDBRANCH  21  27
ENDBRANCH  20  24
ENDBRANCH  19  20
ENDBRANCH   1  19
TORSDOF 5
ENDMDL
MODEL 6
REMARK VINA RESULT:      -7.2      7.270     10.391
REMARK  Name = 
REMARK  6 active torsions:
REMARK  status: ('A' for Active; 'I' for Inactive)
REMARK    1  A    between atoms: C_1  and  C_2
REMARK    2  A    between atoms: C_2  and  O_3
REMARK    3  A    between atoms: O_3  and  C_4
REMARK    4  A    between atoms: C_7  and  O_8
REMARK    5  A    between atoms: O_8  and  C_9
REMARK    6  A    between atoms: C_9  and  C_10
REMARK                            x       y       z     vdW  Elec       q    Type
REMARK                         _______ _______ _______ _____ _____    ______ ____
ROOT
ATOM      1  C   UNL     1       1.609  10.437  18.270  0.00  0.00    +0.000 C 
ATOM      2  O   UNL     1       2.631  11.054  17.959  0.00  0.00    +0.000 OA
ATOM      3  N   UNL     1       0.418  11.115  18.603  0.00  0.00    +0.000 N 
ATOM      4  C   UNL     1       0.553  12.581  18.668  0.00  0.00    +0.000 C 
ATOM      5  C   UNL     1      -0.745  13.335  18.945  0.00  0.00    +0.000 C 
ATOM      6  C   UNL     1      -1.504  12.710  20.124  0.00  0.00    +0.000 C 
ATOM      7  C   UNL     1      -1.901  11.310  19.586  0.00  0.00    +0.000 C 
ATOM      8  C   UNL     1      -0.632  10.449  19.389  0.00  0.00    +0.000 C 
ATOM      9  C   UNL     1      -0.634  12.578  21.387  0.00  0.00    +0.000 C 
ATOM     10  C   UNL     1      -1.553  11.894  22.365  0.00  0.00    +0.000 C 
ATOM     11  O   UNL     1      -1.376  10.785  22.834  0.00  0.00    +0.000 OA
ATOM     12  C   UNL     1      -2.706  12.728  22.686  0.00  0.00    +0.000 A 
ATOM     13  C   UNL     1      -3.103  12.789  24.018  0.00  0.00    +0.000 A 
ATOM     14  C   UNL     1      -3.599  13.996  24.486  0.00  0.00    +0.000 A 
ATOM     15  C   UNL     1      -3.725  15.080  23.607  0.00  0.00    +0.000 A 
ATOM     16  C   UNL     1      -3.472  14.932  22.228  0.00  0.00    +0.000 A 
ATOM     17  C   UNL     1      -2.973  13.725  21.749  0.00  0.00    +0.000 A 
ATOM     18  O   UNL     1      -2.635  13.595  20.413  0.00  0.00    +0.000 OA
ENDROOT
BRANCH   1  19
ATOM     19  C   UNL     1       1.610   8.897  18.232  0.00  0.00    +0.000 C 
BRANCH  19  20
ATOM     20  O   UNL     1       2.747   8.360  17.571  0.00  0.00    +0.000 OA
BRANCH  20  24
ATOM     21  C   UNL     1       4.398   4.778  18.991  0.00  0.00    +0.000 A 
ATOM     22  C   UNL     1       4.841   5.378  17.807  0.00  0.00    +0.000 A 
ATOM     23  C   UNL     1       4.258   6.574  17.351  0.00  0.00    +0.000 A 
ATOM     24  C   UNL     1       3.204   7.157  18.051  0.00  0.00    +0.000 A 
ATOM     25  C   UNL     1       2.731   6.536  19.215  0.00  0.00    +0.000 A 
ATOM     26  C   UNL     1       3.322   5.350  19.673  0.00  0.00    +0.000 A 
BRANCH  21  27
ATOM     27  O   UNL     1       5.071   3.654  19.363  0.00  0.00    +0.000 OA
BRANCH  27  29
ATOM     28  C   UNL     1       3.633   1.901  18.616  0.00  0.00    +0.000 C 
ATOM     29  C   UNL     1       4.275   2.566  19.830  0.00  0.00    +0.000 C 
ENDBRANCH  27  29
ENDBRANCH  21  27
ENDBRANCH  20  24
ENDBRANCH  19  20
ENDBRANCH   1  19
TORSDOF 5
ENDMDL
MODEL 7
REMARK VINA RESULT:      -7.1      6.039      9.437
REMARK  Name = 
REMARK  6 active torsions:
REMARK  status: ('A' for Active; 'I' for Inactive)
REMARK    1  A    between atoms: C_1  and  C_2
REMARK    2  A    between atoms: C_2  and  O_3
REMARK    3  A    between atoms: O_3  and  C_4
REMARK    4  A    between atoms: C_7  and  O_8
REMARK    5  A    between atoms: O_8  and  C_9
REMARK    6  A    between atoms: C_9  and  C_10
REMARK                            x       y       z     vdW  Elec       q    Type
REMARK                         _______ _______ _______ _____ _____    ______ ____
ROOT
ATOM      1  C   UNL     1       2.051   7.262  19.439  0.00  0.00    +0.000 C 
ATOM      2  O   UNL     1       1.951   6.184  20.032  0.00  0.00    +0.000 OA
ATOM      3  N   UNL     1       1.769   8.482  20.088  0.00  0.00    +0.000 N 
ATOM      4  C   UNL     1       1.234   8.334  21.453  0.00  0.00    +0.000 C 
ATOM      5  C   UNL     1       1.002   9.645  22.199  0.00  0.00    +0.000 C 
ATOM      6  C   UNL     1       0.244  10.651  21.322  0.00  0.00    +0.000 C 
ATOM      7  C   UNL     1       1.251  10.953  20.180  0.00  0.00    +0.000 C 
ATOM      8  C   UNL     1       1.446   9.690  19.311  0.00  0.00    +0.000 C 
ATOM      9  C   UNL     1      -1.064  10.074  20.752  0.00  0.00    +0.000 C 
ATOM     10  C   UNL     1      -1.585  11.194  19.891  0.00  0.00    +0.000 C 
ATOM     11  O   UNL     1      -1.719  11.145  18.682  0.00  0.00    +0.000 OA
ATOM     12  C   UNL     1      -1.912  12.371  20.688  0.00  0.00    +0.000 A 
ATOM     13  C   UNL     1      -3.093  13.043  20.388  0.00  0.00    +0.000 A 
ATOM     14  C   UNL     1      -3.799  13.602  21.441  0.00  0.00    +0.000 A 
ATOM     15  C   UNL     1      -3.286  13.514  22.742  0.00  0.00    +0.000 A 
ATOM     16  C   UNL     1      -2.006  12.976  22.986  0.00  0.00    +0.000 A 
ATOM     17  C   UNL     1      -1.290  12.412  21.935  0.00  0.00    +0.000 A 
ATOM     18  O   UNL     1      -0.072  11.799  22.175  0.00  0.00    +0.000 OA
ENDROOT
BRANCH   1  19
ATOM     19  C   UNL     1       2.556   7.286  17.984  0.00  0.00    +0.000 C 
BRANCH  19  20
ATOM     20  O   UNL     1       3.968   7.156  17.885  0.00  0.00    +0.000 OA
BRANCH  20  24
ATOM     21  C   UNL     1       5.585   4.243  15.340  0.00  0.00    +0.000 A 
ATOM     22  C   UNL     1       5.731   5.611  15.086  0.00  0.00    +0.000 A 
ATOM     23  C   UNL     1       5.166   6.564  15.953  0.00  0.00    +0.000 A 
ATOM     24  C   UNL     1       4.419   6.158  17.057  0.00  0.00    +0.000 A 
ATOM     25  C   UNL     1       4.236   4.788  17.291  0.00  0.00    +0.000 A 
ATOM     26  C   UNL     1       4.810   3.841  16.431  0.00  0.00    +0.000 A 
BRANCH  21  27
ATOM     27  O   UNL     1       6.218   3.416  14.465  0.00  0.00    +0.000 OA
BRANCH  27  29
ATOM     28  C   UNL     1       5.550   3.191  12.184  0.00  0.00    +0.000 C 
ATOM     29  C   UNL     1       6.455   3.938  13.158  0.00  0.00    +0.000 C 
ENDBRANCH  27  29
ENDBRANCH  21  27
ENDBRANCH  20  24
ENDBRANCH  19  20
ENDBRANCH   1  19
TORSDOF 5
ENDMDL
MODEL 8
REMARK VINA RESULT:      -7.0      2.448     10.845
REMARK  Name = 
REMARK  6 active torsions:
REMARK  status: ('A' for Active; 'I' for Inactive)
REMARK    1  A    between atoms: C_1  and  C_2
REMARK    2  A    between atoms: C_2  and  O_3
REMARK    3  A    between atoms: O_3  and  C_4
REMARK    4  A    between atoms: C_7  and  O_8
REMARK    5  A    between atoms: O_8  and  C_9
REMARK    6  A    between atoms: C_9  and  C_10
REMARK                            x       y       z     vdW  Elec       q    Type
REMARK                         _______ _______ _______ _____ _____    ______ ____
ROOT
ATOM      1  C   UNL     1       8.695   9.555  18.518  0.00  0.00    +0.000 C 
ATOM      2  O   UNL     1       9.031   8.757  19.398  0.00  0.00    +0.000 OA
ATOM      3  N   UNL     1       9.316  10.815  18.398  0.00  0.00    +0.000 N 
ATOM      4  C   UNL     1      10.277  11.123  19.472  0.00  0.00    +0.000 C 
ATOM      5  C   UNL     1      11.020  12.446  19.312  0.00  0.00    +0.000 C 
ATOM      6  C   UNL     1      10.047  13.586  18.979  0.00  0.00    +0.000 C 
ATOM      7  C   UNL     1       9.511  13.195  17.576  0.00  0.00    +0.000 C 
ATOM      8  C   UNL     1       8.651  11.917  17.685  0.00  0.00    +0.000 C 
ATOM      9  C   UNL     1       8.891  13.694  19.989  0.00  0.00    +0.000 C 
ATOM     10  C   UNL     1       8.052  14.812  19.430  0.00  0.00    +0.000 C 
ATOM     11  O   UNL     1       6.911  14.695  19.022  0.00  0.00    +0.000 OA
ATOM     12  C   UNL     1       8.779  16.076  19.430  0.00  0.00    +0.000 A 
ATOM     13  C   UNL     1       8.091  17.215  19.835  0.00  0.00    +0.000 A 
ATOM     14  C   UNL     1       8.796  18.176  20.542  0.00  0.00    +0.000 A 
ATOM     15  C   UNL     1      10.165  17.993  20.779  0.00  0.00    +0.000 A 
ATOM     16  C   UNL     1      10.865  16.912  20.208  0.00  0.00    +0.000 A 
ATOM     17  C   UNL     1      10.165  15.941  19.498  0.00  0.00    +0.000 A 
ATOM     18  O   UNL     1      10.825  14.827  19.011  0.00  0.00    +0.000 OA
ENDROOT
BRANCH   1  19
ATOM     19  C   UNL     1       7.624   9.145  17.490  0.00  0.00    +0.000 C 
BRANCH  19  20
ATOM     20  O   UNL     1       7.782   7.811  17.027  0.00  0.00    +0.000 OA
BRANCH  20  24
ATOM     21  C   UNL     1       4.921   4.984  18.208  0.00  0.00    +0.000 A 
ATOM     22  C   UNL     1       4.649   5.947  17.230  0.00  0.00    +0.000 A 
ATOM     23  C   UNL     1       5.627   6.889  16.865  0.00  0.00    +0.000 A 
ATOM     24  C   UNL     1       6.867   6.903  17.499  0.00  0.00    +0.000 A 
ATOM     25  C   UNL     1       7.127   5.965  18.509  0.00  0.00    +0.000 A 
ATOM     26  C   UNL     1       6.155   5.019  18.863  0.00  0.00    +0.000 A 
BRANCH  21  27
ATOM     27  O   UNL     1       3.921   4.090  18.442  0.00  0.00    +0.000 OA
BRANCH  27  29
ATOM     28  C   UNL     1       1.596   4.142  17.899  0.00  0.00    +0.000 C 
ATOM     29  C   UNL     1       3.002   3.875  17.371  0.00  0.00    +0.000 C 
ENDBRANCH  27  29
ENDBRANCH  21  27
ENDBRANCH  20  24
ENDBRANCH  19  20
ENDBRANCH   1  19
TORSDOF 5
ENDMDL
MODEL 9
REMARK VINA RESULT:      -7.0      2.548     10.817
REMARK  Name = 
REMARK  6 active torsions:
REMARK  status: ('A' for Active; 'I' for Inactive)
REMARK    1  A    between atoms: C_1  and  C_2
REMARK    2  A    between atoms: C_2  and  O_3
REMARK    3  A    between atoms: O_3  and  C_4
REMARK    4  A    between atoms: C_7  and  O_8
REMARK    5  A    between atoms: O_8  and  C_9
REMARK    6  A    between atoms: C_9  and  C_10
REMARK                            x       y       z     vdW  Elec       q    Type
REMARK                         _______ _______ _______ _____ _____    ______ ____
ROOT
ATOM      1  C   UNL     1       8.757   9.671  18.510  0.00  0.00    +0.000 C 
ATOM      2  O   UNL     1       9.135   8.892  19.390  0.00  0.00    +0.000 OA
ATOM      3  N   UNL     1       9.333  10.950  18.369  0.00  0.00    +0.000 N 
ATOM      4  C   UNL     1      10.302  11.299  19.423  0.00  0.00    +0.000 C 
ATOM      5  C   UNL     1      10.996  12.646  19.239  0.00  0.00    +0.000 C 
ATOM      6  C   UNL     1       9.980  13.750  18.915  0.00  0.00    +0.000 C 
ATOM      7  C   UNL     1       9.434  13.328  17.524  0.00  0.00    +0.000 C 
ATOM      8  C   UNL     1       8.619  12.023  17.659  0.00  0.00    +0.000 C 
ATOM      9  C   UNL     1       8.839  13.826  19.943  0.00  0.00    +0.000 C 
ATOM     10  C   UNL     1       7.952  14.911  19.391  0.00  0.00    +0.000 C 
ATOM     11  O   UNL     1       6.809  14.752  19.003  0.00  0.00    +0.000 OA
ATOM     12  C   UNL     1       8.637  16.199  19.367  0.00  0.00    +0.000 A 
ATOM     13  C   UNL     1       7.917  17.317  19.775  0.00  0.00    +0.000 A 
ATOM     14  C   UNL     1       8.601  18.308  20.461  0.00  0.00    +0.000 A 
ATOM     15  C   UNL     1       9.980  18.173  20.676  0.00  0.00    +0.000 A 
ATOM     16  C   UNL     1      10.706  17.111  20.102  0.00  0.00    +0.000 A 
ATOM     17  C   UNL     1      10.027  16.111  19.412  0.00  0.00    +0.000 A 
ATOM     18  O   UNL     1      10.716  15.015  18.922  0.00  0.00    +0.000 OA
ENDROOT
BRANCH   1  19
ATOM     19  C   UNL     1       7.683   9.216  17.504  0.00  0.00    +0.000 C 
BRANCH  19  20
ATOM     20  O   UNL     1       7.838   7.862  17.102  0.00  0.00    +0.000 OA
BRANCH  20  24
ATOM     21  C   UNL     1       4.926   5.275  18.651  0.00  0.00    +0.000 A 
ATOM     22  C   UNL     1       6.253   5.245  19.094  0.00  0.00    +0.000 A 
ATOM     23  C   UNL     1       7.209   6.118  18.546  0.00  0.00    +0.000 A 
ATOM     24  C   UNL     1       6.857   6.999  17.525  0.00  0.00    +0.000 A 
ATOM     25  C   UNL     1       5.538   7.002  17.051  0.00  0.00    +0.000 A 
ATOM     26  C   UNL     1       4.585   6.138  17.607  0.00  0.00    +0.000 A 
BRANCH  21  27
ATOM     27  O   UNL     1       4.078   4.423  19.291  0.00  0.00    +0.000 OA
BRANCH  27  29
ATOM     28  C   UNL     1       3.618   2.417  18.081  0.00  0.00    +0.000 C 
ATOM     29  C   UNL     1       4.408   3.037  19.230  0.00  0.00    +0.000 C 
ENDBRANCH  27  29
ENDBRANCH  21  27
ENDBRANCH  20  24
ENDBRANCH  19  20
ENDBRANCH   1  19
TORSDOF 5
ENDMDL
