MODEL 1
REMARK VINA RESULT:      -5.9      0.000      0.000
REMARK  Name = 
REMARK  7 active torsions:
REMARK  status: ('A' for Active; 'I' for Inactive)
REMARK    1  A    between atoms: C_1  and  C_2
REMARK    2  A    between atoms: C_2  and  O_3
REMARK    3  A    between atoms: O_3  and  C_4
REMARK    4  A    between atoms: C_4  and  C_6
REMARK    5  A    between atoms: C_6  and  S_7
REMARK    6  A    between atoms: S_7  and  C_8
REMARK    7  A    between atoms: C_13  and  C_14
REMARK                            x       y       z     vdW  Elec       q    Type
REMARK                         _______ _______ _______ _____ _____    ______ ____
ROOT
ATOM      1  C   UNL     1       3.849   3.018  18.476  0.00  0.00    +0.000 A 
ATOM      2  C   UNL     1       4.747   3.337  19.475  0.00  0.00    +0.000 A 
ATOM      3  N   UNL     1       5.587   4.402  19.207  0.00  0.00    +0.000 NA
ATOM      4  C   UNL     1       5.285   4.902  18.039  0.00  0.00    +0.000 A 
ATOM      5  N   UNL     1       5.846   5.944  17.365  0.00  0.00    +0.000 N 
ATOM      6  C   UNL     1       6.970   6.637  17.679  0.00  0.00    +0.000 C 
ATOM      7  C   UNL     1       7.907   6.226  18.783  0.00  0.00    +0.000 C 
ATOM      8  O   UNL     1       7.252   7.618  16.981  0.00  0.00    +0.000 OA
ATOM      9  S   UNL     1       3.989   4.162  17.207  0.00  0.00    +0.000 S 
ATOM     10  H   UNL     1       5.365   6.268  16.538  0.00  0.00    +0.000 HD
ENDROOT
BRANCH   1  11
ATOM     11  S   UNL     1       2.709   1.690  18.473  0.00  0.00    +0.000 S 
BRANCH  11  12
ATOM     12  C   UNL     1       1.169   2.597  18.796  0.00  0.00    +0.000 C 
BRANCH  12  13
ATOM     13  C   UNL     1       1.155   3.211  20.178  0.00  0.00    +0.000 C 
ATOM     14  O   UNL     1       1.166   2.604  21.239  0.00  0.00    +0.000 OA
BRANCH  13  15
ATOM     15  O   UNL     1       0.981   4.562  20.052  0.00  0.00    +0.000 OA
BRANCH  15  17
ATOM     16  C   UNL     1       2.347   6.502  19.762  0.00  0.00    +0.000 C 
ATOM     17  C   UNL     1       1.962   5.379  20.709  0.00  0.00    +0.000 C 
ENDBRANCH  15  17
ENDBRANCH  13  15
ENDBRANCH  12  13
ENDBRANCH  11  12
ENDBRANCH   1  11
TORSDOF 5
ENDMDL
MODEL 2
REMARK VINA RESULT:      -5.9      3.353      6.784
REMARK  Name = 
REMARK  7 active torsions:
REMARK  status: ('A' for Active; 'I' for Inactive)
REMARK    1  A    between atoms: C_1  and  C_2
REMARK    2  A    between atoms: C_2  and  O_3
REMARK    3  A    between atoms: O_3  and  C_4
REMARK    4  A    between atoms: C_4  and  C_6
REMARK    5  A    between atoms: C_6  and  S_7
REMARK    6  A    between atoms: S_7  and  C_8
REMARK    7  A    between atoms: C_13  and  C_14
REMARK                            x       y       z     vdW  Elec       q    Type
REMARK                         _______ _______ _______ _____ _____    ______ ____
ROOT
ATOM      1  C   UNL     1       4.471   5.548  17.548  0.00  0.00    +0.000 A 
ATOM      2  C   UNL     1       3.137   5.788  17.810  0.00  0.00    +0.000 A 
ATOM      3  N   UNL     1       2.602   5.087  18.876  0.00  0.00    +0.000 NA
ATOM      4  C   UNL     1       3.541   4.369  19.431  0.00  0.00    +0.000 A 
ATOM      5  N   UNL     1       3.477   3.521  20.495  0.00  0.00    +0.000 N 
ATOM      6  C   UNL     1       2.373   3.092  21.159  0.00  0.00    +0.000 C 
ATOM      7  C   UNL     1       0.971   3.369  20.688  0.00  0.00    +0.000 C 
ATOM      8  O   UNL     1       2.546   2.397  22.167  0.00  0.00    +0.000 OA
ATOM      9  S   UNL     1       5.100   4.496  18.745  0.00  0.00    +0.000 S 
ATOM     10  H   UNL     1       4.353   3.177  20.861  0.00  0.00    +0.000 HD
ENDROOT
BRANCH   1  11
ATOM     11  S   UNL     1       5.419   6.214  16.236  0.00  0.00    +0.000 S 
BRANCH  11  12
ATOM     12  C   UNL     1       6.500   4.800  15.879  0.00  0.00    +0.000 C 
BRANCH  12  13
ATOM     13  C   UNL     1       6.942   4.777  14.432  0.00  0.00    +0.000 C 
ATOM     14  O   UNL     1       7.840   5.445  13.940  0.00  0.00    +0.000 OA
BRANCH  13  15
ATOM     15  O   UNL     1       6.076   3.989  13.725  0.00  0.00    +0.000 OA
BRANCH  15  17
ATOM     16  C   UNL     1       5.432   2.743  11.791  0.00  0.00    +0.000 C 
ATOM     17  C   UNL     1       6.495   3.641  12.397  0.00  0.00    +0.000 C 
ENDBRANCH  15  17
ENDBRANCH  13  15
ENDBRANCH  12  13
ENDBRANCH  11  12
ENDBRANCH   1  11
TORSDOF 5
ENDMDL
MODEL 3
REMARK VINA RESULT:      -5.8      3.041      6.575
REMARK  Name = 
REMARK  7 active torsions:
REMARK  status: ('A' for Active; 'I' for Inactive)
REMARK    1  A    between atoms: C_1  and  C_2
REMARK    2  A    between atoms: C_2  and  O_3
REMARK    3  A    between atoms: O_3  and  C_4
REMARK    4  A    between atoms: C_4  and  C_6
REMARK    5  A    between atoms: C_6  and  S_7
REMARK    6  A    between atoms: S_7  and  C_8
REMARK    7  A    between atoms: C_13  and  C_14
REMARK                            x       y       z     vdW  Elec       q    Type
REMARK                         _______ _______ _______ _____ _____    ______ ____
ROOT
ATOM      1  C   UNL     1       5.150   5.172  18.044  0.00  0.00    +0.000 A 
ATOM      2  C   UNL     1       4.707   5.246  19.350  0.00  0.00    +0.000 A 
ATOM      3  N   UNL     1       3.542   4.554  19.626  0.00  0.00    +0.000 NA
ATOM      4  C   UNL     1       3.148   3.931  18.548  0.00  0.00    +0.000 A 
ATOM      5  N   UNL     1       2.057   3.141  18.347  0.00  0.00    +0.000 N 
ATOM      6  C   UNL     1       1.014   2.923  19.188  0.00  0.00    +0.000 C 
ATOM      7  C   UNL     1       0.813   3.693  20.465  0.00  0.00    +0.000 C 
ATOM      8  O   UNL     1       0.170   2.086  18.848  0.00  0.00    +0.000 OA
ATOM      9  S   UNL     1       4.133   4.110  17.164  0.00  0.00    +0.000 S 
ATOM     10  H   UNL     1       2.014   2.631  17.477  0.00  0.00    +0.000 HD
ENDROOT
BRANCH   1  11
ATOM     11  S   UNL     1       6.538   5.987  17.359  0.00  0.00    +0.000 S 
BRANCH  11  12
ATOM     12  C   UNL     1       7.339   4.592  16.517  0.00  0.00    +0.000 C 
BRANCH  12  13
ATOM     13  C   UNL     1       7.226   4.699  15.012  0.00  0.00    +0.000 C 
ATOM     14  O   UNL     1       7.674   5.599  14.316  0.00  0.00    +0.000 OA
BRANCH  13  15
ATOM     15  O   UNL     1       6.412   3.695  14.564  0.00  0.00    +0.000 OA
BRANCH  15  17
ATOM     16  C   UNL     1       5.906   3.248  12.272  0.00  0.00    +0.000 C 
ATOM     17  C   UNL     1       5.516   4.050  13.501  0.00  0.00    +0.000 C 
ENDBRANCH  15  17
ENDBRANCH  13  15
ENDBRANCH  12  13
ENDBRANCH  11  12
ENDBRANCH   1  11
TORSDOF 5
ENDMDL
MODEL 4
REMARK VINA RESULT:      -5.8      1.981      2.846
REMARK  Name = 
REMARK  7 active torsions:
REMARK  status: ('A' for Active; 'I' for Inactive)
REMARK    1  A    between atoms: C_1  and  C_2
REMARK    2  A    between atoms: C_2  and  O_3
REMARK    3  A    between atoms: O_3  and  C_4
REMARK    4  A    between atoms: C_4  and  C_6
REMARK    5  A    between atoms: C_6  and  S_7
REMARK    6  A    between atoms: S_7  and  C_8
REMARK    7  A    between atoms: C_13  and  C_14
REMARK                            x       y       z     vdW  Elec       q    Type
REMARK                         _______ _______ _______ _____ _____    ______ ____
ROOT
ATOM      1  C   UNL     1       3.114   5.395  19.718  0.00  0.00    +0.000 A 
ATOM      2  C   UNL     1       3.342   6.137  18.576  0.00  0.00    +0.000 A 
ATOM      3  N   UNL     1       4.546   5.897  17.938  0.00  0.00    +0.000 NA
ATOM      4  C   UNL     1       5.185   4.950  18.571  0.00  0.00    +0.000 A 
ATOM      5  N   UNL     1       6.401   4.395  18.312  0.00  0.00    +0.000 N 
ATOM      6  C   UNL     1       7.330   4.796  17.407  0.00  0.00    +0.000 C 
ATOM      7  C   UNL     1       7.220   6.082  16.632  0.00  0.00    +0.000 C 
ATOM      8  O   UNL     1       8.333   4.087  17.263  0.00  0.00    +0.000 OA
ATOM      9  S   UNL     1       4.399   4.282  19.933  0.00  0.00    +0.000 S 
ATOM     10  H   UNL     1       6.649   3.568  18.836  0.00  0.00    +0.000 HD
ENDROOT
BRANCH   1  11
ATOM     11  S   UNL     1       1.733   5.512  20.787  0.00  0.00    +0.000 S 
BRANCH  11  12
ATOM     12  C   UNL     1       0.806   4.040  20.267  0.00  0.00    +0.000 C 
BRANCH  12  13
ATOM     13  C   UNL     1       1.357   2.776  20.891  0.00  0.00    +0.000 C 
ATOM     14  O   UNL     1       1.590   2.598  22.078  0.00  0.00    +0.000 OA
BRANCH  13  15
ATOM     15  O   UNL     1       1.691   1.906  19.889  0.00  0.00    +0.000 OA
BRANCH  15  17
ATOM     16  C   UNL     1       2.535   2.140  17.666  0.00  0.00    +0.000 C 
ATOM     17  C   UNL     1       1.323   2.315  18.563  0.00  0.00    +0.000 C 
ENDBRANCH  15  17
ENDBRANCH  13  15
ENDBRANCH  12  13
ENDBRANCH  11  12
ENDBRANCH   1  11
TORSDOF 5
ENDMDL
MODEL 5
REMARK VINA RESULT:      -5.8      2.228      6.497
REMARK  Name = 
REMARK  7 active torsions:
REMARK  status: ('A' for Active; 'I' for Inactive)
REMARK    1  A    between atoms: C_1  and  C_2
REMARK    2  A    between atoms: C_2  and  O_3
REMARK    3  A    between atoms: O_3  and  C_4
REMARK    4  A    between atoms: C_4  and  C_6
REMARK    5  A    between atoms: C_6  and  S_7
REMARK    6  A    between atoms: S_7  and  C_8
REMARK    7  A    between atoms: C_13  and  C_14
REMARK                            x       y       z     vdW  Elec       q    Type
REMARK                         _______ _______ _______ _____ _____    ______ ____
ROOT
ATOM      1  C   UNL     1       5.661   4.401  18.079  0.00  0.00    +0.000 A 
ATOM      2  C   UNL     1       5.128   4.780  19.294  0.00  0.00    +0.000 A 
ATOM      3  N   UNL     1       3.846   4.328  19.551  0.00  0.00    +0.000 NA
ATOM      4  C   UNL     1       3.448   3.579  18.558  0.00  0.00    +0.000 A 
ATOM      5  N   UNL     1       2.264   2.934  18.372  0.00  0.00    +0.000 N 
ATOM      6  C   UNL     1       1.132   3.029  19.115  0.00  0.00    +0.000 C 
ATOM      7  C   UNL     1       0.952   4.044  20.211  0.00  0.00    +0.000 C 
ATOM      8  O   UNL     1       0.194   2.276  18.829  0.00  0.00    +0.000 OA
ATOM      9  S   UNL     1       4.564   3.353  17.283  0.00  0.00    +0.000 S 
ATOM     10  H   UNL     1       2.212   2.282  17.602  0.00  0.00    +0.000 HD
ENDROOT
BRANCH   1  11
ATOM     11  S   UNL     1       7.218   4.863  17.426  0.00  0.00    +0.000 S 
BRANCH  11  12
ATOM     12  C   UNL     1       7.671   6.178  18.594  0.00  0.00    +0.000 C 
BRANCH  12  13
ATOM     13  C   UNL     1       7.772   7.527  17.915  0.00  0.00    +0.000 C 
ATOM     14  O   UNL     1       7.352   7.808  16.802  0.00  0.00    +0.000 OA
BRANCH  13  15
ATOM     15  O   UNL     1       8.540   8.349  18.693  0.00  0.00    +0.000 OA
BRANCH  15  17
ATOM     16  C   UNL     1       9.571  10.447  19.186  0.00  0.00    +0.000 C 
ATOM     17  C   UNL     1       8.579   9.726  18.291  0.00  0.00    +0.000 C 
ENDBRANCH  15  17
ENDBRANCH  13  15
ENDBRANCH  12  13
ENDBRANCH  11  12
ENDBRANCH   1  11
TORSDOF 5
ENDMDL
MODEL 6
REMARK VINA RESULT:      -5.7      2.264      3.048
REMARK  Name = 
REMARK  7 active torsions:
REMARK  status: ('A' for Active; 'I' for Inactive)
REMARK    1  A    between atoms: C_1  and  C_2
REMARK    2  A    between atoms: C_2  and  O_3
REMARK    3  A    between atoms: O_3  and  C_4
REMARK    4  A    between atoms: C_4  and  C_6
REMARK    5  A    between atoms: C_6  and  S_7
REMARK    6  A    between atoms: S_7  and  C_8
REMARK    7  A    between atoms: C_13  and  C_14
REMARK                            x       y       z     vdW  Elec       q    Type
REMARK                         _______ _______ _______ _____ _____    ______ ____
ROOT
ATOM      1  C   UNL     1       3.105   5.286  19.244  0.00  0.00    +0.000 A 
ATOM      2  C   UNL     1       2.754   5.177  17.913  0.00  0.00    +0.000 A 
ATOM      3  N   UNL     1       3.805   5.013  17.029  0.00  0.00    +0.000 NA
ATOM      4  C   UNL     1       4.924   4.952  17.701  0.00  0.00    +0.000 A 
ATOM      5  N   UNL     1       6.202   4.806  17.255  0.00  0.00    +0.000 N 
ATOM      6  C   UNL     1       6.651   4.837  15.974  0.00  0.00    +0.000 C 
ATOM      7  C   UNL     1       5.784   5.227  14.808  0.00  0.00    +0.000 C 
ATOM      8  O   UNL     1       7.846   4.582  15.780  0.00  0.00    +0.000 OA
ATOM      9  S   UNL     1       4.796   5.063  19.401  0.00  0.00    +0.000 S 
ATOM     10  H   UNL     1       6.913   4.630  17.950  0.00  0.00    +0.000 HD
ENDROOT
BRANCH   1  11
ATOM     11  S   UNL     1       2.027   5.572  20.593  0.00  0.00    +0.000 S 
BRANCH  11  12
ATOM     12  C   UNL     1       0.980   4.093  20.478  0.00  0.00    +0.000 C 
BRANCH  12  13
ATOM     13  C   UNL     1       1.586   2.914  21.205  0.00  0.00    +0.000 C 
ATOM     14  O   UNL     1       1.328   2.558  22.346  0.00  0.00    +0.000 OA
BRANCH  13  15
ATOM     15  O   UNL     1       2.583   2.389  20.428  0.00  0.00    +0.000 OA
BRANCH  15  17
ATOM     16  C   UNL     1       3.414   1.538  18.356  0.00  0.00    +0.000 C 
ATOM     17  C   UNL     1       2.167   1.854  19.163  0.00  0.00    +0.000 C 
ENDBRANCH  15  17
ENDBRANCH  13  15
ENDBRANCH  12  13
ENDBRANCH  11  12
ENDBRANCH   1  11
TORSDOF 5
ENDMDL
MODEL 7
REMARK VINA RESULT:      -5.7      1.814      2.060
REMARK  Name = 
REMARK  7 active torsions:
REMARK  status: ('A' for Active; 'I' for Inactive)
REMARK    1  A    between atoms: C_1  and  C_2
REMARK    2  A    between atoms: C_2  and  O_3
REMARK    3  A    between atoms: O_3  and  C_4
REMARK    4  A    between atoms: C_4  and  C_6
REMARK    5  A    between atoms: C_6  and  S_7
REMARK    6  A    between atoms: S_7  and  C_8
REMARK    7  A    between atoms: C_13  and  C_14
REMARK                            x       y       z     vdW  Elec       q    Type
REMARK                         _______ _______ _______ _____ _____    ______ ____
ROOT
ATOM      1  C   UNL     1       2.429   3.111  18.196  0.00  0.00    +0.000 A 
ATOM      2  C   UNL     1       2.484   4.311  17.514  0.00  0.00    +0.000 A 
ATOM      3  N   UNL     1       3.743   4.705  17.099  0.00  0.00    +0.000 NA
ATOM      4  C   UNL     1       4.609   3.784  17.425  0.00  0.00    +0.000 A 
ATOM      5  N   UNL     1       5.956   3.745  17.227  0.00  0.00    +0.000 N 
ATOM      6  C   UNL     1       6.765   4.734  16.768  0.00  0.00    +0.000 C 
ATOM      7  C   UNL     1       6.296   6.148  16.559  0.00  0.00    +0.000 C 
ATOM      8  O   UNL     1       7.953   4.455  16.568  0.00  0.00    +0.000 OA
ATOM      9  S   UNL     1       3.989   2.403  18.216  0.00  0.00    +0.000 S 
ATOM     10  H   UNL     1       6.423   2.871  17.421  0.00  0.00    +0.000 HD
ENDROOT
BRANCH   1  11
ATOM     11  S   UNL     1       1.012   2.376  18.912  0.00  0.00    +0.000 S 
BRANCH  11  12
ATOM     12  C   UNL     1       0.669   3.574  20.233  0.00  0.00    +0.000 C 
BRANCH  12  13
ATOM     13  C   UNL     1       1.811   3.668  21.220  0.00  0.00    +0.000 C 
ATOM     14  O   UNL     1       2.077   2.859  22.097  0.00  0.00    +0.000 OA
BRANCH  13  15
ATOM     15  O   UNL     1       2.419   4.884  21.067  0.00  0.00    +0.000 OA
BRANCH  15  17
ATOM     16  C   UNL     1       2.334   6.976  19.914  0.00  0.00    +0.000 C 
ATOM     17  C   UNL     1       1.547   5.978  20.746  0.00  0.00    +0.000 C 
ENDBRANCH  15  17
ENDBRANCH  13  15
ENDBRANCH  12  13
ENDBRANCH  11  12
ENDBRANCH   1  11
TORSDOF 5
ENDMDL
MODEL 8
REMARK VINA RESULT:      -5.7      3.335      6.852
REMARK  Name = 
REMARK  7 active torsions:
REMARK  status: ('A' for Active; 'I' for Inactive)
REMARK    1  A    between atoms: C_1  and  C_2
REMARK    2  A    between atoms: C_2  and  O_3
REMARK    3  A    between atoms: O_3  and  C_4
REMARK    4  A    between atoms: C_4  and  C_6
REMARK    5  A    between atoms: C_6  and  S_7
REMARK    6  A    between atoms: S_7  and  C_8
REMARK    7  A    between atoms: C_13  and  C_14
REMARK                            x       y       z     vdW  Elec       q    Type
REMARK                         _______ _______ _______ _____ _____    ______ ____
ROOT
ATOM      1  C   UNL     1       5.131   4.915  17.632  0.00  0.00    +0.000 A 
ATOM      2  C   UNL     1       4.031   4.473  16.924  0.00  0.00    +0.000 A 
ATOM      3  N   UNL     1       3.001   3.952  17.685  0.00  0.00    +0.000 NA
ATOM      4  C   UNL     1       3.311   4.051  18.951  0.00  0.00    +0.000 A 
ATOM      5  N   UNL     1       2.611   3.664  20.053  0.00  0.00    +0.000 N 
ATOM      6  C   UNL     1       1.466   2.935  20.105  0.00  0.00    +0.000 C 
ATOM      7  C   UNL     1       0.862   2.267  18.900  0.00  0.00    +0.000 C 
ATOM      8  O   UNL     1       0.938   2.778  21.212  0.00  0.00    +0.000 OA
ATOM      9  S   UNL     1       4.815   4.776  19.310  0.00  0.00    +0.000 S 
ATOM     10  H   UNL     1       2.962   3.968  20.949  0.00  0.00    +0.000 HD
ENDROOT
BRANCH   1  11
ATOM     11  S   UNL     1       6.619   5.555  16.967  0.00  0.00    +0.000 S 
BRANCH  11  12
ATOM     12  C   UNL     1       7.043   4.223  15.807  0.00  0.00    +0.000 C 
BRANCH  12  13
ATOM     13  C   UNL     1       7.074   4.711  14.375  0.00  0.00    +0.000 C 
ATOM     14  O   UNL     1       7.805   5.580  13.923  0.00  0.00    +0.000 OA
BRANCH  13  15
ATOM     15  O   UNL     1       6.046   4.119  13.692  0.00  0.00    +0.000 OA
BRANCH  15  17
ATOM     16  C   UNL     1       5.120   3.005  11.792  0.00  0.00    +0.000 C 
ATOM     17  C   UNL     1       6.369   3.640  12.378  0.00  0.00    +0.000 C 
ENDBRANCH  15  17
ENDBRANCH  13  15
ENDBRANCH  12  13
ENDBRANCH  11  12
ENDBRANCH   1  11
TORSDOF 5
ENDMDL
MODEL 9
REMARK VINA RESULT:      -5.6      1.064      1.213
REMARK  Name = 
REMARK  7 active torsions:
REMARK  status: ('A' for Active; 'I' for Inactive)
REMARK    1  A    between atoms: C_1  and  C_2
REMARK    2  A    between atoms: C_2  and  O_3
REMARK    3  A    between atoms: O_3  and  C_4
REMARK    4  A    between atoms: C_4  and  C_6
REMARK    5  A    between atoms: C_6  and  S_7
REMARK    6  A    between atoms: S_7  and  C_8
REMARK    7  A    between atoms: C_13  and  C_14
REMARK                            x       y       z     vdW  Elec       q    Type
REMARK                         _______ _______ _______ _____ _____    ______ ____
ROOT
ATOM      1  C   UNL     1       4.203   3.534  17.956  0.00  0.00    +0.000 A 
ATOM      2  C   UNL     1       4.945   3.838  19.080  0.00  0.00    +0.000 A 
ATOM      3  N   UNL     1       5.809   4.910  18.953  0.00  0.00    +0.000 NA
ATOM      4  C   UNL     1       5.676   5.429  17.762  0.00  0.00    +0.000 A 
ATOM      5  N   UNL     1       6.323   6.484  17.193  0.00  0.00    +0.000 N 
ATOM      6  C   UNL     1       7.387   7.175  17.678  0.00  0.00    +0.000 C 
ATOM      7  C   UNL     1       8.156   6.748  18.898  0.00  0.00    +0.000 C 
ATOM      8  O   UNL     1       7.761   8.169  17.044  0.00  0.00    +0.000 OA
ATOM      9  S   UNL     1       4.519   4.699  16.740  0.00  0.00    +0.000 S 
ATOM     10  H   UNL     1       5.965   6.820  16.310  0.00  0.00    +0.000 HD
ENDROOT
BRANCH   1  11
ATOM     11  S   UNL     1       3.082   2.203  17.766  0.00  0.00    +0.000 S 
BRANCH  11  12
ATOM     12  C   UNL     1       2.519   2.020  19.483  0.00  0.00    +0.000 C 
BRANCH  12  13
ATOM     13  C   UNL     1       1.093   2.492  19.663  0.00  0.00    +0.000 C 
ATOM     14  O   UNL     1       0.218   2.490  18.810  0.00  0.00    +0.000 OA
BRANCH  13  15
ATOM     15  O   UNL     1       0.976   3.059  20.903  0.00  0.00    +0.000 OA
BRANCH  15  17
ATOM     16  C   UNL     1       1.740   5.296  20.555  0.00  0.00    +0.000 C 
ATOM     17  C   UNL     1       2.014   3.982  21.264  0.00  0.00    +0.000 C 
ENDBRANCH  15  17
ENDBRANCH  13  15
ENDBRANCH  12  13
ENDBRANCH  11  12
ENDBRANCH   1  11
TORSDOF 5
ENDMDL
