MODEL 1
REMARK VINA RESULT:      -8.8      0.000      0.000
REMARK  Name = 
REMARK  8 active torsions:
REMARK  status: ('A' for Active; 'I' for Inactive)
REMARK    1  A    between atoms: C_2  and  C_3
REMARK    2  A    between atoms: C_3  and  C_4
REMARK    3  A    between atoms: C_3  and  C_18
REMARK    4  A    between atoms: C_3  and  C_24
REMARK    5  A    between atoms: C_4  and  C_5
REMARK    6  A    between atoms: C_5  and  C_6
REMARK    7  A    between atoms: C_6  and  N_7
REMARK    8  A    between atoms: N_7  and  C_8
REMARK                            x       y       z     vdW  Elec       q    Type
REMARK                         _______ _______ _______ _____ _____    ______ ____
ROOT
ATOM      1  C   UNL     1      -0.176  10.494  18.776  0.00  0.00    +0.000 C 
ENDROOT
BRANCH   1   2
ATOM      2  C   UNL     1      -0.224  10.298  20.304  0.00  0.00    +0.000 A 
ATOM      3  C   UNL     1      -0.149   8.982  20.823  0.00  0.00    +0.000 A 
ATOM      4  C   UNL     1      -0.311   8.732  22.182  0.00  0.00    +0.000 A 
ATOM      5  C   UNL     1      -0.519   9.789  23.064  0.00  0.00    +0.000 A 
ATOM      6  C   UNL     1      -0.563  11.099  22.588  0.00  0.00    +0.000 A 
ATOM      7  C   UNL     1      -0.424  11.357  21.220  0.00  0.00    +0.000 A 
ENDBRANCH   1   2
BRANCH   1   8
ATOM      8  C   UNL     1      -1.593  10.672  18.204  0.00  0.00    +0.000 A 
ATOM      9  C   UNL     1      -2.540  11.550  18.794  0.00  0.00    +0.000 A 
ATOM     10  C   UNL     1      -3.821  11.684  18.267  0.00  0.00    +0.000 A 
ATOM     11  C   UNL     1      -4.190  10.955  17.142  0.00  0.00    +0.000 A 
ATOM     12  C   UNL     1      -3.272  10.094  16.535  0.00  0.00    +0.000 A 
ATOM     13  C   UNL     1      -1.979   9.957  17.055  0.00  0.00    +0.000 A 
ENDBRANCH   1   8
BRANCH   1  15
ATOM     14  N   UNL     1       1.268  12.669  18.642  0.00  0.00    +0.000 NA
ATOM     15  C   UNL     1       0.548  11.767  18.662  0.00  0.00    +0.000 C 
ENDBRANCH   1  15
BRANCH   1  16
ATOM     16  C   UNL     1       0.562   9.316  18.042  0.00  0.00    +0.000 C 
BRANCH  16  17
ATOM     17  C   UNL     1       2.088   9.167  18.243  0.00  0.00    +0.000 C 
BRANCH  17  18
ATOM     18  C   UNL     1       2.623   7.740  18.080  0.00  0.00    +0.000 C 
BRANCH  18  19
ATOM     19  N   UNL     1       2.718   7.059  19.389  0.00  0.00    +0.000 NA
ATOM     20  H   UNL     1       2.017   7.494  20.034  0.00  0.00    +0.000 HD
BRANCH  19  21
ATOM     21  C   UNL     1       2.519   5.584  19.371  0.00  0.00    +0.000 C 
ATOM     22  C   UNL     1       3.845   4.843  19.687  0.00  0.00    +0.000 C 
ATOM     23  C   UNL     1       3.665   3.323  19.700  0.00  0.00    +0.000 C 
ATOM     24  C   UNL     1       2.664   2.953  20.806  0.00  0.00    +0.000 C 
ATOM     25  C   UNL     1       1.316   3.656  20.522  0.00  0.00    +0.000 C 
ATOM     26  C   UNL     1       0.777   3.179  19.157  0.00  0.00    +0.000 C 
ATOM     27  C   UNL     1       1.783   3.552  18.044  0.00  0.00    +0.000 C 
ATOM     28  C   UNL     1       3.141   2.869  18.324  0.00  0.00    +0.000 C 
ATOM     29  C   UNL     1       1.972   5.086  18.008  0.00  0.00    +0.000 C 
ATOM     30  C   UNL     1       1.513   5.191  20.495  0.00  0.00    +0.000 C 
ENDBRANCH  19  21
ENDBRANCH  18  19
ENDBRANCH  17  18
ENDBRANCH  16  17
ENDBRANCH   1  16
TORSDOF 8
ENDMDL
MODEL 2
REMARK VINA RESULT:      -8.8      0.287      1.435
REMARK  Name = 
REMARK  8 active torsions:
REMARK  status: ('A' for Active; 'I' for Inactive)
REMARK    1  A    between atoms: C_2  and  C_3
REMARK    2  A    between atoms: C_3  and  C_4
REMARK    3  A    between atoms: C_3  and  C_18
REMARK    4  A    between atoms: C_3  and  C_24
REMARK    5  A    between atoms: C_4  and  C_5
REMARK    6  A    between atoms: C_5  and  C_6
REMARK    7  A    between atoms: C_6  and  N_7
REMARK    8  A    between atoms: N_7  and  C_8
REMARK                            x       y       z     vdW  Elec       q    Type
REMARK                         _______ _______ _______ _____ _____    ______ ____
ROOT
ATOM      1  C   UNL     1      -0.135  10.456  18.874  0.00  0.00    +0.000 C 
ENDROOT
BRANCH   1   2
ATOM      2  C   UNL     1      -0.234  10.374  20.410  0.00  0.00    +0.000 A 
ATOM      3  C   UNL     1      -0.164   9.102  21.029  0.00  0.00    +0.000 A 
ATOM      4  C   UNL     1      -0.370   8.952  22.397  0.00  0.00    +0.000 A 
ATOM      5  C   UNL     1      -0.619  10.070  23.189  0.00  0.00    +0.000 A 
ATOM      6  C   UNL     1      -0.660  11.339  22.615  0.00  0.00    +0.000 A 
ATOM      7  C   UNL     1      -0.476  11.496  21.237  0.00  0.00    +0.000 A 
ENDBRANCH   1   2
BRANCH   1   8
ATOM      8  C   UNL     1      -1.524  10.673  18.249  0.00  0.00    +0.000 A 
ATOM      9  C   UNL     1      -2.474  11.566  18.812  0.00  0.00    +0.000 A 
ATOM     10  C   UNL     1      -3.729  11.736  18.236  0.00  0.00    +0.000 A 
ATOM     11  C   UNL     1      -4.070  11.027  17.089  0.00  0.00    +0.000 A 
ATOM     12  C   UNL     1      -3.149  10.152  16.509  0.00  0.00    +0.000 A 
ATOM     13  C   UNL     1      -1.881   9.980  17.078  0.00  0.00    +0.000 A 
ENDBRANCH   1   8
BRANCH   1  15
ATOM     14  N   UNL     1       1.428  12.539  18.654  0.00  0.00    +0.000 NA
ATOM     15  C   UNL     1       0.665  11.675  18.693  0.00  0.00    +0.000 C 
ENDBRANCH   1  15
BRANCH   1  16
ATOM     16  C   UNL     1       0.550   9.188  18.248  0.00  0.00    +0.000 C 
BRANCH  16  17
ATOM     17  C   UNL     1       2.066   9.247  17.945  0.00  0.00    +0.000 C 
BRANCH  17  18
ATOM     18  C   UNL     1       2.821   7.933  18.176  0.00  0.00    +0.000 C 
BRANCH  18  19
ATOM     19  N   UNL     1       2.309   7.235  19.374  0.00  0.00    +0.000 NA
ATOM     20  H   UNL     1       1.322   7.544  19.535  0.00  0.00    +0.000 HD
BRANCH  19  21
ATOM     21  C   UNL     1       2.356   5.748  19.329  0.00  0.00    +0.000 C 
ATOM     22  C   UNL     1       1.913   5.221  17.939  0.00  0.00    +0.000 C 
ATOM     23  C   UNL     1       1.974   3.694  17.855  0.00  0.00    +0.000 C 
ATOM     24  C   UNL     1       3.430   3.245  18.068  0.00  0.00    +0.000 C 
ATOM     25  C   UNL     1       3.910   3.733  19.454  0.00  0.00    +0.000 C 
ATOM     26  C   UNL     1       3.013   3.110  20.545  0.00  0.00    +0.000 C 
ATOM     27  C   UNL     1       1.550   3.562  20.333  0.00  0.00    +0.000 C 
ATOM     28  C   UNL     1       1.061   3.096  18.943  0.00  0.00    +0.000 C 
ATOM     29  C   UNL     1       1.465   5.103  20.423  0.00  0.00    +0.000 C 
ATOM     30  C   UNL     1       3.827   5.276  19.533  0.00  0.00    +0.000 C 
ENDBRANCH  19  21
ENDBRANCH  18  19
ENDBRANCH  17  18
ENDBRANCH  16  17
ENDBRANCH   1  16
TORSDOF 8
ENDMDL
MODEL 3
REMARK VINA RESULT:      -8.8      0.193      1.667
REMARK  Name = 
REMARK  8 active torsions:
REMARK  status: ('A' for Active; 'I' for Inactive)
REMARK    1  A    between atoms: C_2  and  C_3
REMARK    2  A    between atoms: C_3  and  C_4
REMARK    3  A    between atoms: C_3  and  C_18
REMARK    4  A    between atoms: C_3  and  C_24
REMARK    5  A    between atoms: C_4  and  C_5
REMARK    6  A    between atoms: C_5  and  C_6
REMARK    7  A    between atoms: C_6  and  N_7
REMARK    8  A    between atoms: N_7  and  C_8
REMARK                            x       y       z     vdW  Elec       q    Type
REMARK                         _______ _______ _______ _____ _____    ______ ____
ROOT
ATOM      1  C   UNL     1      -0.272  10.437  18.765  0.00  0.00    +0.000 C 
ENDROOT
BRANCH   1   2
ATOM      2  C   UNL     1      -0.402  10.182  20.280  0.00  0.00    +0.000 A 
ATOM      3  C   UNL     1      -0.593  11.291  21.141  0.00  0.00    +0.000 A 
ATOM      4  C   UNL     1      -0.594  11.138  22.524  0.00  0.00    +0.000 A 
ATOM      5  C   UNL     1      -0.438   9.872  23.085  0.00  0.00    +0.000 A 
ATOM      6  C   UNL     1      -0.283   8.758  22.262  0.00  0.00    +0.000 A 
ATOM      7  C   UNL     1      -0.257   8.905  20.871  0.00  0.00    +0.000 A 
ENDBRANCH   1   2
BRANCH   1   8
ATOM      8  C   UNL     1      -1.657  10.639  18.125  0.00  0.00    +0.000 A 
ATOM      9  C   UNL     1      -2.625  11.515  18.683  0.00  0.00    +0.000 A 
ATOM     10  C   UNL     1      -3.876  11.672  18.095  0.00  0.00    +0.000 A 
ATOM     11  C   UNL     1      -4.194  10.967  16.939  0.00  0.00    +0.000 A 
ATOM     12  C   UNL     1      -3.254  10.108  16.363  0.00  0.00    +0.000 A 
ATOM     13  C   UNL     1      -1.991   9.949  16.946  0.00  0.00    +0.000 A 
ENDBRANCH   1   8
BRANCH   1  15
ATOM     14  N   UNL     1       0.992  12.720  18.909  0.00  0.00    +0.000 NA
ATOM     15  C   UNL     1       0.456  11.712  18.739  0.00  0.00    +0.000 C 
ENDBRANCH   1  15
BRANCH   1  16
ATOM     16  C   UNL     1       0.504   9.287  18.026  0.00  0.00    +0.000 C 
BRANCH  16  17
ATOM     17  C   UNL     1       2.048   9.261  18.125  0.00  0.00    +0.000 C 
BRANCH  17  18
ATOM     18  C   UNL     1       2.672   7.862  18.104  0.00  0.00    +0.000 C 
BRANCH  18  19
ATOM     19  N   UNL     1       2.497   7.187  19.407  0.00  0.00    +0.000 NA
ATOM     20  H   UNL     1       1.606   7.531  19.836  0.00  0.00    +0.000 HD
BRANCH  19  21
ATOM     21  C   UNL     1       2.482   5.699  19.372  0.00  0.00    +0.000 C 
ATOM     22  C   UNL     1       1.514   5.130  20.442  0.00  0.00    +0.000 C 
ATOM     23  C   UNL     1       1.459   3.600  20.413  0.00  0.00    +0.000 C 
ATOM     24  C   UNL     1       0.933   3.150  19.040  0.00  0.00    +0.000 C 
ATOM     25  C   UNL     1       1.881   3.680  17.939  0.00  0.00    +0.000 C 
ATOM     26  C   UNL     1       3.293   3.099  18.168  0.00  0.00    +0.000 C 
ATOM     27  C   UNL     1       3.822   3.552  19.548  0.00  0.00    +0.000 C 
ATOM     28  C   UNL     1       2.874   3.044  20.658  0.00  0.00    +0.000 C 
ATOM     29  C   UNL     1       3.894   5.095  19.594  0.00  0.00    +0.000 C 
ATOM     30  C   UNL     1       1.942   5.225  17.989  0.00  0.00    +0.000 C 
ENDBRANCH  19  21
ENDBRANCH  18  19
ENDBRANCH  17  18
ENDBRANCH  16  17
ENDBRANCH   1  16
TORSDOF 8
ENDMDL
MODEL 4
REMARK VINA RESULT:      -8.5      6.501     10.312
REMARK  Name = 
REMARK  8 active torsions:
REMARK  status: ('A' for Active; 'I' for Inactive)
REMARK    1  A    between atoms: C_2  and  C_3
REMARK    2  A    between atoms: C_3  and  C_4
REMARK    3  A    between atoms: C_3  and  C_18
REMARK    4  A    between atoms: C_3  and  C_24
REMARK    5  A    between atoms: C_4  and  C_5
REMARK    6  A    between atoms: C_5  and  C_6
REMARK    7  A    between atoms: C_6  and  N_7
REMARK    8  A    between atoms: N_7  and  C_8
REMARK                            x       y       z     vdW  Elec       q    Type
REMARK                         _______ _______ _______ _____ _____    ______ ____
ROOT
ATOM      1  C   UNL     1       6.269   6.122  17.435  0.00  0.00    +0.000 C 
ENDROOT
BRANCH   1   2
ATOM      2  C   UNL     1       6.237   5.284  16.142  0.00  0.00    +0.000 A 
ATOM      3  C   UNL     1       7.254   5.485  15.177  0.00  0.00    +0.000 A 
ATOM      4  C   UNL     1       7.211   4.849  13.939  0.00  0.00    +0.000 A 
ATOM      5  C   UNL     1       6.171   3.971  13.645  0.00  0.00    +0.000 A 
ATOM      6  C   UNL     1       5.175   3.725  14.588  0.00  0.00    +0.000 A 
ATOM      7  C   UNL     1       5.198   4.377  15.825  0.00  0.00    +0.000 A 
ENDBRANCH   1   2
BRANCH   1   8
ATOM      8  C   UNL     1       4.892   6.118  18.122  0.00  0.00    +0.000 A 
ATOM      9  C   UNL     1       4.614   5.303  19.251  0.00  0.00    +0.000 A 
ATOM     10  C   UNL     1       3.357   5.306  19.847  0.00  0.00    +0.000 A 
ATOM     11  C   UNL     1       2.349   6.118  19.339  0.00  0.00    +0.000 A 
ATOM     12  C   UNL     1       2.600   6.938  18.236  0.00  0.00    +0.000 A 
ATOM     13  C   UNL     1       3.864   6.946  17.634  0.00  0.00    +0.000 A 
ENDBRANCH   1   8
BRANCH   1  15
ATOM     14  N   UNL     1       8.033   4.702  18.740  0.00  0.00    +0.000 NA
ATOM     15  C   UNL     1       7.215   5.360  18.260  0.00  0.00    +0.000 C 
ENDBRANCH   1  15
BRANCH   1  16
ATOM     16  C   UNL     1       6.745   7.598  17.183  0.00  0.00    +0.000 C 
BRANCH  16  17
ATOM     17  C   UNL     1       8.046   8.078  17.869  0.00  0.00    +0.000 C 
BRANCH  17  18
ATOM     18  C   UNL     1       8.256   9.596  17.863  0.00  0.00    +0.000 C 
BRANCH  18  19
ATOM     19  N   UNL     1       8.989  10.032  19.070  0.00  0.00    +0.000 NA
ATOM     20  H   UNL     1       9.633   9.258  19.358  0.00  0.00    +0.000 HD
BRANCH  19  21
ATOM     21  C   UNL     1       9.768  11.294  18.938  0.00  0.00    +0.000 C 
ATOM     22  C   UNL     1      10.970  11.103  17.975  0.00  0.00    +0.000 C 
ATOM     23  C   UNL     1      11.777  12.392  17.800  0.00  0.00    +0.000 C 
ATOM     24  C   UNL     1      10.866  13.466  17.182  0.00  0.00    +0.000 C 
ATOM     25  C   UNL     1       9.660  13.703  18.120  0.00  0.00    +0.000 C 
ATOM     26  C   UNL     1      10.176  14.191  19.490  0.00  0.00    +0.000 C 
ATOM     27  C   UNL     1      11.091  13.111  20.113  0.00  0.00    +0.000 C 
ATOM     28  C   UNL     1      12.293  12.851  19.177  0.00  0.00    +0.000 C 
ATOM     29  C   UNL     1      10.292  11.803  20.306  0.00  0.00    +0.000 C 
ATOM     30  C   UNL     1       8.862  12.390  18.303  0.00  0.00    +0.000 C 
ENDBRANCH  19  21
ENDBRANCH  18  19
ENDBRANCH  17  18
ENDBRANCH  16  17
ENDBRANCH   1  16
TORSDOF 8
ENDMDL
MODEL 5
REMARK VINA RESULT:      -8.5      6.388     10.431
REMARK  Name = 
REMARK  8 active torsions:
REMARK  status: ('A' for Active; 'I' for Inactive)
REMARK    1  A    between atoms: C_2  and  C_3
REMARK    2  A    between atoms: C_3  and  C_4
REMARK    3  A    between atoms: C_3  and  C_18
REMARK    4  A    between atoms: C_3  and  C_24
REMARK    5  A    between atoms: C_4  and  C_5
REMARK    6  A    between atoms: C_5  and  C_6
REMARK    7  A    between atoms: C_6  and  N_7
REMARK    8  A    between atoms: N_7  and  C_8
REMARK                            x       y       z     vdW  Elec       q    Type
REMARK                         _______ _______ _______ _____ _____    ______ ____
ROOT
ATOM      1  C   UNL     1       6.493   5.552  16.898  0.00  0.00    +0.000 C 
ENDROOT
BRANCH   1   2
ATOM      2  C   UNL     1       6.453   4.952  15.479  0.00  0.00    +0.000 A 
ATOM      3  C   UNL     1       7.501   5.267  14.579  0.00  0.00    +0.000 A 
ATOM      4  C   UNL     1       7.457   4.857  13.249  0.00  0.00    +0.000 A 
ATOM      5  C   UNL     1       6.385   4.096  12.790  0.00  0.00    +0.000 A 
ATOM      6  C   UNL     1       5.356   3.741  13.662  0.00  0.00    +0.000 A 
ATOM      7  C   UNL     1       5.381   4.168  14.993  0.00  0.00    +0.000 A 
ENDBRANCH   1   2
BRANCH   1   8
ATOM      8  C   UNL     1       5.141   5.365  17.607  0.00  0.00    +0.000 A 
ATOM      9  C   UNL     1       4.859   4.225  18.405  0.00  0.00    +0.000 A 
ATOM     10  C   UNL     1       3.623   4.071  19.027  0.00  0.00    +0.000 A 
ATOM     11  C   UNL     1       2.641   5.044  18.873  0.00  0.00    +0.000 A 
ATOM     12  C   UNL     1       2.898   6.181  18.103  0.00  0.00    +0.000 A 
ATOM     13  C   UNL     1       4.141   6.347  17.479  0.00  0.00    +0.000 A 
ENDBRANCH   1   8
BRANCH   1  15
ATOM     14  N   UNL     1       8.413   4.160  17.997  0.00  0.00    +0.000 NA
ATOM     15  C   UNL     1       7.496   4.701  17.552  0.00  0.00    +0.000 C 
ENDBRANCH   1  15
BRANCH   1  16
ATOM     16  C   UNL     1       6.900   7.070  16.898  0.00  0.00    +0.000 C 
BRANCH  16  17
ATOM     17  C   UNL     1       7.861   7.573  18.002  0.00  0.00    +0.000 C 
BRANCH  17  18
ATOM     18  C   UNL     1       8.213   9.062  17.920  0.00  0.00    +0.000 C 
BRANCH  18  19
ATOM     19  N   UNL     1       9.081   9.462  19.048  0.00  0.00    +0.000 NA
ATOM     20  H   UNL     1       9.903   8.814  19.073  0.00  0.00    +0.000 HD
BRANCH  19  21
ATOM     21  C   UNL     1       9.567  10.869  19.028  0.00  0.00    +0.000 C 
ATOM     22  C   UNL     1       8.721  11.733  18.056  0.00  0.00    +0.000 C 
ATOM     23  C   UNL     1       9.182  13.193  18.033  0.00  0.00    +0.000 C 
ATOM     24  C   UNL     1       9.008  13.788  19.439  0.00  0.00    +0.000 C 
ATOM     25  C   UNL     1       9.851  12.968  20.442  0.00  0.00    +0.000 C 
ATOM     26  C   UNL     1      11.337  13.043  20.030  0.00  0.00    +0.000 C 
ATOM     27  C   UNL     1      11.513  12.442  18.617  0.00  0.00    +0.000 C 
ATOM     28  C   UNL     1      10.661  13.243  17.605  0.00  0.00    +0.000 C 
ATOM     29  C   UNL     1      11.061  10.965  18.621  0.00  0.00    +0.000 C 
ATOM     30  C   UNL     1       9.387  11.492  20.444  0.00  0.00    +0.000 C 
ENDBRANCH  19  21
ENDBRANCH  18  19
ENDBRANCH  17  18
ENDBRANCH  16  17
ENDBRANCH   1  16
TORSDOF 8
ENDMDL
MODEL 6
REMARK VINA RESULT:      -8.4      0.507      1.028
REMARK  Name = 
REMARK  8 active torsions:
REMARK  status: ('A' for Active; 'I' for Inactive)
REMARK    1  A    between atoms: C_2  and  C_3
REMARK    2  A    between atoms: C_3  and  C_4
REMARK    3  A    between atoms: C_3  and  C_18
REMARK    4  A    between atoms: C_3  and  C_24
REMARK    5  A    between atoms: C_4  and  C_5
REMARK    6  A    between atoms: C_5  and  C_6
REMARK    7  A    between atoms: C_6  and  N_7
REMARK    8  A    between atoms: N_7  and  C_8
REMARK                            x       y       z     vdW  Elec       q    Type
REMARK                         _______ _______ _______ _____ _____    ______ ____
ROOT
ATOM      1  C   UNL     1      -0.184  10.227  18.825  0.00  0.00    +0.000 C 
ENDROOT
BRANCH   1   2
ATOM      2  C   UNL     1      -0.375  10.089  20.349  0.00  0.00    +0.000 A 
ATOM      3  C   UNL     1      -0.534  11.264  21.123  0.00  0.00    +0.000 A 
ATOM      4  C   UNL     1      -0.588  11.211  22.513  0.00  0.00    +0.000 A 
ATOM      5  C   UNL     1      -0.517   9.983  23.166  0.00  0.00    +0.000 A 
ATOM      6  C   UNL     1      -0.395   8.806  22.429  0.00  0.00    +0.000 A 
ATOM      7  C   UNL     1      -0.318   8.852  21.033  0.00  0.00    +0.000 A 
ENDBRANCH   1   2
BRANCH   1   8
ATOM      8  C   UNL     1      -1.525  10.521  18.132  0.00  0.00    +0.000 A 
ATOM      9  C   UNL     1      -2.457  11.455  18.658  0.00  0.00    +0.000 A 
ATOM     10  C   UNL     1      -3.671  11.695  18.020  0.00  0.00    +0.000 A 
ATOM     11  C   UNL     1      -3.985  11.019  16.847  0.00  0.00    +0.000 A 
ATOM     12  C   UNL     1      -3.080  10.104  16.302  0.00  0.00    +0.000 A 
ATOM     13  C   UNL     1      -1.855   9.861  16.934  0.00  0.00    +0.000 A 
ENDBRANCH   1   8
BRANCH   1  15
ATOM     14  N   UNL     1       1.415  12.294  18.840  0.00  0.00    +0.000 NA
ATOM     15  C   UNL     1       0.669  11.419  18.740  0.00  0.00    +0.000 C 
ENDBRANCH   1  15
BRANCH   1  16
ATOM     16  C   UNL     1       0.490   8.958  18.187  0.00  0.00    +0.000 C 
BRANCH  16  17
ATOM     17  C   UNL     1       2.000   8.728  18.431  0.00  0.00    +0.000 C 
BRANCH  17  18
ATOM     18  C   UNL     1       2.329   7.593  19.407  0.00  0.00    +0.000 C 
BRANCH  18  19
ATOM     19  N   UNL     1       3.083   6.517  18.731  0.00  0.00    +0.000 NA
ATOM     20  H   UNL     1       4.100   6.649  18.942  0.00  0.00    +0.000 HD
BRANCH  19  21
ATOM     21  C   UNL     1       2.686   5.125  19.079  0.00  0.00    +0.000 C 
ATOM     22  C   UNL     1       3.932   4.257  19.396  0.00  0.00    +0.000 C 
ATOM     23  C   UNL     1       3.553   2.825  19.782  0.00  0.00    +0.000 C 
ATOM     24  C   UNL     1       2.693   2.868  21.057  0.00  0.00    +0.000 C 
ATOM     25  C   UNL     1       1.426   3.710  20.781  0.00  0.00    +0.000 C 
ATOM     26  C   UNL     1       0.623   3.052  19.639  0.00  0.00    +0.000 C 
ATOM     27  C   UNL     1       1.486   3.011  18.357  0.00  0.00    +0.000 C 
ATOM     28  C   UNL     1       2.766   2.186  18.622  0.00  0.00    +0.000 C 
ATOM     29  C   UNL     1       1.873   4.449  17.944  0.00  0.00    +0.000 C 
ATOM     30  C   UNL     1       1.822   5.150  20.375  0.00  0.00    +0.000 C 
ENDBRANCH  19  21
ENDBRANCH  18  19
ENDBRANCH  17  18
ENDBRANCH  16  17
ENDBRANCH   1  16
TORSDOF 8
ENDMDL
MODEL 7
REMARK VINA RESULT:      -8.4      1.309      2.882
REMARK  Name = 
REMARK  8 active torsions:
REMARK  status: ('A' for Active; 'I' for Inactive)
REMARK    1  A    between atoms: C_2  and  C_3
REMARK    2  A    between atoms: C_3  and  C_4
REMARK    3  A    between atoms: C_3  and  C_18
REMARK    4  A    between atoms: C_3  and  C_24
REMARK    5  A    between atoms: C_4  and  C_5
REMARK    6  A    between atoms: C_5  and  C_6
REMARK    7  A    between atoms: C_6  and  N_7
REMARK    8  A    between atoms: N_7  and  C_8
REMARK                            x       y       z     vdW  Elec       q    Type
REMARK                         _______ _______ _______ _____ _____    ______ ____
ROOT
ATOM      1  C   UNL     1       0.193  10.362  19.166  0.00  0.00    +0.000 C 
ENDROOT
BRANCH   1   2
ATOM      2  C   UNL     1       0.788  11.744  19.503  0.00  0.00    +0.000 A 
ATOM      3  C   UNL     1       0.589  12.271  20.803  0.00  0.00    +0.000 A 
ATOM      4  C   UNL     1       0.996  13.562  21.127  0.00  0.00    +0.000 A 
ATOM      5  C   UNL     1       1.639  14.349  20.176  0.00  0.00    +0.000 A 
ATOM      6  C   UNL     1       1.880  13.845  18.899  0.00  0.00    +0.000 A 
ATOM      7  C   UNL     1       1.455  12.557  18.557  0.00  0.00    +0.000 A 
ENDBRANCH   1   2
BRANCH   1   8
ATOM      8  C   UNL     1      -1.158  10.512  18.446  0.00  0.00    +0.000 A 
ATOM      9  C   UNL     1      -1.477   9.770  17.278  0.00  0.00    +0.000 A 
ATOM     10  C   UNL     1      -2.700   9.932  16.635  0.00  0.00    +0.000 A 
ATOM     11  C   UNL     1      -3.636  10.830  17.137  0.00  0.00    +0.000 A 
ATOM     12  C   UNL     1      -3.352  11.563  18.292  0.00  0.00    +0.000 A 
ATOM     13  C   UNL     1      -2.125  11.401  18.948  0.00  0.00    +0.000 A 
ENDBRANCH   1   8
BRANCH   1  15
ATOM     14  N   UNL     1       1.997   9.288  17.611  0.00  0.00    +0.000 NA
ATOM     15  C   UNL     1       1.183   9.835  18.219  0.00  0.00    +0.000 C 
ENDBRANCH   1  15
BRANCH   1  16
ATOM     16  C   UNL     1       0.032   9.451  20.437  0.00  0.00    +0.000 C 
BRANCH  16  17
ATOM     17  C   UNL     1       1.311   8.911  21.120  0.00  0.00    +0.000 C 
BRANCH  17  18
ATOM     18  C   UNL     1       1.487   7.390  21.047  0.00  0.00    +0.000 C 
BRANCH  18  19
ATOM     19  N   UNL     1       2.348   7.012  19.906  0.00  0.00    +0.000 NA
ATOM     20  H   UNL     1       3.322   7.337  20.111  0.00  0.00    +0.000 HD
BRANCH  19  21
ATOM     21  C   UNL     1       2.375   5.564  19.564  0.00  0.00    +0.000 C 
ATOM     22  C   UNL     1       1.981   5.339  18.080  0.00  0.00    +0.000 C 
ATOM     23  C   UNL     1       2.024   3.859  17.691  0.00  0.00    +0.000 C 
ATOM     24  C   UNL     1       3.464   3.345  17.862  0.00  0.00    +0.000 C 
ATOM     25  C   UNL     1       3.894   3.532  19.336  0.00  0.00    +0.000 C 
ATOM     26  C   UNL     1       2.944   2.722  20.244  0.00  0.00    +0.000 C 
ATOM     27  C   UNL     1       1.498   3.240  20.074  0.00  0.00    +0.000 C 
ATOM     28  C   UNL     1       1.060   3.074  18.601  0.00  0.00    +0.000 C 
ATOM     29  C   UNL     1       1.431   4.732  20.470  0.00  0.00    +0.000 C 
ATOM     30  C   UNL     1       3.830   5.029  19.722  0.00  0.00    +0.000 C 
ENDBRANCH  19  21
ENDBRANCH  18  19
ENDBRANCH  17  18
ENDBRANCH  16  17
ENDBRANCH   1  16
TORSDOF 8
ENDMDL
MODEL 8
REMARK VINA RESULT:      -8.4      6.604     10.406
REMARK  Name = 
REMARK  8 active torsions:
REMARK  status: ('A' for Active; 'I' for Inactive)
REMARK    1  A    between atoms: C_2  and  C_3
REMARK    2  A    between atoms: C_3  and  C_4
REMARK    3  A    between atoms: C_3  and  C_18
REMARK    4  A    between atoms: C_3  and  C_24
REMARK    5  A    between atoms: C_4  and  C_5
REMARK    6  A    between atoms: C_5  and  C_6
REMARK    7  A    between atoms: C_6  and  N_7
REMARK    8  A    between atoms: N_7  and  C_8
REMARK                            x       y       z     vdW  Elec       q    Type
REMARK                         _______ _______ _______ _____ _____    ______ ____
ROOT
ATOM      1  C   UNL     1       6.445   6.139  17.257  0.00  0.00    +0.000 C 
ENDROOT
BRANCH   1   2
ATOM      2  C   UNL     1       6.356   5.406  15.903  0.00  0.00    +0.000 A 
ATOM      3  C   UNL     1       5.299   4.486  15.697  0.00  0.00    +0.000 A 
ATOM      4  C   UNL     1       5.236   3.705  14.546  0.00  0.00    +0.000 A 
ATOM      5  C   UNL     1       6.206   3.845  13.557  0.00  0.00    +0.000 A 
ATOM      6  C   UNL     1       7.239   4.767  13.716  0.00  0.00    +0.000 A 
ATOM      7  C   UNL     1       7.323   5.539  14.879  0.00  0.00    +0.000 A 
ENDBRANCH   1   2
BRANCH   1   8
ATOM      8  C   UNL     1       5.071   6.175  17.948  0.00  0.00    +0.000 A 
ATOM      9  C   UNL     1       4.033   7.041  17.517  0.00  0.00    +0.000 A 
ATOM     10  C   UNL     1       2.802   7.066  18.167  0.00  0.00    +0.000 A 
ATOM     11  C   UNL     1       2.573   6.231  19.255  0.00  0.00    +0.000 A 
ATOM     12  C   UNL     1       3.575   5.361  19.691  0.00  0.00    +0.000 A 
ATOM     13  C   UNL     1       4.814   5.325  19.039  0.00  0.00    +0.000 A 
ENDBRANCH   1   8
BRANCH   1  15
ATOM     14  N   UNL     1       8.033   4.443  18.455  0.00  0.00    +0.000 NA
ATOM     15  C   UNL     1       7.338   5.253  18.016  0.00  0.00    +0.000 C 
ENDBRANCH   1  15
BRANCH   1  16
ATOM     16  C   UNL     1       7.021   7.594  17.116  0.00  0.00    +0.000 C 
BRANCH  16  17
ATOM     17  C   UNL     1       8.102   8.057  18.121  0.00  0.00    +0.000 C 
BRANCH  17  18
ATOM     18  C   UNL     1       8.367   9.567  18.132  0.00  0.00    +0.000 C 
BRANCH  18  19
ATOM     19  N   UNL     1       9.398   9.914  19.133  0.00  0.00    +0.000 NA
ATOM     20  H   UNL     1      10.155   9.191  19.086  0.00  0.00    +0.000 HD
BRANCH  19  21
ATOM     21  C   UNL     1      10.003  11.267  19.001  0.00  0.00    +0.000 C 
ATOM     22  C   UNL     1       8.998  12.263  18.365  0.00  0.00    +0.000 C 
ATOM     23  C   UNL     1       9.585  13.671  18.238  0.00  0.00    +0.000 C 
ATOM     24  C   UNL     1       9.917  14.197  19.645  0.00  0.00    +0.000 C 
ATOM     25  C   UNL     1      10.934  13.242  20.313  0.00  0.00    +0.000 C 
ATOM     26  C   UNL     1      12.220  13.201  19.461  0.00  0.00    +0.000 C 
ATOM     27  C   UNL     1      11.888  12.672  18.047  0.00  0.00    +0.000 C 
ATOM     28  C   UNL     1      10.858  13.607  17.373  0.00  0.00    +0.000 C 
ATOM     29  C   UNL     1      11.301  11.246  18.152  0.00  0.00    +0.000 C 
ATOM     30  C   UNL     1      10.336  11.819  20.419  0.00  0.00    +0.000 C 
ENDBRANCH  19  21
ENDBRANCH  18  19
ENDBRANCH  17  18
ENDBRANCH  16  17
ENDBRANCH   1  16
TORSDOF 8
ENDMDL
MODEL 9
REMARK VINA RESULT:      -8.4      6.598     10.392
REMARK  Name = 
REMARK  8 active torsions:
REMARK  status: ('A' for Active; 'I' for Inactive)
REMARK    1  A    between atoms: C_2  and  C_3
REMARK    2  A    between atoms: C_3  and  C_4
REMARK    3  A    between atoms: C_3  and  C_18
REMARK    4  A    between atoms: C_3  and  C_24
REMARK    5  A    between atoms: C_4  and  C_5
REMARK    6  A    between atoms: C_5  and  C_6
REMARK    7  A    between atoms: C_6  and  N_7
REMARK    8  A    between atoms: N_7  and  C_8
REMARK                            x       y       z     vdW  Elec       q    Type
REMARK                         _______ _______ _______ _____ _____    ______ ____
ROOT
ATOM      1  C   UNL     1       6.419   6.119  17.259  0.00  0.00    +0.000 C 
ENDROOT
BRANCH   1   2
ATOM      2  C   UNL     1       6.320   5.376  15.912  0.00  0.00    +0.000 A 
ATOM      3  C   UNL     1       5.277   4.434  15.731  0.00  0.00    +0.000 A 
ATOM      4  C   UNL     1       5.209   3.644  14.587  0.00  0.00    +0.000 A 
ATOM      5  C   UNL     1       6.159   3.795  13.579  0.00  0.00    +0.000 A 
ATOM      6  C   UNL     1       7.176   4.739  13.713  0.00  0.00    +0.000 A 
ATOM      7  C   UNL     1       7.266   5.520  14.870  0.00  0.00    +0.000 A 
ENDBRANCH   1   2
BRANCH   1   8
ATOM      8  C   UNL     1       5.046   6.178  17.951  0.00  0.00    +0.000 A 
ATOM      9  C   UNL     1       4.018   7.054  17.514  0.00  0.00    +0.000 A 
ATOM     10  C   UNL     1       2.789   7.099  18.165  0.00  0.00    +0.000 A 
ATOM     11  C   UNL     1       2.551   6.275  19.260  0.00  0.00    +0.000 A 
ATOM     12  C   UNL     1       3.542   5.396  19.702  0.00  0.00    +0.000 A 
ATOM     13  C   UNL     1       4.780   5.339  19.049  0.00  0.00    +0.000 A 
ENDBRANCH   1   8
BRANCH   1  15
ATOM     14  N   UNL     1       8.119   4.553  18.479  0.00  0.00    +0.000 NA
ATOM     15  C   UNL     1       7.302   5.230  18.025  0.00  0.00    +0.000 C 
ENDBRANCH   1  15
BRANCH   1  16
ATOM     16  C   UNL     1       7.011   7.567  17.104  0.00  0.00    +0.000 C 
BRANCH  16  17
ATOM     17  C   UNL     1       8.029   8.061  18.159  0.00  0.00    +0.000 C 
BRANCH  17  18
ATOM     18  C   UNL     1       8.390   9.547  18.060  0.00  0.00    +0.000 C 
BRANCH  18  19
ATOM     19  N   UNL     1       9.326   9.936  19.136  0.00  0.00    +0.000 NA
ATOM     20  H   UNL     1      10.088   9.219  19.181  0.00  0.00    +0.000 HD
BRANCH  19  21
ATOM     21  C   UNL     1       9.932  11.289  19.014  0.00  0.00    +0.000 C 
ATOM     22  C   UNL     1      10.386  11.820  20.399  0.00  0.00    +0.000 C 
ATOM     23  C   UNL     1      11.037  13.202  20.301  0.00  0.00    +0.000 C 
ATOM     24  C   UNL     1      12.294  13.095  19.421  0.00  0.00    +0.000 C 
ATOM     25  C   UNL     1      11.886  12.587  18.019  0.00  0.00    +0.000 C 
ATOM     26  C   UNL     1      10.897  13.590  17.388  0.00  0.00    +0.000 C 
ATOM     27  C   UNL     1       9.633  13.696  18.271  0.00  0.00    +0.000 C 
ATOM     28  C   UNL     1      10.028  14.188  19.682  0.00  0.00    +0.000 C 
ATOM     29  C   UNL     1       8.955  12.311  18.375  0.00  0.00    +0.000 C 
ATOM     30  C   UNL     1      11.214  11.197  18.133  0.00  0.00    +0.000 C 
ENDBRANCH  19  21
ENDBRANCH  18  19
ENDBRANCH  17  18
ENDBRANCH  16  17
ENDBRANCH   1  16
TORSDOF 8
ENDMDL
