MODEL 1
REMARK VINA RESULT:      -7.9      0.000      0.000
REMARK  Name = 
REMARK  11 active torsions:
REMARK  status: ('A' for Active; 'I' for Inactive)
REMARK    1  A    between atoms: C_1  and  O_2
REMARK    2  A    between atoms: O_2  and  C_3
REMARK    3  A    between atoms: C_3  and  C_5
REMARK    4  A    between atoms: N_7  and  C_8
REMARK    5  A    between atoms: C_8  and  C_9
REMARK    6  A    between atoms: C_8  and  C_10
REMARK    7  A    between atoms: C_14  and  C_15
REMARK    8  A    between atoms: C_15  and  N_16
REMARK    9  A    between atoms: N_19  and  C_20
REMARK   10  A    between atoms: C_20  and  C_21
REMARK   11  A    between atoms: C_25  and  C_26
REMARK                            x       y       z     vdW  Elec       q    Type
REMARK                         _______ _______ _______ _____ _____    ______ ____
ROOT
ATOM      1  C   UNL     1      -0.374  10.242  20.349  0.00  0.00    +0.000 C 
ENDROOT
BRANCH   1   8
ATOM      2  C   UNL     1      -3.963  12.898  21.090  0.00  0.00    +0.000 C 
ATOM      3  C   UNL     1      -4.245  12.371  19.890  0.00  0.00    +0.000 C 
ATOM      4  N   UNL     1      -3.284  12.100  18.935  0.00  0.00    +0.000 N 
ATOM      5  C   UNL     1      -1.943  12.424  19.129  0.00  0.00    +0.000 C 
ATOM      6  O   UNL     1      -1.110  12.420  18.219  0.00  0.00    +0.000 OA
ATOM      7  C   UNL     1      -1.490  12.607  20.574  0.00  0.00    +0.000 C 
ATOM      8  C   UNL     1      -1.087  11.273  21.193  0.00  0.00    +0.000 C 
ATOM      9  C   UNL     1      -1.442  11.250  22.485  0.00  0.00    +0.000 C 
ATOM     10  C   UNL     1      -2.221  12.462  22.884  0.00  0.00    +0.000 C 
ATOM     11  C   UNL     1      -2.549  13.163  21.545  0.00  0.00    +0.000 C 
BRANCH   4  12
ATOM     12  C   UNL     1      -3.656  11.382  17.698  0.00  0.00    +0.000 C 
ATOM     13  C   UNL     1      -3.384   9.884  17.847  0.00  0.00    +0.000 C 
ATOM     14  C   UNL     1      -5.084  11.649  17.232  0.00  0.00    +0.000 C 
ENDBRANCH   4  12
BRANCH   2  15
ATOM     15  C   UNL     1      -5.054  13.263  22.029  0.00  0.00    +0.000 C 
ATOM     16  O   UNL     1      -5.142  14.357  22.568  0.00  0.00    +0.000 OA
BRANCH  15  18
ATOM     17  C   UNL     1      -7.231  12.562  22.547  0.00  0.00    +0.000 C 
ATOM     18  O   UNL     1      -5.882  12.208  22.241  0.00  0.00    +0.000 OA
ENDBRANCH  15  18
ENDBRANCH   2  15
ENDBRANCH   1   8
BRANCH   1  19
ATOM     19  N   UNL     1       1.100  10.287  20.247  0.00  0.00    +0.000 NA
ATOM     20  C   UNL     1       1.788   9.094  20.780  0.00  0.00    +0.000 C 
ATOM     21  C   UNL     1       1.609   7.788  19.979  0.00  0.00    +0.000 C 
ATOM     22  N   UNL     1       1.801   7.863  18.516  0.00  0.00    +0.000 NA
ATOM     23  C   UNL     1       1.221   9.110  17.976  0.00  0.00    +0.000 C 
ATOM     24  C   UNL     1       1.491  10.389  18.816  0.00  0.00    +0.000 C 
BRANCH  22  25
ATOM     25  C   UNL     1       3.206   7.708  18.105  0.00  0.00    +0.000 C 
BRANCH  25  26
ATOM     26  C   UNL     1       3.551   6.283  17.705  0.00  0.00    +0.000 A 
ATOM     27  C   UNL     1       2.652   5.242  17.970  0.00  0.00    +0.000 A 
ATOM     28  C   UNL     1       2.924   3.944  17.539  0.00  0.00    +0.000 A 
ATOM     29  C   UNL     1       4.093   3.672  16.828  0.00  0.00    +0.000 A 
ATOM     30  C   UNL     1       5.010   4.695  16.550  0.00  0.00    +0.000 A 
ATOM     31  C   UNL     1       4.743   5.993  17.020  0.00  0.00    +0.000 A 
BRANCH  30  32
ATOM     32  C   UNL     1       6.243   4.430  15.720  0.00  0.00    +0.000 C 
ATOM     33  F   UNL     1       6.179   3.271  15.004  0.00  0.00    +0.000 F 
ATOM     34  F   UNL     1       6.476   5.413  14.807  0.00  0.00    +0.000 F 
ATOM     35  F   UNL     1       7.377   4.340  16.470  0.00  0.00    +0.000 F 
ENDBRANCH  30  32
ENDBRANCH  25  26
ENDBRANCH  22  25
ENDBRANCH   1  19
TORSDOF 8
ENDMDL
MODEL 2
REMARK VINA RESULT:      -7.8      1.564      2.037
REMARK  Name = 
REMARK  11 active torsions:
REMARK  status: ('A' for Active; 'I' for Inactive)
REMARK    1  A    between atoms: C_1  and  O_2
REMARK    2  A    between atoms: O_2  and  C_3
REMARK    3  A    between atoms: C_3  and  C_5
REMARK    4  A    between atoms: N_7  and  C_8
REMARK    5  A    between atoms: C_8  and  C_9
REMARK    6  A    between atoms: C_8  and  C_10
REMARK    7  A    between atoms: C_14  and  C_15
REMARK    8  A    between atoms: C_15  and  N_16
REMARK    9  A    between atoms: N_19  and  C_20
REMARK   10  A    between atoms: C_20  and  C_21
REMARK   11  A    between atoms: C_25  and  C_26
REMARK                            x       y       z     vdW  Elec       q    Type
REMARK                         _______ _______ _______ _____ _____    ______ ____
ROOT
ATOM      1  C   UNL     1      -0.293  10.243  20.241  0.00  0.00    +0.000 C 
ENDROOT
BRANCH   1   8
ATOM      2  C   UNL     1      -3.956  12.823  20.876  0.00  0.00    +0.000 C 
ATOM      3  C   UNL     1      -4.201  12.276  19.677  0.00  0.00    +0.000 C 
ATOM      4  N   UNL     1      -3.215  12.016  18.746  0.00  0.00    +0.000 N 
ATOM      5  C   UNL     1      -1.886  12.373  18.962  0.00  0.00    +0.000 C 
ATOM      6  O   UNL     1      -1.035  12.378  18.070  0.00  0.00    +0.000 OA
ATOM      7  C   UNL     1      -1.467  12.584  20.414  0.00  0.00    +0.000 C 
ATOM      8  C   UNL     1      -1.046  11.267  21.058  0.00  0.00    +0.000 C 
ATOM      9  C   UNL     1      -1.427  11.251  22.342  0.00  0.00    +0.000 C 
ATOM     10  C   UNL     1      -2.242  12.450  22.711  0.00  0.00    +0.000 C 
ATOM     11  C   UNL     1      -2.558  13.127  21.357  0.00  0.00    +0.000 C 
BRANCH   4  12
ATOM     12  C   UNL     1      -3.545  11.275  17.510  0.00  0.00    +0.000 C 
ATOM     13  C   UNL     1      -3.306   9.776  17.706  0.00  0.00    +0.000 C 
ATOM     14  C   UNL     1      -4.947  11.554  16.976  0.00  0.00    +0.000 C 
ENDBRANCH   4  12
BRANCH   2  15
ATOM     15  C   UNL     1      -5.074  13.174  21.789  0.00  0.00    +0.000 C 
ATOM     16  O   UNL     1      -5.207  14.278  22.299  0.00  0.00    +0.000 OA
BRANCH  15  18
ATOM     17  C   UNL     1      -7.251  12.307  21.718  0.00  0.00    +0.000 C 
ATOM     18  O   UNL     1      -5.870  12.098  22.013  0.00  0.00    +0.000 OA
ENDBRANCH  15  18
ENDBRANCH   2  15
ENDBRANCH   1   8
BRANCH   1  19
ATOM     19  N   UNL     1       1.184  10.301  20.195  0.00  0.00    +0.000 NA
ATOM     20  C   UNL     1       1.862   9.102  20.727  0.00  0.00    +0.000 C 
ATOM     21  C   UNL     1       1.722   7.812  19.891  0.00  0.00    +0.000 C 
ATOM     22  N   UNL     1       1.968   7.921  18.439  0.00  0.00    +0.000 NA
ATOM     23  C   UNL     1       1.398   9.175  17.905  0.00  0.00    +0.000 C 
ATOM     24  C   UNL     1       1.627  10.438  18.782  0.00  0.00    +0.000 C 
BRANCH  22  25
ATOM     25  C   UNL     1       3.389   7.785  18.078  0.00  0.00    +0.000 C 
BRANCH  25  26
ATOM     26  C   UNL     1       3.732   6.407  17.536  0.00  0.00    +0.000 A 
ATOM     27  C   UNL     1       4.762   6.258  16.598  0.00  0.00    +0.000 A 
ATOM     28  C   UNL     1       5.135   4.991  16.152  0.00  0.00    +0.000 A 
ATOM     29  C   UNL     1       4.492   3.856  16.646  0.00  0.00    +0.000 A 
ATOM     30  C   UNL     1       3.459   3.977  17.584  0.00  0.00    +0.000 A 
ATOM     31  C   UNL     1       3.065   5.261  18.000  0.00  0.00    +0.000 A 
BRANCH  30  32
ATOM     32  C   UNL     1       2.803   2.755  18.180  0.00  0.00    +0.000 C 
ATOM     33  F   UNL     1       2.817   2.740  19.544  0.00  0.00    +0.000 F 
ATOM     34  F   UNL     1       1.492   2.643  17.826  0.00  0.00    +0.000 F 
ATOM     35  F   UNL     1       3.396   1.592  17.791  0.00  0.00    +0.000 F 
ENDBRANCH  30  32
ENDBRANCH  25  26
ENDBRANCH  22  25
ENDBRANCH   1  19
TORSDOF 8
ENDMDL
MODEL 3
REMARK VINA RESULT:      -7.8      0.411      1.029
REMARK  Name = 
REMARK  11 active torsions:
REMARK  status: ('A' for Active; 'I' for Inactive)
REMARK    1  A    between atoms: C_1  and  O_2
REMARK    2  A    between atoms: O_2  and  C_3
REMARK    3  A    between atoms: C_3  and  C_5
REMARK    4  A    between atoms: N_7  and  C_8
REMARK    5  A    between atoms: C_8  and  C_9
REMARK    6  A    between atoms: C_8  and  C_10
REMARK    7  A    between atoms: C_14  and  C_15
REMARK    8  A    between atoms: C_15  and  N_16
REMARK    9  A    between atoms: N_19  and  C_20
REMARK   10  A    between atoms: C_20  and  C_21
REMARK   11  A    between atoms: C_25  and  C_26
REMARK                            x       y       z     vdW  Elec       q    Type
REMARK                         _______ _______ _______ _____ _____    ______ ____
ROOT
ATOM      1  C   UNL     1      -0.340  10.242  20.249  0.00  0.00    +0.000 C 
ENDROOT
BRANCH   1   8
ATOM      2  C   UNL     1      -3.958  12.836  21.063  0.00  0.00    +0.000 C 
ATOM      3  C   UNL     1      -4.235  12.338  19.849  0.00  0.00    +0.000 C 
ATOM      4  N   UNL     1      -3.272  12.103  18.888  0.00  0.00    +0.000 N 
ATOM      5  C   UNL     1      -1.935  12.437  19.088  0.00  0.00    +0.000 C 
ATOM      6  O   UNL     1      -1.103  12.467  18.179  0.00  0.00    +0.000 OA
ATOM      7  C   UNL     1      -1.482  12.588  20.537  0.00  0.00    +0.000 C 
ATOM      8  C   UNL     1      -1.063  11.243  21.121  0.00  0.00    +0.000 C 
ATOM      9  C   UNL     1      -1.417  11.181  22.412  0.00  0.00    +0.000 C 
ATOM     10  C   UNL     1      -2.210  12.373  22.844  0.00  0.00    +0.000 C 
ATOM     11  C   UNL     1      -2.547  13.106  21.524  0.00  0.00    +0.000 C 
BRANCH   4  12
ATOM     12  C   UNL     1      -3.637  11.414  17.631  0.00  0.00    +0.000 C 
ATOM     13  C   UNL     1      -3.375   9.911  17.751  0.00  0.00    +0.000 C 
ATOM     14  C   UNL     1      -5.060  11.699  17.160  0.00  0.00    +0.000 C 
ENDBRANCH   4  12
BRANCH   2  15
ATOM     15  C   UNL     1      -5.052  13.163  22.012  0.00  0.00    +0.000 C 
ATOM     16  O   UNL     1      -5.894  12.354  22.376  0.00  0.00    +0.000 OA
BRANCH  15  18
ATOM     17  C   UNL     1      -5.704  15.347  21.461  0.00  0.00    +0.000 C 
ATOM     18  O   UNL     1      -5.015  14.476  22.358  0.00  0.00    +0.000 OA
ENDBRANCH  15  18
ENDBRANCH   2  15
ENDBRANCH   1   8
BRANCH   1  19
ATOM     19  N   UNL     1       1.134  10.300  20.155  0.00  0.00    +0.000 NA
ATOM     20  C   UNL     1       1.831   9.114  20.691  0.00  0.00    +0.000 C 
ATOM     21  C   UNL     1       1.668   7.807  19.888  0.00  0.00    +0.000 C 
ATOM     22  N   UNL     1       1.867   7.884  18.426  0.00  0.00    +0.000 NA
ATOM     23  C   UNL     1       1.278   9.126  17.884  0.00  0.00    +0.000 C 
ATOM     24  C   UNL     1       1.532  10.407  18.725  0.00  0.00    +0.000 C 
BRANCH  22  25
ATOM     25  C   UNL     1       3.275   7.742  18.023  0.00  0.00    +0.000 C 
BRANCH  25  26
ATOM     26  C   UNL     1       3.645   6.314  17.658  0.00  0.00    +0.000 A 
ATOM     27  C   UNL     1       2.755   5.267  17.932  0.00  0.00    +0.000 A 
ATOM     28  C   UNL     1       3.051   3.964  17.532  0.00  0.00    +0.000 A 
ATOM     29  C   UNL     1       4.234   3.693  16.845  0.00  0.00    +0.000 A 
ATOM     30  C   UNL     1       5.141   4.721  16.559  0.00  0.00    +0.000 A 
ATOM     31  C   UNL     1       4.851   6.025  16.997  0.00  0.00    +0.000 A 
BRANCH  30  32
ATOM     32  C   UNL     1       6.390   4.455  15.753  0.00  0.00    +0.000 C 
ATOM     33  F   UNL     1       6.726   5.477  14.916  0.00  0.00    +0.000 F 
ATOM     34  F   UNL     1       7.483   4.252  16.541  0.00  0.00    +0.000 F 
ATOM     35  F   UNL     1       6.287   3.349  14.966  0.00  0.00    +0.000 F 
ENDBRANCH  30  32
ENDBRANCH  25  26
ENDBRANCH  22  25
ENDBRANCH   1  19
TORSDOF 8
ENDMDL
MODEL 4
REMARK VINA RESULT:      -7.6      3.441      4.275
REMARK  Name = 
REMARK  11 active torsions:
REMARK  status: ('A' for Active; 'I' for Inactive)
REMARK    1  A    between atoms: C_1  and  O_2
REMARK    2  A    between atoms: O_2  and  C_3
REMARK    3  A    between atoms: C_3  and  C_5
REMARK    4  A    between atoms: N_7  and  C_8
REMARK    5  A    between atoms: C_8  and  C_9
REMARK    6  A    between atoms: C_8  and  C_10
REMARK    7  A    between atoms: C_14  and  C_15
REMARK    8  A    between atoms: C_15  and  N_16
REMARK    9  A    between atoms: N_19  and  C_20
REMARK   10  A    between atoms: C_20  and  C_21
REMARK   11  A    between atoms: C_25  and  C_26
REMARK                            x       y       z     vdW  Elec       q    Type
REMARK                         _______ _______ _______ _____ _____    ______ ____
ROOT
ATOM      1  C   UNL     1      -1.183  11.575  22.090  0.00  0.00    +0.000 C 
ENDROOT
BRANCH   1   8
ATOM      2  C   UNL     1      -3.296  15.437  23.140  0.00  0.00    +0.000 C 
ATOM      3  C   UNL     1      -2.624  15.776  22.030  0.00  0.00    +0.000 C 
ATOM      4  N   UNL     1      -1.371  15.283  21.722  0.00  0.00    +0.000 N 
ATOM      5  C   UNL     1      -0.678  14.440  22.588  0.00  0.00    +0.000 C 
ATOM      6  O   UNL     1       0.520  14.179  22.460  0.00  0.00    +0.000 OA
ATOM      7  C   UNL     1      -1.515  13.685  23.615  0.00  0.00    +0.000 C 
ATOM      8  C   UNL     1      -2.046  12.379  23.034  0.00  0.00    +0.000 C 
ATOM      9  C   UNL     1      -3.275  12.139  23.512  0.00  0.00    +0.000 C 
ATOM     10  C   UNL     1      -3.789  13.263  24.354  0.00  0.00    +0.000 C 
ATOM     11  C   UNL     1      -2.779  14.410  24.117  0.00  0.00    +0.000 C 
BRANCH   4  12
ATOM     12  C   UNL     1      -0.761  15.587  20.410  0.00  0.00    +0.000 C 
ATOM     13  C   UNL     1      -0.835  14.367  19.489  0.00  0.00    +0.000 C 
ATOM     14  C   UNL     1      -1.331  16.832  19.736  0.00  0.00    +0.000 C 
ENDBRANCH   4  12
BRANCH   2  15
ATOM     15  C   UNL     1      -4.592  16.084  23.464  0.00  0.00    +0.000 C 
ATOM     16  O   UNL     1      -4.878  16.501  24.578  0.00  0.00    +0.000 OA
BRANCH  15  18
ATOM     17  C   UNL     1      -6.338  15.003  22.333  0.00  0.00    +0.000 C 
ATOM     18  O   UNL     1      -5.413  16.089  22.383  0.00  0.00    +0.000 OA
ENDBRANCH  15  18
ENDBRANCH   2  15
ENDBRANCH   1   8
BRANCH   1  19
ATOM     19  N   UNL     1       0.085  10.998  22.585  0.00  0.00    +0.000 NA
ATOM     20  C   UNL     1      -0.019   9.604  23.061  0.00  0.00    +0.000 C 
ATOM     21  C   UNL     1      -0.275   8.532  21.981  0.00  0.00    +0.000 C 
ATOM     22  N   UNL     1       0.567   8.584  20.768  0.00  0.00    +0.000 NA
ATOM     23  C   UNL     1       0.782   9.982  20.341  0.00  0.00    +0.000 C 
ATOM     24  C   UNL     1       1.085  10.989  21.484  0.00  0.00    +0.000 C 
BRANCH  22  25
ATOM     25  C   UNL     1       1.844   7.869  20.916  0.00  0.00    +0.000 C 
BRANCH  25  26
ATOM     26  C   UNL     1       1.906   6.592  20.095  0.00  0.00    +0.000 A 
ATOM     27  C   UNL     1       2.207   6.651  18.728  0.00  0.00    +0.000 A 
ATOM     28  C   UNL     1       2.341   5.481  17.981  0.00  0.00    +0.000 A 
ATOM     29  C   UNL     1       2.188   4.237  18.594  0.00  0.00    +0.000 A 
ATOM     30  C   UNL     1       1.886   4.150  19.959  0.00  0.00    +0.000 A 
ATOM     31  C   UNL     1       1.717   5.336  20.695  0.00  0.00    +0.000 A 
BRANCH  30  32
ATOM     32  C   UNL     1       1.788   2.811  20.650  0.00  0.00    +0.000 C 
ATOM     33  F   UNL     1       2.887   2.502  21.395  0.00  0.00    +0.000 F 
ATOM     34  F   UNL     1       0.732   2.745  21.508  0.00  0.00    +0.000 F 
ATOM     35  F   UNL     1       1.627   1.776  19.779  0.00  0.00    +0.000 F 
ENDBRANCH  30  32
ENDBRANCH  25  26
ENDBRANCH  22  25
ENDBRANCH   1  19
TORSDOF 8
ENDMDL
MODEL 5
REMARK VINA RESULT:      -7.5      1.742      2.351
REMARK  Name = 
REMARK  11 active torsions:
REMARK  status: ('A' for Active; 'I' for Inactive)
REMARK    1  A    between atoms: C_1  and  O_2
REMARK    2  A    between atoms: O_2  and  C_3
REMARK    3  A    between atoms: C_3  and  C_5
REMARK    4  A    between atoms: N_7  and  C_8
REMARK    5  A    between atoms: C_8  and  C_9
REMARK    6  A    between atoms: C_8  and  C_10
REMARK    7  A    between atoms: C_14  and  C_15
REMARK    8  A    between atoms: C_15  and  N_16
REMARK    9  A    between atoms: N_19  and  C_20
REMARK   10  A    between atoms: C_20  and  C_21
REMARK   11  A    between atoms: C_25  and  C_26
REMARK                            x       y       z     vdW  Elec       q    Type
REMARK                         _______ _______ _______ _____ _____    ______ ____
ROOT
ATOM      1  C   UNL     1      -0.506  10.420  20.243  0.00  0.00    +0.000 C 
ENDROOT
BRANCH   1   8
ATOM      2  C   UNL     1      -4.285  12.816  20.923  0.00  0.00    +0.000 C 
ATOM      3  C   UNL     1      -4.610  12.074  19.855  0.00  0.00    +0.000 C 
ATOM      4  N   UNL     1      -3.711  11.739  18.862  0.00  0.00    +0.000 N 
ATOM      5  C   UNL     1      -2.401  12.214  18.864  0.00  0.00    +0.000 C 
ATOM      6  O   UNL     1      -1.654  12.136  17.886  0.00  0.00    +0.000 OA
ATOM      7  C   UNL     1      -1.848  12.676  20.208  0.00  0.00    +0.000 C 
ATOM      8  C   UNL     1      -1.251  11.506  20.984  0.00  0.00    +0.000 C 
ATOM      9  C   UNL     1      -1.490  11.665  22.293  0.00  0.00    +0.000 C 
ATOM     10  C   UNL     1      -2.358  12.848  22.576  0.00  0.00    +0.000 C 
ATOM     11  C   UNL     1      -2.874  13.285  21.184  0.00  0.00    +0.000 C 
BRANCH   4  12
ATOM     12  C   UNL     1      -4.107  10.794  17.796  0.00  0.00    +0.000 C 
ATOM     13  C   UNL     1      -4.443  11.550  16.509  0.00  0.00    +0.000 C 
ATOM     14  C   UNL     1      -3.092   9.683  17.545  0.00  0.00    +0.000 C 
ENDBRANCH   4  12
BRANCH   2  15
ATOM     15  C   UNL     1      -5.324  13.229  21.900  0.00  0.00    +0.000 C 
ATOM     16  O   UNL     1      -5.957  12.439  22.586  0.00  0.00    +0.000 OA
BRANCH  15  18
ATOM     17  C   UNL     1      -6.852  14.999  22.075  0.00  0.00    +0.000 C 
ATOM     18  O   UNL     1      -5.504  14.575  21.874  0.00  0.00    +0.000 OA
ENDBRANCH  15  18
ENDBRANCH   2  15
ENDBRANCH   1   8
BRANCH   1  19
ATOM     19  N   UNL     1       0.970  10.473  20.177  0.00  0.00    +0.000 NA
ATOM     20  C   UNL     1       1.652   9.280  20.717  0.00  0.00    +0.000 C 
ATOM     21  C   UNL     1       1.498   7.979  19.901  0.00  0.00    +0.000 C 
ATOM     22  N   UNL     1       1.726   8.067  18.444  0.00  0.00    +0.000 NA
ATOM     23  C   UNL     1       1.151   9.315  17.901  0.00  0.00    +0.000 C 
ATOM     24  C   UNL     1       1.395  10.589  18.756  0.00  0.00    +0.000 C 
BRANCH  22  25
ATOM     25  C   UNL     1       3.141   7.923  18.067  0.00  0.00    +0.000 C 
BRANCH  25  26
ATOM     26  C   UNL     1       3.488   6.518  17.603  0.00  0.00    +0.000 A 
ATOM     27  C   UNL     1       4.650   6.294  16.853  0.00  0.00    +0.000 A 
ATOM     28  C   UNL     1       5.018   4.999  16.488  0.00  0.00    +0.000 A 
ATOM     29  C   UNL     1       4.236   3.912  16.876  0.00  0.00    +0.000 A 
ATOM     30  C   UNL     1       3.069   4.108  17.625  0.00  0.00    +0.000 A 
ATOM     31  C   UNL     1       2.687   5.420  17.958  0.00  0.00    +0.000 A 
BRANCH  30  32
ATOM     32  C   UNL     1       2.252   2.936  18.114  0.00  0.00    +0.000 C 
ATOM     33  F   UNL     1       2.372   1.825  17.332  0.00  0.00    +0.000 F 
ATOM     34  F   UNL     1       2.607   2.541  19.368  0.00  0.00    +0.000 F 
ATOM     35  F   UNL     1       0.918   3.207  18.171  0.00  0.00    +0.000 F 
ENDBRANCH  30  32
ENDBRANCH  25  26
ENDBRANCH  22  25
ENDBRANCH   1  19
TORSDOF 8
ENDMDL
MODEL 6
REMARK VINA RESULT:      -7.5      2.498      3.253
REMARK  Name = 
REMARK  11 active torsions:
REMARK  status: ('A' for Active; 'I' for Inactive)
REMARK    1  A    between atoms: C_1  and  O_2
REMARK    2  A    between atoms: O_2  and  C_3
REMARK    3  A    between atoms: C_3  and  C_5
REMARK    4  A    between atoms: N_7  and  C_8
REMARK    5  A    between atoms: C_8  and  C_9
REMARK    6  A    between atoms: C_8  and  C_10
REMARK    7  A    between atoms: C_14  and  C_15
REMARK    8  A    between atoms: C_15  and  N_16
REMARK    9  A    between atoms: N_19  and  C_20
REMARK   10  A    between atoms: C_20  and  C_21
REMARK   11  A    between atoms: C_25  and  C_26
REMARK                            x       y       z     vdW  Elec       q    Type
REMARK                         _______ _______ _______ _____ _____    ______ ____
ROOT
ATOM      1  C   UNL     1      -0.445  11.414  22.096  0.00  0.00    +0.000 C 
ENDROOT
BRANCH   1   8
ATOM      2  C   UNL     1      -4.676  12.656  21.078  0.00  0.00    +0.000 C 
ATOM      3  C   UNL     1      -4.221  12.212  19.898  0.00  0.00    +0.000 C 
ATOM      4  N   UNL     1      -2.917  12.382  19.475  0.00  0.00    +0.000 N 
ATOM      5  C   UNL     1      -1.987  13.097  20.226  0.00  0.00    +0.000 C 
ATOM      6  O   UNL     1      -0.901  13.471  19.777  0.00  0.00    +0.000 OA
ATOM      7  C   UNL     1      -2.285  13.246  21.714  0.00  0.00    +0.000 C 
ATOM      8  C   UNL     1      -1.754  12.051  22.500  0.00  0.00    +0.000 C 
ATOM      9  C   UNL     1      -2.594  11.762  23.503  0.00  0.00    +0.000 C 
ATOM     10  C   UNL     1      -3.832  12.600  23.472  0.00  0.00    +0.000 C 
ATOM     11  C   UNL     1      -3.777  13.310  22.099  0.00  0.00    +0.000 C 
BRANCH   4  12
ATOM     12  C   UNL     1      -2.456  11.733  18.229  0.00  0.00    +0.000 C 
ATOM     13  C   UNL     1      -1.643  10.478  18.549  0.00  0.00    +0.000 C 
ATOM     14  C   UNL     1      -3.575  11.438  17.234  0.00  0.00    +0.000 C 
ENDBRANCH   4  12
BRANCH   2  15
ATOM     15  C   UNL     1      -6.115  12.535  21.426  0.00  0.00    +0.000 C 
ATOM     16  O   UNL     1      -6.682  11.463  21.587  0.00  0.00    +0.000 OA
BRANCH  15  18
ATOM     17  C   UNL     1      -7.671  13.996  20.457  0.00  0.00    +0.000 C 
ATOM     18  O   UNL     1      -6.704  13.757  21.479  0.00  0.00    +0.000 OA
ENDBRANCH  15  18
ENDBRANCH   2  15
ENDBRANCH   1   8
BRANCH   1  19
ATOM     19  N   UNL     1       0.068  10.266  22.873  0.00  0.00    +0.000 NA
ATOM     20  C   UNL     1      -0.667   9.003  22.661  0.00  0.00    +0.000 C 
ATOM     21  C   UNL     1      -0.507   8.346  21.274  0.00  0.00    +0.000 C 
ATOM     22  N   UNL     1       0.866   8.220  20.743  0.00  0.00    +0.000 NA
ATOM     23  C   UNL     1       1.657   9.429  21.048  0.00  0.00    +0.000 C 
ATOM     24  C   UNL     1       1.478   9.998  22.483  0.00  0.00    +0.000 C 
BRANCH  22  25
ATOM     25  C   UNL     1       1.556   7.002  21.198  0.00  0.00    +0.000 C 
BRANCH  25  26
ATOM     26  C   UNL     1       1.887   6.050  20.061  0.00  0.00    +0.000 A 
ATOM     27  C   UNL     1       2.664   6.489  18.981  0.00  0.00    +0.000 A 
ATOM     28  C   UNL     1       3.038   5.604  17.971  0.00  0.00    +0.000 A 
ATOM     29  C   UNL     1       2.649   4.265  18.032  0.00  0.00    +0.000 A 
ATOM     30  C   UNL     1       1.871   3.800  19.100  0.00  0.00    +0.000 A 
ATOM     31  C   UNL     1       1.469   4.709  20.095  0.00  0.00    +0.000 A 
BRANCH  30  32
ATOM     32  C   UNL     1       1.503   2.340  19.217  0.00  0.00    +0.000 C 
ATOM     33  F   UNL     1       0.317   2.028  18.621  0.00  0.00    +0.000 F 
ATOM     34  F   UNL     1       2.429   1.524  18.641  0.00  0.00    +0.000 F 
ATOM     35  F   UNL     1       1.390   1.924  20.509  0.00  0.00    +0.000 F 
ENDBRANCH  30  32
ENDBRANCH  25  26
ENDBRANCH  22  25
ENDBRANCH   1  19
TORSDOF 8
ENDMDL
MODEL 7
REMARK VINA RESULT:      -7.4      1.744      2.267
REMARK  Name = 
REMARK  11 active torsions:
REMARK  status: ('A' for Active; 'I' for Inactive)
REMARK    1  A    between atoms: C_1  and  O_2
REMARK    2  A    between atoms: O_2  and  C_3
REMARK    3  A    between atoms: C_3  and  C_5
REMARK    4  A    between atoms: N_7  and  C_8
REMARK    5  A    between atoms: C_8  and  C_9
REMARK    6  A    between atoms: C_8  and  C_10
REMARK    7  A    between atoms: C_14  and  C_15
REMARK    8  A    between atoms: C_15  and  N_16
REMARK    9  A    between atoms: N_19  and  C_20
REMARK   10  A    between atoms: C_20  and  C_21
REMARK   11  A    between atoms: C_25  and  C_26
REMARK                            x       y       z     vdW  Elec       q    Type
REMARK                         _______ _______ _______ _____ _____    ______ ____
ROOT
ATOM      1  C   UNL     1      -0.388  10.406  20.466  0.00  0.00    +0.000 C 
ENDROOT
BRANCH   1   8
ATOM      2  C   UNL     1      -4.065  12.836  21.494  0.00  0.00    +0.000 C 
ATOM      3  C   UNL     1      -4.352  12.399  20.259  0.00  0.00    +0.000 C 
ATOM      4  N   UNL     1      -3.402  12.250  19.268  0.00  0.00    +0.000 N 
ATOM      5  C   UNL     1      -2.071  12.613  19.462  0.00  0.00    +0.000 C 
ATOM      6  O   UNL     1      -1.259  12.719  18.540  0.00  0.00    +0.000 OA
ATOM      7  C   UNL     1      -1.594  12.695  20.909  0.00  0.00    +0.000 C 
ATOM      8  C   UNL     1      -1.123  11.333  21.406  0.00  0.00    +0.000 C 
ATOM      9  C   UNL     1      -1.448  11.187  22.698  0.00  0.00    +0.000 C 
ATOM     10  C   UNL     1      -2.267  12.328  23.212  0.00  0.00    +0.000 C 
ATOM     11  C   UNL     1      -2.653  13.123  21.943  0.00  0.00    +0.000 C 
BRANCH   4  12
ATOM     12  C   UNL     1      -3.772  11.621  17.982  0.00  0.00    +0.000 C 
ATOM     13  C   UNL     1      -3.125  10.241  17.855  0.00  0.00    +0.000 C 
ATOM     14  C   UNL     1      -5.276  11.560  17.732  0.00  0.00    +0.000 C 
ENDBRANCH   4  12
BRANCH   2  15
ATOM     15  C   UNL     1      -5.148  13.076  22.481  0.00  0.00    +0.000 C 
ATOM     16  O   UNL     1      -5.808  12.179  22.989  0.00  0.00    +0.000 OA
BRANCH  15  18
ATOM     17  C   UNL     1      -6.450  14.733  23.509  0.00  0.00    +0.000 C 
ATOM     18  O   UNL     1      -5.333  14.406  22.682  0.00  0.00    +0.000 OA
ENDBRANCH  15  18
ENDBRANCH   2  15
ENDBRANCH   1   8
BRANCH   1  19
ATOM     19  N   UNL     1       1.090  10.397  20.470  0.00  0.00    +0.000 NA
ATOM     20  C   UNL     1       1.695   9.227  21.137  0.00  0.00    +0.000 C 
ATOM     21  C   UNL     1       1.526   7.871  20.420  0.00  0.00    +0.000 C 
ATOM     22  N   UNL     1       1.825   7.831  18.974  0.00  0.00    +0.000 NA
ATOM     23  C   UNL     1       1.330   9.051  18.305  0.00  0.00    +0.000 C 
ATOM     24  C   UNL     1       1.586  10.381  19.068  0.00  0.00    +0.000 C 
BRANCH  22  25
ATOM     25  C   UNL     1       3.249   7.603  18.681  0.00  0.00    +0.000 C 
BRANCH  25  26
ATOM     26  C   UNL     1       3.504   6.275  17.987  0.00  0.00    +0.000 A 
ATOM     27  C   UNL     1       4.571   6.146  17.088  0.00  0.00    +0.000 A 
ATOM     28  C   UNL     1       4.860   4.913  16.504  0.00  0.00    +0.000 A 
ATOM     29  C   UNL     1       4.094   3.791  16.820  0.00  0.00    +0.000 A 
ATOM     30  C   UNL     1       3.021   3.892  17.714  0.00  0.00    +0.000 A 
ATOM     31  C   UNL     1       2.715   5.147  18.270  0.00  0.00    +0.000 A 
BRANCH  30  32
ATOM     32  C   UNL     1       2.228   2.673  18.120  0.00  0.00    +0.000 C 
ATOM     33  F   UNL     1       0.893   2.913  18.260  0.00  0.00    +0.000 F 
ATOM     34  F   UNL     1       2.326   1.663  17.210  0.00  0.00    +0.000 F 
ATOM     35  F   UNL     1       2.637   2.146  19.308  0.00  0.00    +0.000 F 
ENDBRANCH  30  32
ENDBRANCH  25  26
ENDBRANCH  22  25
ENDBRANCH   1  19
TORSDOF 8
ENDMDL
MODEL 8
REMARK VINA RESULT:      -7.4      1.167      1.696
REMARK  Name = 
REMARK  11 active torsions:
REMARK  status: ('A' for Active; 'I' for Inactive)
REMARK    1  A    between atoms: C_1  and  O_2
REMARK    2  A    between atoms: O_2  and  C_3
REMARK    3  A    between atoms: C_3  and  C_5
REMARK    4  A    between atoms: N_7  and  C_8
REMARK    5  A    between atoms: C_8  and  C_9
REMARK    6  A    between atoms: C_8  and  C_10
REMARK    7  A    between atoms: C_14  and  C_15
REMARK    8  A    between atoms: C_15  and  N_16
REMARK    9  A    between atoms: N_19  and  C_20
REMARK   10  A    between atoms: C_20  and  C_21
REMARK   11  A    between atoms: C_25  and  C_26
REMARK                            x       y       z     vdW  Elec       q    Type
REMARK                         _______ _______ _______ _____ _____    ______ ____
ROOT
ATOM      1  C   UNL     1       0.502  11.179  20.071  0.00  0.00    +0.000 C 
ENDROOT
BRANCH   1   8
ATOM      2  C   UNL     1      -3.598  12.943  20.816  0.00  0.00    +0.000 C 
ATOM      3  C   UNL     1      -3.783  12.276  19.668  0.00  0.00    +0.000 C 
ATOM      4  N   UNL     1      -2.816  12.173  18.687  0.00  0.00    +0.000 N 
ATOM      5  C   UNL     1      -1.589  12.823  18.791  0.00  0.00    +0.000 C 
ATOM      6  O   UNL     1      -0.810  12.950  17.844  0.00  0.00    +0.000 OA
ATOM      7  C   UNL     1      -1.147  13.217  20.197  0.00  0.00    +0.000 C 
ATOM      8  C   UNL     1      -0.411  12.070  20.881  0.00  0.00    +0.000 C 
ATOM      9  C   UNL     1      -0.708  12.059  22.188  0.00  0.00    +0.000 C 
ATOM     10  C   UNL     1      -1.745  13.074  22.546  0.00  0.00    +0.000 C 
ATOM     11  C   UNL     1      -2.277  13.574  21.182  0.00  0.00    +0.000 C 
BRANCH   4  12
ATOM     12  C   UNL     1      -3.043  11.296  17.518  0.00  0.00    +0.000 C 
ATOM     13  C   UNL     1      -2.965   9.824  17.931  0.00  0.00    +0.000 C 
ATOM     14  C   UNL     1      -4.331  11.597  16.758  0.00  0.00    +0.000 C 
ENDBRANCH   4  12
BRANCH   2  15
ATOM     15  C   UNL     1      -4.714  13.106  21.782  0.00  0.00    +0.000 C 
ATOM     16  O   UNL     1      -5.263  12.166  22.342  0.00  0.00    +0.000 OA
BRANCH  15  18
ATOM     17  C   UNL     1      -6.385  14.717  21.454  0.00  0.00    +0.000 C 
ATOM     18  O   UNL     1      -5.064  14.412  21.901  0.00  0.00    +0.000 OA
ENDBRANCH  15  18
ENDBRANCH   2  15
ENDBRANCH   1   8
BRANCH   1  19
ATOM     19  N   UNL     1      -0.039   9.937  19.480  0.00  0.00    +0.000 NA
ATOM     20  C   UNL     1       0.663   9.479  18.264  0.00  0.00    +0.000 C 
ATOM     21  C   UNL     1       2.100   8.953  18.463  0.00  0.00    +0.000 C 
ATOM     22  N   UNL     1       2.317   7.986  19.559  0.00  0.00    +0.000 NA
ATOM     23  C   UNL     1       1.530   8.362  20.751  0.00  0.00    +0.000 C 
ATOM     24  C   UNL     1       0.076   8.831  20.469  0.00  0.00    +0.000 C 
BRANCH  22  25
ATOM     25  C   UNL     1       2.056   6.592  19.165  0.00  0.00    +0.000 C 
BRANCH  25  26
ATOM     26  C   UNL     1       3.312   5.854  18.733  0.00  0.00    +0.000 A 
ATOM     27  C   UNL     1       3.886   4.893  19.575  0.00  0.00    +0.000 A 
ATOM     28  C   UNL     1       4.994   4.156  19.157  0.00  0.00    +0.000 A 
ATOM     29  C   UNL     1       5.535   4.363  17.888  0.00  0.00    +0.000 A 
ATOM     30  C   UNL     1       4.981   5.319  17.027  0.00  0.00    +0.000 A 
ATOM     31  C   UNL     1       3.887   6.082  17.471  0.00  0.00    +0.000 A 
BRANCH  30  32
ATOM     32  C   UNL     1       5.512   5.503  15.625  0.00  0.00    +0.000 C 
ATOM     33  F   UNL     1       5.034   6.619  15.004  0.00  0.00    +0.000 F 
ATOM     34  F   UNL     1       6.869   5.618  15.594  0.00  0.00    +0.000 F 
ATOM     35  F   UNL     1       5.207   4.461  14.802  0.00  0.00    +0.000 F 
ENDBRANCH  30  32
ENDBRANCH  25  26
ENDBRANCH  22  25
ENDBRANCH   1  19
TORSDOF 8
ENDMDL
MODEL 9
REMARK VINA RESULT:      -7.3      2.845      3.696
REMARK  Name = 
REMARK  11 active torsions:
REMARK  status: ('A' for Active; 'I' for Inactive)
REMARK    1  A    between atoms: C_1  and  O_2
REMARK    2  A    between atoms: O_2  and  C_3
REMARK    3  A    between atoms: C_3  and  C_5
REMARK    4  A    between atoms: N_7  and  C_8
REMARK    5  A    between atoms: C_8  and  C_9
REMARK    6  A    between atoms: C_8  and  C_10
REMARK    7  A    between atoms: C_14  and  C_15
REMARK    8  A    between atoms: C_15  and  N_16
REMARK    9  A    between atoms: N_19  and  C_20
REMARK   10  A    between atoms: C_20  and  C_21
REMARK   11  A    between atoms: C_25  and  C_26
REMARK                            x       y       z     vdW  Elec       q    Type
REMARK                         _______ _______ _______ _____ _____    ______ ____
ROOT
ATOM      1  C   UNL     1      -1.606  11.563  22.316  0.00  0.00    +0.000 C 
ENDROOT
BRANCH   1   8
ATOM      2  C   UNL     1      -4.458  14.979  21.493  0.00  0.00    +0.000 C 
ATOM      3  C   UNL     1      -5.020  13.972  20.810  0.00  0.00    +0.000 C 
ATOM      4  N   UNL     1      -4.290  12.998  20.158  0.00  0.00    +0.000 N 
ATOM      5  C   UNL     1      -2.898  13.032  20.106  0.00  0.00    +0.000 C 
ATOM      6  O   UNL     1      -2.234  12.327  19.342  0.00  0.00    +0.000 OA
ATOM      7  C   UNL     1      -2.198  13.855  21.182  0.00  0.00    +0.000 C 
ATOM      8  C   UNL     1      -1.966  13.025  22.440  0.00  0.00    +0.000 C 
ATOM      9  C   UNL     1      -2.113  13.799  23.525  0.00  0.00    +0.000 C 
ATOM     10  C   UNL     1      -2.573  15.180  23.182  0.00  0.00    +0.000 C 
ATOM     11  C   UNL     1      -2.966  15.092  21.688  0.00  0.00    +0.000 C 
BRANCH   4  12
ATOM     12  C   UNL     1      -4.981  11.839  19.554  0.00  0.00    +0.000 C 
ATOM     13  C   UNL     1      -6.305  11.571  20.272  0.00  0.00    +0.000 C 
ATOM     14  C   UNL     1      -5.176  11.952  18.044  0.00  0.00    +0.000 C 
ENDBRANCH   4  12
BRANCH   2  15
ATOM     15  C   UNL     1      -5.298  16.053  22.082  0.00  0.00    +0.000 C 
ATOM     16  O   UNL     1      -5.197  17.233  21.774  0.00  0.00    +0.000 OA
BRANCH  15  18
ATOM     17  C   UNL     1      -7.275  16.358  23.305  0.00  0.00    +0.000 C 
ATOM     18  O   UNL     1      -6.130  15.551  23.030  0.00  0.00    +0.000 OA
ENDBRANCH  15  18
ENDBRANCH   2  15
ENDBRANCH   1   8
BRANCH   1  19
ATOM     19  N   UNL     1      -0.267  11.110  22.748  0.00  0.00    +0.000 NA
ATOM     20  C   UNL     1      -0.222   9.726  23.260  0.00  0.00    +0.000 C 
ATOM     21  C   UNL     1      -0.445   8.607  22.221  0.00  0.00    +0.000 C 
ATOM     22  N   UNL     1       0.319   8.698  20.960  0.00  0.00    +0.000 NA
ATOM     23  C   UNL     1       0.387  10.097  20.490  0.00  0.00    +0.000 C 
ATOM     24  C   UNL     1       0.666  11.157  21.591  0.00  0.00    +0.000 C 
BRANCH  22  25
ATOM     25  C   UNL     1       1.660   8.099  21.048  0.00  0.00    +0.000 C 
BRANCH  25  26
ATOM     26  C   UNL     1       1.843   6.917  20.112  0.00  0.00    +0.000 A 
ATOM     27  C   UNL     1       2.496   7.088  18.884  0.00  0.00    +0.000 A 
ATOM     28  C   UNL     1       2.736   5.995  18.052  0.00  0.00    +0.000 A 
ATOM     29  C   UNL     1       2.337   4.716  18.440  0.00  0.00    +0.000 A 
ATOM     30  C   UNL     1       1.681   4.517  19.662  0.00  0.00    +0.000 A 
ATOM     31  C   UNL     1       1.412   5.630  20.478  0.00  0.00    +0.000 A 
BRANCH  30  32
ATOM     32  C   UNL     1       1.308   3.130  20.128  0.00  0.00    +0.000 C 
ATOM     33  F   UNL     1       0.962   3.074  21.445  0.00  0.00    +0.000 F 
ATOM     34  F   UNL     1       0.243   2.622  19.446  0.00  0.00    +0.000 F 
ATOM     35  F   UNL     1       2.317   2.229  19.970  0.00  0.00    +0.000 F 
ENDBRANCH  30  32
ENDBRANCH  25  26
ENDBRANCH  22  25
ENDBRANCH   1  19
TORSDOF 8
ENDMDL
