MODEL 1
REMARK VINA RESULT:      -8.1      0.000      0.000
REMARK  Name = 
REMARK  4 active torsions:
REMARK  status: ('A' for Active; 'I' for Inactive)
REMARK    1  A    between atoms: C_2  and  C_17
REMARK    2  A    between atoms: N_3  and  N_4
REMARK    3  A    between atoms: C_9  and  C_10
REMARK    4  A    between atoms: C_22  and  O_23
REMARK                            x       y       z     vdW  Elec       q    Type
REMARK                         _______ _______ _______ _____ _____    ______ ____
ROOT
ATOM      1  N   UNL     1       4.153   3.743  19.272  0.00  0.00    +0.000 N 
ATOM      2  C   UNL     1       3.166   2.813  19.459  0.00  0.00    +0.000 C 
ATOM      3  O   UNL     1       2.961   1.761  18.893  0.00  0.00    +0.000 OA
ATOM      4  C   UNL     1       2.449   3.697  20.504  0.00  0.00    +0.000 C 
ATOM      5 CL   UNL     1       0.685   3.897  20.231  0.00  0.00    +0.000 Cl
ATOM      6  C   UNL     1       3.472   4.798  20.078  0.00  0.00    +0.000 C 
ENDROOT
BRANCH   6   7
ATOM      7  C   UNL     1       2.994   6.170  19.405  0.00  0.00    +0.000 A 
ATOM      8  C   UNL     1       3.402   6.502  18.091  0.00  0.00    +0.000 A 
ATOM      9  C   UNL     1       2.998   7.678  17.448  0.00  0.00    +0.000 A 
ATOM     10  C   UNL     1       2.163   8.572  18.107  0.00  0.00    +0.000 A 
ATOM     11  C   UNL     1       1.749   8.287  19.402  0.00  0.00    +0.000 A 
ATOM     12 CL   UNL     1       0.712   9.386  20.228  0.00  0.00    +0.000 Cl
ATOM     13  C   UNL     1       2.159   7.112  20.042  0.00  0.00    +0.000 A 
ENDBRANCH   6   7
BRANCH   1  16
ATOM     14  O   UNL     1       6.712   4.408  18.558  0.00  0.00    +0.000 OA
ATOM     15  C   UNL     1       5.858   4.280  17.686  0.00  0.00    +0.000 C 
ATOM     16  N   UNL     1       4.526   4.036  17.960  0.00  0.00    +0.000 N 
ATOM     17  H   UNL     1       3.921   3.700  17.208  0.00  0.00    +0.000 HD
BRANCH  15  18
ATOM     18  C   UNL     1       6.224   4.429  16.249  0.00  0.00    +0.000 A 
ATOM     19  C   UNL     1       5.676   3.492  15.356  0.00  0.00    +0.000 A 
ATOM     20  C   UNL     1       5.949   3.563  13.989  0.00  0.00    +0.000 A 
ATOM     21  C   UNL     1       6.769   4.577  13.495  0.00  0.00    +0.000 A 
ATOM     22  C   UNL     1       7.326   5.513  14.367  0.00  0.00    +0.000 A 
ATOM     23  C   UNL     1       7.060   5.438  15.739  0.00  0.00    +0.000 A 
BRANCH  23  24
ATOM     24  O   UNL     1       7.624   6.361  16.577  0.00  0.00    +0.000 OA
ATOM     25  H   UNL     1       6.929   6.961  16.900  0.00  0.00    +0.000 HD
ENDBRANCH  23  24
ENDBRANCH  15  18
ENDBRANCH   1  16
TORSDOF 4
ENDMDL
MODEL 2
REMARK VINA RESULT:      -7.3      1.437      1.848
REMARK  Name = 
REMARK  4 active torsions:
REMARK  status: ('A' for Active; 'I' for Inactive)
REMARK    1  A    between atoms: C_2  and  C_17
REMARK    2  A    between atoms: N_3  and  N_4
REMARK    3  A    between atoms: C_9  and  C_10
REMARK    4  A    between atoms: C_22  and  O_23
REMARK                            x       y       z     vdW  Elec       q    Type
REMARK                         _______ _______ _______ _____ _____    ______ ____
ROOT
ATOM      1  N   UNL     1       3.578   3.161  19.611  0.00  0.00    +0.000 N 
ATOM      2  C   UNL     1       2.568   2.243  19.501  0.00  0.00    +0.000 C 
ATOM      3  O   UNL     1       2.406   1.346  18.704  0.00  0.00    +0.000 OA
ATOM      4  C   UNL     1       1.765   2.904  20.645  0.00  0.00    +0.000 C 
ATOM      5 CL   UNL     1       0.037   3.213  20.264  0.00  0.00    +0.000 Cl
ATOM      6  C   UNL     1       2.835   4.038  20.563  0.00  0.00    +0.000 C 
ENDROOT
BRANCH   6   7
ATOM      7  C   UNL     1       2.439   5.537  20.165  0.00  0.00    +0.000 A 
ATOM      8  C   UNL     1       1.672   6.332  21.050  0.00  0.00    +0.000 A 
ATOM      9  C   UNL     1       1.315   7.655  20.762  0.00  0.00    +0.000 A 
ATOM     10  C   UNL     1       1.718   8.232  19.564  0.00  0.00    +0.000 A 
ATOM     11  C   UNL     1       2.464   7.481  18.665  0.00  0.00    +0.000 A 
ATOM     12 CL   UNL     1       2.972   8.187  17.178  0.00  0.00    +0.000 Cl
ATOM     13  C   UNL     1       2.815   6.158  18.956  0.00  0.00    +0.000 A 
ENDBRANCH   6   7
BRANCH   1  16
ATOM     14  O   UNL     1       6.098   4.214  19.406  0.00  0.00    +0.000 OA
ATOM     15  C   UNL     1       5.389   4.149  18.406  0.00  0.00    +0.000 C 
ATOM     16  N   UNL     1       4.077   3.718  18.433  0.00  0.00    +0.000 N 
ATOM     17  H   UNL     1       3.625   3.456  17.556  0.00  0.00    +0.000 HD
BRANCH  15  18
ATOM     18  C   UNL     1       5.917   4.587  17.082  0.00  0.00    +0.000 A 
ATOM     19  C   UNL     1       4.980   5.086  16.162  0.00  0.00    +0.000 A 
ATOM     20  C   UNL     1       5.383   5.535  14.903  0.00  0.00    +0.000 A 
ATOM     21  C   UNL     1       6.732   5.499  14.552  0.00  0.00    +0.000 A 
ATOM     22  C   UNL     1       7.676   5.002  15.451  0.00  0.00    +0.000 A 
ATOM     23  C   UNL     1       7.272   4.544  16.709  0.00  0.00    +0.000 A 
BRANCH  23  24
ATOM     24  O   UNL     1       8.213   4.052  17.571  0.00  0.00    +0.000 OA
ATOM     25  H   UNL     1       7.860   3.254  18.003  0.00  0.00    +0.000 HD
ENDBRANCH  23  24
ENDBRANCH  15  18
ENDBRANCH   1  16
TORSDOF 4
ENDMDL
MODEL 3
REMARK VINA RESULT:      -7.3      3.065      5.611
REMARK  Name = 
REMARK  4 active torsions:
REMARK  status: ('A' for Active; 'I' for Inactive)
REMARK    1  A    between atoms: C_2  and  C_17
REMARK    2  A    between atoms: N_3  and  N_4
REMARK    3  A    between atoms: C_9  and  C_10
REMARK    4  A    between atoms: C_22  and  O_23
REMARK                            x       y       z     vdW  Elec       q    Type
REMARK                         _______ _______ _______ _____ _____    ______ ____
ROOT
ATOM      1  N   UNL     1       2.438   3.681  19.655  0.00  0.00    +0.000 N 
ATOM      2  C   UNL     1       2.730   2.982  20.796  0.00  0.00    +0.000 C 
ATOM      3  O   UNL     1       2.422   3.197  21.948  0.00  0.00    +0.000 OA
ATOM      4  C   UNL     1       3.641   1.997  20.029  0.00  0.00    +0.000 C 
ATOM      5 CL   UNL     1       5.255   1.736  20.775  0.00  0.00    +0.000 Cl
ATOM      6  C   UNL     1       3.448   2.966  18.820  0.00  0.00    +0.000 C 
ENDROOT
BRANCH   6   7
ATOM      7  C   UNL     1       4.682   3.749  18.167  0.00  0.00    +0.000 A 
ATOM      8  C   UNL     1       4.828   3.806  16.760  0.00  0.00    +0.000 A 
ATOM      9  C   UNL     1       5.876   4.494  16.136  0.00  0.00    +0.000 A 
ATOM     10  C   UNL     1       6.824   5.154  16.909  0.00  0.00    +0.000 A 
ATOM     11  C   UNL     1       6.720   5.112  18.294  0.00  0.00    +0.000 A 
ATOM     12 CL   UNL     1       7.888   5.930  19.261  0.00  0.00    +0.000 Cl
ATOM     13  C   UNL     1       5.673   4.421  18.913  0.00  0.00    +0.000 A 
ENDBRANCH   6   7
BRANCH   1  16
ATOM     14  O   UNL     1       1.605   5.300  17.609  0.00  0.00    +0.000 OA
ATOM     15  C   UNL     1       1.965   5.805  18.668  0.00  0.00    +0.000 C 
ATOM     16  N   UNL     1       2.485   5.074  19.719  0.00  0.00    +0.000 N 
ATOM     17  H   UNL     1       2.535   5.505  20.643  0.00  0.00    +0.000 HD
BRANCH  15  18
ATOM     18  C   UNL     1       1.895   7.282  18.858  0.00  0.00    +0.000 A 
ATOM     19  C   UNL     1       2.101   8.076  17.717  0.00  0.00    +0.000 A 
ATOM     20  C   UNL     1       2.037   9.469  17.794  0.00  0.00    +0.000 A 
ATOM     21  C   UNL     1       1.760  10.085  19.013  0.00  0.00    +0.000 A 
ATOM     22  C   UNL     1       1.558   9.313  20.157  0.00  0.00    +0.000 A 
ATOM     23  C   UNL     1       1.629   7.918  20.083  0.00  0.00    +0.000 A 
BRANCH  23  24
ATOM     24  O   UNL     1       1.437   7.181  21.220  0.00  0.00    +0.000 OA
ATOM     25  H   UNL     1       0.517   7.294  21.517  0.00  0.00    +0.000 HD
ENDBRANCH  23  24
ENDBRANCH  15  18
ENDBRANCH   1  16
TORSDOF 4
ENDMDL
MODEL 4
REMARK VINA RESULT:      -7.1      3.159      5.789
REMARK  Name = 
REMARK  4 active torsions:
REMARK  status: ('A' for Active; 'I' for Inactive)
REMARK    1  A    between atoms: C_2  and  C_17
REMARK    2  A    between atoms: N_3  and  N_4
REMARK    3  A    between atoms: C_9  and  C_10
REMARK    4  A    between atoms: C_22  and  O_23
REMARK                            x       y       z     vdW  Elec       q    Type
REMARK                         _______ _______ _______ _____ _____    ______ ____
ROOT
ATOM      1  N   UNL     1       2.548   3.738  19.584  0.00  0.00    +0.000 N 
ATOM      2  C   UNL     1       2.755   2.997  20.717  0.00  0.00    +0.000 C 
ATOM      3  O   UNL     1       2.326   3.144  21.840  0.00  0.00    +0.000 OA
ATOM      4  C   UNL     1       3.780   2.085  20.004  0.00  0.00    +0.000 C 
ATOM      5 CL   UNL     1       5.321   1.851  20.897  0.00  0.00    +0.000 Cl
ATOM      6  C   UNL     1       3.666   3.103  18.825  0.00  0.00    +0.000 C 
ENDROOT
BRANCH   6   7
ATOM      7  C   UNL     1       4.924   3.964  18.336  0.00  0.00    +0.000 A 
ATOM      8  C   UNL     1       5.651   4.755  19.257  0.00  0.00    +0.000 A 
ATOM      9  C   UNL     1       6.770   5.511  18.888  0.00  0.00    +0.000 A 
ATOM     10  C   UNL     1       7.203   5.500  17.568  0.00  0.00    +0.000 A 
ATOM     11  C   UNL     1       6.510   4.743  16.632  0.00  0.00    +0.000 A 
ATOM     12 CL   UNL     1       7.041   4.719  14.993  0.00  0.00    +0.000 Cl
ATOM     13  C   UNL     1       5.390   3.993  17.005  0.00  0.00    +0.000 A 
ENDBRANCH   6   7
BRANCH   1  16
ATOM     14  O   UNL     1       1.830   5.420  17.546  0.00  0.00    +0.000 OA
ATOM     15  C   UNL     1       2.073   5.887  18.655  0.00  0.00    +0.000 C 
ATOM     16  N   UNL     1       2.528   5.127  19.715  0.00  0.00    +0.000 N 
ATOM     17  H   UNL     1       2.477   5.515  20.658  0.00  0.00    +0.000 HD
BRANCH  15  18
ATOM     18  C   UNL     1       1.922   7.350  18.903  0.00  0.00    +0.000 A 
ATOM     19  C   UNL     1       2.073   8.197  17.793  0.00  0.00    +0.000 A 
ATOM     20  C   UNL     1       1.932   9.580  17.925  0.00  0.00    +0.000 A 
ATOM     21  C   UNL     1       1.631  10.132  19.169  0.00  0.00    +0.000 A 
ATOM     22  C   UNL     1       1.482   9.306  20.283  0.00  0.00    +0.000 A 
ATOM     23  C   UNL     1       1.631   7.921  20.154  0.00  0.00    +0.000 A 
BRANCH  23  24
ATOM     24  O   UNL     1       1.491   7.131  21.262  0.00  0.00    +0.000 OA
ATOM     25  H   UNL     1       1.177   6.252  20.984  0.00  0.00    +0.000 HD
ENDBRANCH  23  24
ENDBRANCH  15  18
ENDBRANCH   1  16
TORSDOF 4
ENDMDL
MODEL 5
REMARK VINA RESULT:      -7.0      2.933      5.378
REMARK  Name = 
REMARK  4 active torsions:
REMARK  status: ('A' for Active; 'I' for Inactive)
REMARK    1  A    between atoms: C_2  and  C_17
REMARK    2  A    between atoms: N_3  and  N_4
REMARK    3  A    between atoms: C_9  and  C_10
REMARK    4  A    between atoms: C_22  and  O_23
REMARK                            x       y       z     vdW  Elec       q    Type
REMARK                         _______ _______ _______ _____ _____    ______ ____
ROOT
ATOM      1  N   UNL     1       2.183   3.385  18.149  0.00  0.00    +0.000 N 
ATOM      2  C   UNL     1       2.234   2.706  19.337  0.00  0.00    +0.000 C 
ATOM      3  O   UNL     1       1.508   2.762  20.305  0.00  0.00    +0.000 OA
ATOM      4  C   UNL     1       3.570   2.026  18.958  0.00  0.00    +0.000 C 
ATOM      5 CL   UNL     1       4.841   2.120  20.223  0.00  0.00    +0.000 Cl
ATOM      6  C   UNL     1       3.563   2.995  17.734  0.00  0.00    +0.000 C 
ENDROOT
BRANCH   6   7
ATOM      7  C   UNL     1       4.705   4.098  17.531  0.00  0.00    +0.000 A 
ATOM      8  C   UNL     1       4.765   4.854  16.336  0.00  0.00    +0.000 A 
ATOM      9  C   UNL     1       5.730   5.844  16.114  0.00  0.00    +0.000 A 
ATOM     10  C   UNL     1       6.678   6.113  17.093  0.00  0.00    +0.000 A 
ATOM     11  C   UNL     1       6.659   5.385  18.276  0.00  0.00    +0.000 A 
ATOM     12 CL   UNL     1       7.828   5.713  19.498  0.00  0.00    +0.000 Cl
ATOM     13  C   UNL     1       5.695   4.394  18.491  0.00  0.00    +0.000 A 
ENDBRANCH   6   7
BRANCH   1  16
ATOM     14  O   UNL     1       3.008   5.062  20.151  0.00  0.00    +0.000 OA
ATOM     15  C   UNL     1       2.384   5.521  19.199  0.00  0.00    +0.000 C 
ATOM     16  N   UNL     1       1.852   4.740  18.192  0.00  0.00    +0.000 N 
ATOM     17  H   UNL     1       1.564   5.186  17.320  0.00  0.00    +0.000 HD
BRANCH  15  18
ATOM     18  C   UNL     1       2.127   6.987  19.108  0.00  0.00    +0.000 A 
ATOM     19  C   UNL     1       2.341   7.590  17.857  0.00  0.00    +0.000 A 
ATOM     20  C   UNL     1       2.111   8.954  17.671  0.00  0.00    +0.000 A 
ATOM     21  C   UNL     1       1.656   9.733  18.734  0.00  0.00    +0.000 A 
ATOM     22  C   UNL     1       1.442   9.153  19.985  0.00  0.00    +0.000 A 
ATOM     23  C   UNL     1       1.680   7.788  20.174  0.00  0.00    +0.000 A 
BRANCH  23  24
ATOM     24  O   UNL     1       1.473   7.241  21.411  0.00  0.00    +0.000 OA
ATOM     25  H   UNL     1       0.533   7.339  21.646  0.00  0.00    +0.000 HD
ENDBRANCH  23  24
ENDBRANCH  15  18
ENDBRANCH   1  16
TORSDOF 4
ENDMDL
MODEL 6
REMARK VINA RESULT:      -6.9      8.987     12.035
REMARK  Name = 
REMARK  4 active torsions:
REMARK  status: ('A' for Active; 'I' for Inactive)
REMARK    1  A    between atoms: C_2  and  C_17
REMARK    2  A    between atoms: N_3  and  N_4
REMARK    3  A    between atoms: C_9  and  C_10
REMARK    4  A    between atoms: C_22  and  O_23
REMARK                            x       y       z     vdW  Elec       q    Type
REMARK                         _______ _______ _______ _____ _____    ______ ____
ROOT
ATOM      1  N   UNL     1      -2.422  13.600  22.311  0.00  0.00    +0.000 N 
ATOM      2  C   UNL     1      -1.706  14.683  21.874  0.00  0.00    +0.000 C 
ATOM      3  O   UNL     1      -2.015  15.573  21.113  0.00  0.00    +0.000 OA
ATOM      4  C   UNL     1      -0.431  14.209  22.609  0.00  0.00    +0.000 C 
ATOM      5 CL   UNL     1       1.056  14.208  21.600  0.00  0.00    +0.000 Cl
ATOM      6  C   UNL     1      -1.235  12.898  22.880  0.00  0.00    +0.000 C 
ENDROOT
BRANCH   6   7
ATOM      7  C   UNL     1      -0.756  11.485  22.299  0.00  0.00    +0.000 A 
ATOM      8  C   UNL     1      -0.734  10.340  23.131  0.00  0.00    +0.000 A 
ATOM      9  C   UNL     1      -0.344   9.077  22.670  0.00  0.00    +0.000 A 
ATOM     10  C   UNL     1       0.043   8.917  21.345  0.00  0.00    +0.000 A 
ATOM     11  C   UNL     1       0.045  10.019  20.499  0.00  0.00    +0.000 A 
ATOM     12 CL   UNL     1       0.519   9.831  18.854  0.00  0.00    +0.000 Cl
ATOM     13  C   UNL     1      -0.343  11.280  20.966  0.00  0.00    +0.000 A 
ENDBRANCH   6   7
BRANCH   1  16
ATOM     14  O   UNL     1      -5.096  13.140  22.683  0.00  0.00    +0.000 OA
ATOM     15  C   UNL     1      -4.572  12.821  21.620  0.00  0.00    +0.000 C 
ATOM     16  N   UNL     1      -3.216  12.932  21.379  0.00  0.00    +0.000 N 
ATOM     17  H   UNL     1      -2.881  12.885  20.416  0.00  0.00    +0.000 HD
BRANCH  15  18
ATOM     18  C   UNL     1      -5.396  12.239  20.522  0.00  0.00    +0.000 A 
ATOM     19  C   UNL     1      -4.861  12.309  19.225  0.00  0.00    +0.000 A 
ATOM     20  C   UNL     1      -5.553  11.777  18.135  0.00  0.00    +0.000 A 
ATOM     21  C   UNL     1      -6.788  11.160  18.331  0.00  0.00    +0.000 A 
ATOM     22  C   UNL     1      -7.338  11.086  19.612  0.00  0.00    +0.000 A 
ATOM     23  C   UNL     1      -6.649  11.626  20.702  0.00  0.00    +0.000 A 
BRANCH  23  24
ATOM     24  O   UNL     1      -7.211  11.551  21.947  0.00  0.00    +0.000 OA
ATOM     25  H   UNL     1      -6.736  10.879  22.468  0.00  0.00    +0.000 HD
ENDBRANCH  23  24
ENDBRANCH  15  18
ENDBRANCH   1  16
TORSDOF 4
ENDMDL
MODEL 7
REMARK VINA RESULT:      -6.9      0.862      1.451
REMARK  Name = 
REMARK  4 active torsions:
REMARK  status: ('A' for Active; 'I' for Inactive)
REMARK    1  A    between atoms: C_2  and  C_17
REMARK    2  A    between atoms: N_3  and  N_4
REMARK    3  A    between atoms: C_9  and  C_10
REMARK    4  A    between atoms: C_22  and  O_23
REMARK                            x       y       z     vdW  Elec       q    Type
REMARK                         _______ _______ _______ _____ _____    ______ ____
ROOT
ATOM      1  N   UNL     1       4.011   3.938  19.592  0.00  0.00    +0.000 N 
ATOM      2  C   UNL     1       3.047   2.978  19.743  0.00  0.00    +0.000 C 
ATOM      3  O   UNL     1       2.910   1.909  19.188  0.00  0.00    +0.000 OA
ATOM      4  C   UNL     1       2.244   3.856  20.729  0.00  0.00    +0.000 C 
ATOM      5 CL   UNL     1       0.492   3.989  20.354  0.00  0.00    +0.000 Cl
ATOM      6  C   UNL     1       3.251   4.984  20.337  0.00  0.00    +0.000 C 
ENDROOT
BRANCH   6   7
ATOM      7  C   UNL     1       2.766   6.326  19.611  0.00  0.00    +0.000 A 
ATOM      8  C   UNL     1       3.079   6.556  18.250  0.00  0.00    +0.000 A 
ATOM      9  C   UNL     1       2.664   7.701  17.560  0.00  0.00    +0.000 A 
ATOM     10  C   UNL     1       1.912   8.666  18.219  0.00  0.00    +0.000 A 
ATOM     11  C   UNL     1       1.592   8.482  19.558  0.00  0.00    +0.000 A 
ATOM     12 CL   UNL     1       0.657   9.670  20.383  0.00  0.00    +0.000 Cl
ATOM     13  C   UNL     1       2.013   7.337  20.243  0.00  0.00    +0.000 A 
ENDBRANCH   6   7
BRANCH   1  16
ATOM     14  O   UNL     1       6.615   4.535  18.987  0.00  0.00    +0.000 OA
ATOM     15  C   UNL     1       5.795   4.428  18.080  0.00  0.00    +0.000 C 
ATOM     16  N   UNL     1       4.447   4.219  18.296  0.00  0.00    +0.000 N 
ATOM     17  H   UNL     1       3.866   3.898  17.520  0.00  0.00    +0.000 HD
BRANCH  15  18
ATOM     18  C   UNL     1       6.226   4.565  16.659  0.00  0.00    +0.000 A 
ATOM     19  C   UNL     1       6.970   5.711  16.332  0.00  0.00    +0.000 A 
ATOM     20  C   UNL     1       7.431   5.917  15.030  0.00  0.00    +0.000 A 
ATOM     21  C   UNL     1       7.160   4.975  14.040  0.00  0.00    +0.000 A 
ATOM     22  C   UNL     1       6.418   3.833  14.345  0.00  0.00    +0.000 A 
ATOM     23  C   UNL     1       5.948   3.629  15.646  0.00  0.00    +0.000 A 
BRANCH  23  24
ATOM     24  O   UNL     1       5.215   2.508  15.921  0.00  0.00    +0.000 OA
ATOM     25  H   UNL     1       4.393   2.771  16.372  0.00  0.00    +0.000 HD
ENDBRANCH  23  24
ENDBRANCH  15  18
ENDBRANCH   1  16
TORSDOF 4
ENDMDL
MODEL 8
REMARK VINA RESULT:      -6.9      6.189      8.522
REMARK  Name = 
REMARK  4 active torsions:
REMARK  status: ('A' for Active; 'I' for Inactive)
REMARK    1  A    between atoms: C_2  and  C_17
REMARK    2  A    between atoms: N_3  and  N_4
REMARK    3  A    between atoms: C_9  and  C_10
REMARK    4  A    between atoms: C_22  and  O_23
REMARK                            x       y       z     vdW  Elec       q    Type
REMARK                         _______ _______ _______ _____ _____    ______ ____
ROOT
ATOM      1  N   UNL     1      -0.758  12.155  21.088  0.00  0.00    +0.000 N 
ATOM      2  C   UNL     1      -1.428  12.178  22.282  0.00  0.00    +0.000 C 
ATOM      3  O   UNL     1      -1.221  11.571  23.310  0.00  0.00    +0.000 OA
ATOM      4  C   UNL     1      -2.517  13.119  21.719  0.00  0.00    +0.000 C 
ATOM      5 CL   UNL     1      -4.203  12.590  22.043  0.00  0.00    +0.000 Cl
ATOM      6  C   UNL     1      -1.833  12.868  20.338  0.00  0.00    +0.000 C 
ENDROOT
BRANCH   6   7
ATOM      7  C   UNL     1      -2.612  12.154  19.135  0.00  0.00    +0.000 A 
ATOM      8  C   UNL     1      -1.911  11.740  17.976  0.00  0.00    +0.000 A 
ATOM      9  C   UNL     1      -2.537  11.093  16.904  0.00  0.00    +0.000 A 
ATOM     10  C   UNL     1      -3.903  10.838  16.956  0.00  0.00    +0.000 A 
ATOM     11  C   UNL     1      -4.627  11.238  18.072  0.00  0.00    +0.000 A 
ATOM     12 CL   UNL     1      -6.318  10.923  18.149  0.00  0.00    +0.000 Cl
ATOM     13  C   UNL     1      -3.996  11.887  19.139  0.00  0.00    +0.000 A 
ENDBRANCH   6   7
BRANCH   1  16
ATOM     14  O   UNL     1       1.506  11.851  19.576  0.00  0.00    +0.000 OA
ATOM     15  C   UNL     1       0.881  10.856  19.932  0.00  0.00    +0.000 C 
ATOM     16  N   UNL     1      -0.317  10.918  20.618  0.00  0.00    +0.000 N 
ATOM     17  H   UNL     1      -0.657  10.081  21.092  0.00  0.00    +0.000 HD
BRANCH  15  18
ATOM     18  C   UNL     1       1.383   9.494  19.592  0.00  0.00    +0.000 A 
ATOM     19  C   UNL     1       1.353   8.535  20.618  0.00  0.00    +0.000 A 
ATOM     20  C   UNL     1       1.786   7.228  20.389  0.00  0.00    +0.000 A 
ATOM     21  C   UNL     1       2.249   6.861  19.126  0.00  0.00    +0.000 A 
ATOM     22  C   UNL     1       2.290   7.801  18.096  0.00  0.00    +0.000 A 
ATOM     23  C   UNL     1       1.864   9.113  18.327  0.00  0.00    +0.000 A 
BRANCH  23  24
ATOM     24  O   UNL     1       1.922  10.021  17.305  0.00  0.00    +0.000 OA
ATOM     25  H   UNL     1       1.086   9.990  16.807  0.00  0.00    +0.000 HD
ENDBRANCH  23  24
ENDBRANCH  15  18
ENDBRANCH   1  16
TORSDOF 4
ENDMDL
MODEL 9
REMARK VINA RESULT:      -6.8      7.364      9.877
REMARK  Name = 
REMARK  4 active torsions:
REMARK  status: ('A' for Active; 'I' for Inactive)
REMARK    1  A    between atoms: C_2  and  C_17
REMARK    2  A    between atoms: N_3  and  N_4
REMARK    3  A    between atoms: C_9  and  C_10
REMARK    4  A    between atoms: C_22  and  O_23
REMARK                            x       y       z     vdW  Elec       q    Type
REMARK                         _______ _______ _______ _____ _____    ______ ____
ROOT
ATOM      1  N   UNL     1      -0.804  13.124  20.016  0.00  0.00    +0.000 N 
ATOM      2  C   UNL     1       0.121  14.118  19.833  0.00  0.00    +0.000 C 
ATOM      3  O   UNL     1       0.222  14.942  18.951  0.00  0.00    +0.000 OA
ATOM      4  C   UNL     1       0.948  13.654  21.053  0.00  0.00    +0.000 C 
ATOM      5 CL   UNL     1       2.707  13.473  20.739  0.00  0.00    +0.000 Cl
ATOM      6  C   UNL     1      -0.010  12.421  21.067  0.00  0.00    +0.000 C 
ENDROOT
BRANCH   6   7
ATOM      7  C   UNL     1       0.534  10.934  20.831  0.00  0.00    +0.000 A 
ATOM      8  C   UNL     1       0.624  10.026  21.914  0.00  0.00    +0.000 A 
ATOM      9  C   UNL     1       1.072   8.709  21.762  0.00  0.00    +0.000 A 
ATOM     10  C   UNL     1       1.451   8.251  20.505  0.00  0.00    +0.000 A 
ATOM     11  C   UNL     1       1.386   9.115  19.419  0.00  0.00    +0.000 A 
ATOM     12 CL   UNL     1       1.850   8.557  17.857  0.00  0.00    +0.000 Cl
ATOM     13  C   UNL     1       0.940  10.432  19.578  0.00  0.00    +0.000 A 
ENDBRANCH   6   7
BRANCH   1  16
ATOM     14  O   UNL     1      -3.302  12.030  19.774  0.00  0.00    +0.000 OA
ATOM     15  C   UNL     1      -2.522  11.965  18.829  0.00  0.00    +0.000 C 
ATOM     16  N   UNL     1      -1.215  12.408  18.892  0.00  0.00    +0.000 N 
ATOM     17  H   UNL     1      -0.700  12.553  18.023  0.00  0.00    +0.000 HD
BRANCH  15  18
ATOM     18  C   UNL     1      -2.952  11.346  17.542  0.00  0.00    +0.000 A 
ATOM     19  C   UNL     1      -2.065  10.429  16.954  0.00  0.00    +0.000 A 
ATOM     20  C   UNL     1      -2.389   9.787  15.758  0.00  0.00    +0.000 A 
ATOM     21  C   UNL     1      -3.609  10.049  15.137  0.00  0.00    +0.000 A 
ATOM     22  C   UNL     1      -4.500  10.961  15.703  0.00  0.00    +0.000 A 
ATOM     23  C   UNL     1      -4.173  11.611  16.897  0.00  0.00    +0.000 A 
BRANCH  23  24
ATOM     24  O   UNL     1      -5.058  12.509  17.430  0.00  0.00    +0.000 OA
ATOM     25  H   UNL     1      -4.935  12.538  18.395  0.00  0.00    +0.000 HD
ENDBRANCH  23  24
ENDBRANCH  15  18
ENDBRANCH   1  16
TORSDOF 4
ENDMDL
