MODEL 1
REMARK VINA RESULT:      -8.2      0.000      0.000
REMARK  Name = 
REMARK  3 active torsions:
REMARK  status: ('A' for Active; 'I' for Inactive)
REMARK    1  A    between atoms: C_1  and  C_2
REMARK    2  A    between atoms: C_4  and  S_5
REMARK    3  A    between atoms: S_5  and  C_8
REMARK                            x       y       z     vdW  Elec       q    Type
REMARK                         _______ _______ _______ _____ _____    ______ ____
ROOT
ATOM      1  C   UNL     1       4.710   4.116  17.017  0.00  0.00    +0.000 A 
ATOM      2  C   UNL     1       5.746   4.815  17.629  0.00  0.00    +0.000 A 
ATOM      3  C   UNL     1       6.814   5.272  16.847  0.00  0.00    +0.000 A 
ATOM      4  C   UNL     1       6.883   5.040  15.475  0.00  0.00    +0.000 A 
ATOM      5  N   UNL     1       7.917   5.529  14.781  0.00  0.00    +0.000 NA
ATOM      6  C   UNL     1       7.930   5.316  13.463  0.00  0.00    +0.000 A 
ATOM      7  N   UNL     1       8.951   5.894  12.740  0.00  0.00    +0.000 N 
ATOM      8  N   UNL     1       7.029   4.598  12.793  0.00  0.00    +0.000 NA
ATOM      9  C   UNL     1       5.998   4.113  13.497  0.00  0.00    +0.000 A 
ATOM     10  N   UNL     1       5.012   3.466  12.743  0.00  0.00    +0.000 N 
ATOM     11  C   UNL     1       5.850   4.314  14.873  0.00  0.00    +0.000 A 
ATOM     12  C   UNL     1       4.758   3.853  15.649  0.00  0.00    +0.000 A 
ATOM     13  H   UNL     1       9.741   6.116  13.327  0.00  0.00    +0.000 HD
ATOM     14  H   UNL     1       9.114   5.405  11.874  0.00  0.00    +0.000 HD
ATOM     15  H   UNL     1       5.360   3.372  11.792  0.00  0.00    +0.000 HD
ATOM     16  H   UNL     1       4.716   2.582  13.135  0.00  0.00    +0.000 HD
ENDROOT
BRANCH   1  17
ATOM     17  S   UNL     1       3.340   3.522  17.985  0.00  0.00    +0.000 S 
ATOM     18  O   UNL     1       3.913   2.617  18.967  0.00  0.00    +0.000 OA
ATOM     19  O   UNL     1       2.318   3.062  17.068  0.00  0.00    +0.000 OA
BRANCH  17  23
ATOM     20  C   UNL     1       2.042   8.619  18.300  0.00  0.00    +0.000 C 
ATOM     21  C   UNL     1       2.078   7.272  18.967  0.00  0.00    +0.000 A 
ATOM     22  C   UNL     1       2.565   6.163  18.250  0.00  0.00    +0.000 A 
ATOM     23  C   UNL     1       2.641   4.905  18.861  0.00  0.00    +0.000 A 
ATOM     24  C   UNL     1       2.232   4.727  20.183  0.00  0.00    +0.000 A 
ATOM     25  C   UNL     1       1.734   5.818  20.896  0.00  0.00    +0.000 A 
ATOM     26  C   UNL     1       1.658   7.081  20.295  0.00  0.00    +0.000 A 
ATOM     27 BR   UNL     1       0.981   8.509  21.349  0.00  0.00    +0.000 Br
ENDBRANCH  17  23
ENDBRANCH   1  17
TORSDOF 2
ENDMDL
MODEL 2
REMARK VINA RESULT:      -8.1      4.937      7.365
REMARK  Name = 
REMARK  3 active torsions:
REMARK  status: ('A' for Active; 'I' for Inactive)
REMARK    1  A    between atoms: C_1  and  C_2
REMARK    2  A    between atoms: C_4  and  S_5
REMARK    3  A    between atoms: S_5  and  C_8
REMARK                            x       y       z     vdW  Elec       q    Type
REMARK                         _______ _______ _______ _____ _____    ______ ____
ROOT
ATOM      1  C   UNL     1       5.232   5.415  18.279  0.00  0.00    +0.000 A 
ATOM      2  C   UNL     1       4.126   6.242  18.446  0.00  0.00    +0.000 A 
ATOM      3  C   UNL     1       3.070   5.811  19.259  0.00  0.00    +0.000 A 
ATOM      4  C   UNL     1       3.082   4.573  19.898  0.00  0.00    +0.000 A 
ATOM      5  N   UNL     1       2.053   4.234  20.684  0.00  0.00    +0.000 NA
ATOM      6  C   UNL     1       2.117   3.055  21.307  0.00  0.00    +0.000 A 
ATOM      7  N   UNL     1       1.097   2.747  22.181  0.00  0.00    +0.000 N 
ATOM      8  N   UNL     1       3.092   2.159  21.156  0.00  0.00    +0.000 NA
ATOM      9  C   UNL     1       4.117   2.508  20.368  0.00  0.00    +0.000 A 
ATOM     10  N   UNL     1       5.177   1.595  20.327  0.00  0.00    +0.000 N 
ATOM     11  C   UNL     1       4.186   3.737  19.703  0.00  0.00    +0.000 A 
ATOM     12  C   UNL     1       5.266   4.162  18.892  0.00  0.00    +0.000 A 
ATOM     13  H   UNL     1       0.267   3.287  21.988  0.00  0.00    +0.000 HD
ATOM     14  H   UNL     1       1.007   1.750  22.308  0.00  0.00    +0.000 HD
ATOM     15  H   UNL     1       4.881   0.753  20.816  0.00  0.00    +0.000 HD
ATOM     16  H   UNL     1       5.509   1.401  19.391  0.00  0.00    +0.000 HD
ENDROOT
BRANCH   1  17
ATOM     17  S   UNL     1       6.588   5.935  17.252  0.00  0.00    +0.000 S 
ATOM     18  O   UNL     1       7.793   5.479  17.926  0.00  0.00    +0.000 OA
ATOM     19  O   UNL     1       6.400   7.339  16.950  0.00  0.00    +0.000 OA
BRANCH  17  23
ATOM     20  C   UNL     1       7.930   5.306  12.196  0.00  0.00    +0.000 C 
ATOM     21  C   UNL     1       7.108   4.832  13.363  0.00  0.00    +0.000 A 
ATOM     22  C   UNL     1       7.252   5.470  14.608  0.00  0.00    +0.000 A 
ATOM     23  C   UNL     1       6.472   5.070  15.701  0.00  0.00    +0.000 A 
ATOM     24  C   UNL     1       5.546   4.033  15.576  0.00  0.00    +0.000 A 
ATOM     25  C   UNL     1       5.409   3.385  14.349  0.00  0.00    +0.000 A 
ATOM     26  C   UNL     1       6.181   3.781  13.249  0.00  0.00    +0.000 A 
ATOM     27 BR   UNL     1       5.912   2.851  11.614  0.00  0.00    +0.000 Br
ENDBRANCH  17  23
ENDBRANCH   1  17
TORSDOF 2
ENDMDL
MODEL 3
REMARK VINA RESULT:      -7.7      5.233      6.972
REMARK  Name = 
REMARK  3 active torsions:
REMARK  status: ('A' for Active; 'I' for Inactive)
REMARK    1  A    between atoms: C_1  and  C_2
REMARK    2  A    between atoms: C_4  and  S_5
REMARK    3  A    between atoms: S_5  and  C_8
REMARK                            x       y       z     vdW  Elec       q    Type
REMARK                         _______ _______ _______ _____ _____    ______ ____
ROOT
ATOM      1  C   UNL     1       1.456   9.144  19.446  0.00  0.00    +0.000 A 
ATOM      2  C   UNL     1       1.941   9.359  18.160  0.00  0.00    +0.000 A 
ATOM      3  C   UNL     1       2.647   8.333  17.518  0.00  0.00    +0.000 A 
ATOM      4  C   UNL     1       2.893   7.106  18.130  0.00  0.00    +0.000 A 
ATOM      5  N   UNL     1       3.549   6.158  17.451  0.00  0.00    +0.000 NA
ATOM      6  C   UNL     1       3.735   4.983  18.056  0.00  0.00    +0.000 A 
ATOM      7  N   UNL     1       4.335   3.982  17.323  0.00  0.00    +0.000 N 
ATOM      8  N   UNL     1       3.377   4.701  19.309  0.00  0.00    +0.000 NA
ATOM      9  C   UNL     1       2.721   5.656  19.981  0.00  0.00    +0.000 A 
ATOM     10  N   UNL     1       2.258   5.284  21.247  0.00  0.00    +0.000 N 
ATOM     11  C   UNL     1       2.424   6.908  19.432  0.00  0.00    +0.000 A 
ATOM     12  C   UNL     1       1.700   7.932  20.091  0.00  0.00    +0.000 A 
ATOM     13  H   UNL     1       4.863   4.355  16.549  0.00  0.00    +0.000 HD
ATOM     14  H   UNL     1       4.772   3.296  17.920  0.00  0.00    +0.000 HD
ATOM     15  H   UNL     1       2.649   4.371  21.466  0.00  0.00    +0.000 HD
ATOM     16  H   UNL     1       2.451   5.969  21.967  0.00  0.00    +0.000 HD
ENDROOT
BRANCH   1  17
ATOM     17  S   UNL     1       0.556  10.428  20.286  0.00  0.00    +0.000 S 
ATOM     18  O   UNL     1       1.380  11.621  20.183  0.00  0.00    +0.000 OA
ATOM     19  O   UNL     1       0.163   9.916  21.583  0.00  0.00    +0.000 OA
BRANCH  17  23
ATOM     20  C   UNL     1      -2.568   9.667  16.112  0.00  0.00    +0.000 C 
ATOM     21  C   UNL     1      -2.351  10.360  17.429  0.00  0.00    +0.000 A 
ATOM     22  C   UNL     1      -1.193  10.070  18.175  0.00  0.00    +0.000 A 
ATOM     23  C   UNL     1      -0.951  10.727  19.388  0.00  0.00    +0.000 A 
ATOM     24  C   UNL     1      -1.852  11.673  19.880  0.00  0.00    +0.000 A 
ATOM     25  C   UNL     1      -3.009  11.954  19.155  0.00  0.00    +0.000 A 
ATOM     26  C   UNL     1      -3.258  11.305  17.938  0.00  0.00    +0.000 A 
ATOM     27 BR   UNL     1      -4.852  11.766  17.014  0.00  0.00    +0.000 Br
ENDBRANCH  17  23
ENDBRANCH   1  17
TORSDOF 2
ENDMDL
MODEL 4
REMARK VINA RESULT:      -7.6      5.371      7.834
REMARK  Name = 
REMARK  3 active torsions:
REMARK  status: ('A' for Active; 'I' for Inactive)
REMARK    1  A    between atoms: C_1  and  C_2
REMARK    2  A    between atoms: C_4  and  S_5
REMARK    3  A    between atoms: S_5  and  C_8
REMARK                            x       y       z     vdW  Elec       q    Type
REMARK                         _______ _______ _______ _____ _____    ______ ____
ROOT
ATOM      1  C   UNL     1       2.116   7.126  19.201  0.00  0.00    +0.000 A 
ATOM      2  C   UNL     1       2.094   7.841  18.007  0.00  0.00    +0.000 A 
ATOM      3  C   UNL     1       1.688   9.182  18.024  0.00  0.00    +0.000 A 
ATOM      4  C   UNL     1       1.291   9.823  19.196  0.00  0.00    +0.000 A 
ATOM      5  N   UNL     1       0.941  11.113  19.148  0.00  0.00    +0.000 NA
ATOM      6  C   UNL     1       0.601  11.703  20.296  0.00  0.00    +0.000 A 
ATOM      7  N   UNL     1       0.325  13.052  20.256  0.00  0.00    +0.000 N 
ATOM      8  N   UNL     1       0.516  11.090  21.477  0.00  0.00    +0.000 NA
ATOM      9  C   UNL     1       0.868   9.798  21.515  0.00  0.00    +0.000 A 
ATOM     10  N   UNL     1       0.882   9.220  22.789  0.00  0.00    +0.000 N 
ATOM     11  C   UNL     1       1.291   9.089  20.386  0.00  0.00    +0.000 A 
ATOM     12  C   UNL     1       1.708   7.735  20.387  0.00  0.00    +0.000 A 
ATOM     13  H   UNL     1       0.082  13.353  19.325  0.00  0.00    +0.000 HD
ATOM     14  H   UNL     1      -0.266  13.332  21.024  0.00  0.00    +0.000 HD
ATOM     15  H   UNL     1       0.472   9.888  23.438  0.00  0.00    +0.000 HD
ATOM     16  H   UNL     1       0.430   8.316  22.829  0.00  0.00    +0.000 HD
ENDROOT
BRANCH   1  17
ATOM     17  S   UNL     1       2.627   5.422  19.210  0.00  0.00    +0.000 S 
ATOM     18  O   UNL     1       1.484   4.664  18.731  0.00  0.00    +0.000 OA
ATOM     19  O   UNL     1       3.205   5.142  20.508  0.00  0.00    +0.000 OA
BRANCH  17  23
ATOM     20  C   UNL     1       7.293   6.838  17.214  0.00  0.00    +0.000 C 
ATOM     21  C   UNL     1       6.093   5.936  17.127  0.00  0.00    +0.000 A 
ATOM     22  C   UNL     1       5.086   6.037  18.104  0.00  0.00    +0.000 A 
ATOM     23  C   UNL     1       3.942   5.232  18.026  0.00  0.00    +0.000 A 
ATOM     24  C   UNL     1       3.783   4.316  16.985  0.00  0.00    +0.000 A 
ATOM     25  C   UNL     1       4.784   4.200  16.020  0.00  0.00    +0.000 A 
ATOM     26  C   UNL     1       5.930   5.003  16.088  0.00  0.00    +0.000 A 
ATOM     27 BR   UNL     1       7.231   4.784  14.721  0.00  0.00    +0.000 Br
ENDBRANCH  17  23
ENDBRANCH   1  17
TORSDOF 2
ENDMDL
MODEL 5
REMARK VINA RESULT:      -7.4      5.218      7.189
REMARK  Name = 
REMARK  3 active torsions:
REMARK  status: ('A' for Active; 'I' for Inactive)
REMARK    1  A    between atoms: C_1  and  C_2
REMARK    2  A    between atoms: C_4  and  S_5
REMARK    3  A    between atoms: S_5  and  C_8
REMARK                            x       y       z     vdW  Elec       q    Type
REMARK                         _______ _______ _______ _____ _____    ______ ____
ROOT
ATOM      1  C   UNL     1       1.455   8.947  19.638  0.00  0.00    +0.000 A 
ATOM      2  C   UNL     1       0.874   8.423  20.788  0.00  0.00    +0.000 A 
ATOM      3  C   UNL     1       1.123   7.088  21.129  0.00  0.00    +0.000 A 
ATOM      4  C   UNL     1       1.924   6.258  20.346  0.00  0.00    +0.000 A 
ATOM      5  N   UNL     1       2.144   5.000  20.743  0.00  0.00    +0.000 NA
ATOM      6  C   UNL     1       2.946   4.246  19.987  0.00  0.00    +0.000 A 
ATOM      7  N   UNL     1       3.239   2.980  20.444  0.00  0.00    +0.000 N 
ATOM      8  N   UNL     1       3.490   4.627  18.831  0.00  0.00    +0.000 NA
ATOM      9  C   UNL     1       3.263   5.889  18.442  0.00  0.00    +0.000 A 
ATOM     10  N   UNL     1       3.945   6.289  17.288  0.00  0.00    +0.000 N 
ATOM     11  C   UNL     1       2.483   6.786  19.178  0.00  0.00    +0.000 A 
ATOM     12  C   UNL     1       2.248   8.138  18.825  0.00  0.00    +0.000 A 
ATOM     13  H   UNL     1       2.551   2.657  21.107  0.00  0.00    +0.000 HD
ATOM     14  H   UNL     1       3.508   2.367  19.689  0.00  0.00    +0.000 HD
ATOM     15  H   UNL     1       4.385   5.466  16.885  0.00  0.00    +0.000 HD
ATOM     16  H   UNL     1       3.363   6.781  16.622  0.00  0.00    +0.000 HD
ENDROOT
BRANCH   1  17
ATOM     17  S   UNL     1       1.157  10.640  19.179  0.00  0.00    +0.000 S 
ATOM     18  O   UNL     1       1.975  10.882  18.003  0.00  0.00    +0.000 OA
ATOM     19  O   UNL     1       1.317  11.454  20.367  0.00  0.00    +0.000 OA
BRANCH  17  23
ATOM     20  C   UNL     1      -2.805   9.689  15.838  0.00  0.00    +0.000 C 
ATOM     21  C   UNL     1      -2.344  10.342  17.113  0.00  0.00    +0.000 A 
ATOM     22  C   UNL     1      -1.012  10.164  17.532  0.00  0.00    +0.000 A 
ATOM     23  C   UNL     1      -0.549  10.790  18.697  0.00  0.00    +0.000 A 
ATOM     24  C   UNL     1      -1.397  11.594  19.461  0.00  0.00    +0.000 A 
ATOM     25  C   UNL     1      -2.722  11.762  19.060  0.00  0.00    +0.000 A 
ATOM     26  C   UNL     1      -3.193  11.144  17.894  0.00  0.00    +0.000 A 
ATOM     27 BR   UNL     1      -5.008  11.445  17.420  0.00  0.00    +0.000 Br
ENDBRANCH  17  23
ENDBRANCH   1  17
TORSDOF 2
ENDMDL
MODEL 6
REMARK VINA RESULT:      -7.4      5.610      8.078
REMARK  Name = 
REMARK  3 active torsions:
REMARK  status: ('A' for Active; 'I' for Inactive)
REMARK    1  A    between atoms: C_1  and  C_2
REMARK    2  A    between atoms: C_4  and  S_5
REMARK    3  A    between atoms: S_5  and  C_8
REMARK                            x       y       z     vdW  Elec       q    Type
REMARK                         _______ _______ _______ _____ _____    ______ ____
ROOT
ATOM      1  C   UNL     1       1.781   6.993  19.961  0.00  0.00    +0.000 A 
ATOM      2  C   UNL     1       2.054   7.726  18.810  0.00  0.00    +0.000 A 
ATOM      3  C   UNL     1       1.697   9.079  18.764  0.00  0.00    +0.000 A 
ATOM      4  C   UNL     1       1.063   9.717  19.828  0.00  0.00    +0.000 A 
ATOM      5  N   UNL     1       0.773  11.019  19.731  0.00  0.00    +0.000 NA
ATOM      6  C   UNL     1       0.198  11.604  20.784  0.00  0.00    +0.000 A 
ATOM      7  N   UNL     1      -0.020  12.962  20.712  0.00  0.00    +0.000 N 
ATOM      8  N   UNL     1      -0.173  10.977  21.901  0.00  0.00    +0.000 NA
ATOM      9  C   UNL     1       0.121   9.673  21.989  0.00  0.00    +0.000 A 
ATOM     10  N   UNL     1      -0.176   9.076  23.219  0.00  0.00    +0.000 N 
ATOM     11  C   UNL     1       0.768   8.966  20.971  0.00  0.00    +0.000 A 
ATOM     12  C   UNL     1       1.131   7.598  21.036  0.00  0.00    +0.000 A 
ATOM     13  H   UNL     1      -0.034  13.286  19.757  0.00  0.00    +0.000 HD
ATOM     14  H   UNL     1      -0.762  13.252  21.332  0.00  0.00    +0.000 HD
ATOM     15  H   UNL     1      -0.702   9.749  23.772  0.00  0.00    +0.000 HD
ATOM     16  H   UNL     1      -0.653   8.188  23.135  0.00  0.00    +0.000 HD
ENDROOT
BRANCH   1  17
ATOM     17  S   UNL     1       2.223   5.272  20.048  0.00  0.00    +0.000 S 
ATOM     18  O   UNL     1       1.080   4.543  19.525  0.00  0.00    +0.000 OA
ATOM     19  O   UNL     1       2.714   5.010  21.386  0.00  0.00    +0.000 OA
BRANCH  17  23
ATOM     20  C   UNL     1       7.345   5.632  18.865  0.00  0.00    +0.000 C 
ATOM     21  C   UNL     1       5.967   5.204  18.438  0.00  0.00    +0.000 A 
ATOM     22  C   UNL     1       4.893   5.356  19.335  0.00  0.00    +0.000 A 
ATOM     23  C   UNL     1       3.595   4.996  18.949  0.00  0.00    +0.000 A 
ATOM     24  C   UNL     1       3.346   4.479  17.677  0.00  0.00    +0.000 A 
ATOM     25  C   UNL     1       4.407   4.312  16.788  0.00  0.00    +0.000 A 
ATOM     26  C   UNL     1       5.708   4.671  17.164  0.00  0.00    +0.000 A 
ATOM     27 BR   UNL     1       7.087   4.422  15.880  0.00  0.00    +0.000 Br
ENDBRANCH  17  23
ENDBRANCH   1  17
TORSDOF 2
ENDMDL
MODEL 7
REMARK VINA RESULT:      -7.4      7.780     10.365
REMARK  Name = 
REMARK  3 active torsions:
REMARK  status: ('A' for Active; 'I' for Inactive)
REMARK    1  A    between atoms: C_1  and  C_2
REMARK    2  A    between atoms: C_4  and  S_5
REMARK    3  A    between atoms: S_5  and  C_8
REMARK                            x       y       z     vdW  Elec       q    Type
REMARK                         _______ _______ _______ _____ _____    ______ ____
ROOT
ATOM      1  C   UNL     1      -0.812  10.866  18.839  0.00  0.00    +0.000 A 
ATOM      2  C   UNL     1      -1.197  10.018  17.805  0.00  0.00    +0.000 A 
ATOM      3  C   UNL     1      -2.516  10.070  17.338  0.00  0.00    +0.000 A 
ATOM      4  C   UNL     1      -3.464  10.934  17.883  0.00  0.00    +0.000 A 
ATOM      5  N   UNL     1      -4.700  10.954  17.372  0.00  0.00    +0.000 NA
ATOM      6  C   UNL     1      -5.571  11.820  17.897  0.00  0.00    +0.000 A 
ATOM      7  N   UNL     1      -6.815  11.897  17.311  0.00  0.00    +0.000 N 
ATOM      8  N   UNL     1      -5.325  12.619  18.935  0.00  0.00    +0.000 NA
ATOM      9  C   UNL     1      -4.085  12.592  19.439  0.00  0.00    +0.000 A 
ATOM     10  N   UNL     1      -3.830  13.528  20.448  0.00  0.00    +0.000 N 
ATOM     11  C   UNL     1      -3.075  11.764  18.939  0.00  0.00    +0.000 A 
ATOM     12  C   UNL     1      -1.741  11.730  19.417  0.00  0.00    +0.000 A 
ATOM     13  H   UNL     1      -7.031  11.063  16.788  0.00  0.00    +0.000 HD
ATOM     14  H   UNL     1      -7.505  12.257  17.954  0.00  0.00    +0.000 HD
ATOM     15  H   UNL     1      -4.715  13.963  20.699  0.00  0.00    +0.000 HD
ATOM     16  H   UNL     1      -3.350  13.140  21.250  0.00  0.00    +0.000 HD
ENDROOT
BRANCH   1  17
ATOM     17  S   UNL     1       0.857  10.823  19.453  0.00  0.00    +0.000 S 
ATOM     18  O   UNL     1       0.749  10.918  20.899  0.00  0.00    +0.000 OA
ATOM     19  O   UNL     1       1.628  11.796  18.706  0.00  0.00    +0.000 OA
BRANCH  17  23
ATOM     20  C   UNL     1       1.953   5.823  20.705  0.00  0.00    +0.000 C 
ATOM     21  C   UNL     1       2.052   6.933  19.694  0.00  0.00    +0.000 A 
ATOM     22  C   UNL     1       1.443   8.171  19.972  0.00  0.00    +0.000 A 
ATOM     23  C   UNL     1       1.550   9.231  19.062  0.00  0.00    +0.000 A 
ATOM     24  C   UNL     1       2.255   9.078  17.867  0.00  0.00    +0.000 A 
ATOM     25  C   UNL     1       2.849   7.850  17.578  0.00  0.00    +0.000 A 
ATOM     26  C   UNL     1       2.750   6.785  18.483  0.00  0.00    +0.000 A 
ATOM     27 BR   UNL     1       3.605   5.155  18.010  0.00  0.00    +0.000 Br
ENDBRANCH  17  23
ENDBRANCH   1  17
TORSDOF 2
ENDMDL
MODEL 8
REMARK VINA RESULT:      -7.4      5.022      7.610
REMARK  Name = 
REMARK  3 active torsions:
REMARK  status: ('A' for Active; 'I' for Inactive)
REMARK    1  A    between atoms: C_1  and  C_2
REMARK    2  A    between atoms: C_4  and  S_5
REMARK    3  A    between atoms: S_5  and  C_8
REMARK                            x       y       z     vdW  Elec       q    Type
REMARK                         _______ _______ _______ _____ _____    ______ ____
ROOT
ATOM      1  C   UNL     1       4.688   5.145  16.888  0.00  0.00    +0.000 A 
ATOM      2  C   UNL     1       4.656   3.757  16.800  0.00  0.00    +0.000 A 
ATOM      3  C   UNL     1       3.896   3.033  17.727  0.00  0.00    +0.000 A 
ATOM      4  C   UNL     1       3.177   3.656  18.746  0.00  0.00    +0.000 A 
ATOM      5  N   UNL     1       2.448   2.908  19.582  0.00  0.00    +0.000 NA
ATOM      6  C   UNL     1       1.745   3.543  20.523  0.00  0.00    +0.000 A 
ATOM      7  N   UNL     1       0.929   2.777  21.326  0.00  0.00    +0.000 N 
ATOM      8  N   UNL     1       1.766   4.858  20.739  0.00  0.00    +0.000 NA
ATOM      9  C   UNL     1       2.499   5.598  19.897  0.00  0.00    +0.000 A 
ATOM     10  N   UNL     1       2.403   6.982  20.080  0.00  0.00    +0.000 N 
ATOM     11  C   UNL     1       3.236   5.050  18.843  0.00  0.00    +0.000 A 
ATOM     12  C   UNL     1       3.994   5.797  17.907  0.00  0.00    +0.000 A 
ATOM     13  H   UNL     1       1.217   1.810  21.333  0.00  0.00    +0.000 HD
ATOM     14  H   UNL     1       0.743   3.232  22.207  0.00  0.00    +0.000 HD
ATOM     15  H   UNL     1       1.882   7.147  20.938  0.00  0.00    +0.000 HD
ATOM     16  H   UNL     1       3.297   7.455  20.075  0.00  0.00    +0.000 HD
ENDROOT
BRANCH   1  17
ATOM     17  S   UNL     1       5.646   6.091  15.725  0.00  0.00    +0.000 S 
ATOM     18  O   UNL     1       6.898   6.393  16.397  0.00  0.00    +0.000 OA
ATOM     19  O   UNL     1       4.803   7.157  15.223  0.00  0.00    +0.000 OA
BRANCH  17  23
ATOM     20  C   UNL     1       4.131   3.070  11.682  0.00  0.00    +0.000 C 
ATOM     21  C   UNL     1       5.265   3.643  12.488  0.00  0.00    +0.000 A 
ATOM     22  C   UNL     1       4.978   4.526  13.545  0.00  0.00    +0.000 A 
ATOM     23  C   UNL     1       6.014   5.046  14.332  0.00  0.00    +0.000 A 
ATOM     24  C   UNL     1       7.343   4.703  14.080  0.00  0.00    +0.000 A 
ATOM     25  C   UNL     1       7.637   3.840  13.024  0.00  0.00    +0.000 A 
ATOM     26  C   UNL     1       6.607   3.312  12.234  0.00  0.00    +0.000 A 
ATOM     27 BR   UNL     1       7.103   2.133  10.829  0.00  0.00    +0.000 Br
ENDBRANCH  17  23
ENDBRANCH   1  17
TORSDOF 2
ENDMDL
MODEL 9
REMARK VINA RESULT:      -7.3      7.464     10.103
REMARK  Name = 
REMARK  3 active torsions:
REMARK  status: ('A' for Active; 'I' for Inactive)
REMARK    1  A    between atoms: C_1  and  C_2
REMARK    2  A    between atoms: C_4  and  S_5
REMARK    3  A    between atoms: S_5  and  C_8
REMARK                            x       y       z     vdW  Elec       q    Type
REMARK                         _______ _______ _______ _____ _____    ______ ____
ROOT
ATOM      1  C   UNL     1      -0.920  11.538  19.881  0.00  0.00    +0.000 A 
ATOM      2  C   UNL     1      -1.841  12.150  20.725  0.00  0.00    +0.000 A 
ATOM      3  C   UNL     1      -3.145  12.373  20.264  0.00  0.00    +0.000 A 
ATOM      4  C   UNL     1      -3.550  12.014  18.980  0.00  0.00    +0.000 A 
ATOM      5  N   UNL     1      -4.818  12.229  18.611  0.00  0.00    +0.000 NA
ATOM      6  C   UNL     1      -5.178  11.840  17.385  0.00  0.00    +0.000 A 
ATOM      7  N   UNL     1      -6.504  11.984  17.041  0.00  0.00    +0.000 N 
ATOM      8  N   UNL     1      -4.357  11.315  16.476  0.00  0.00    +0.000 NA
ATOM      9  C   UNL     1      -3.089  11.104  16.854  0.00  0.00    +0.000 A 
ATOM     10  N   UNL     1      -2.288  10.445  15.916  0.00  0.00    +0.000 N 
ATOM     11  C   UNL     1      -2.610  11.424  18.129  0.00  0.00    +0.000 A 
ATOM     12  C   UNL     1      -1.290  11.183  18.584  0.00  0.00    +0.000 A 
ATOM     13  H   UNL     1      -6.964  12.671  17.619  0.00  0.00    +0.000 HD
ATOM     14  H   UNL     1      -6.623  12.036  16.040  0.00  0.00    +0.000 HD
ATOM     15  H   UNL     1      -2.814  10.380  15.048  0.00  0.00    +0.000 HD
ATOM     16  H   UNL     1      -1.380  10.873  15.786  0.00  0.00    +0.000 HD
ENDROOT
BRANCH   1  17
ATOM     17  S   UNL     1       0.743  11.243  20.439  0.00  0.00    +0.000 S 
ATOM     18  O   UNL     1       0.650  11.053  21.877  0.00  0.00    +0.000 OA
ATOM     19  O   UNL     1       1.585  12.284  19.886  0.00  0.00    +0.000 OA
BRANCH  17  23
ATOM     20  C   UNL     1       1.848   6.103  20.792  0.00  0.00    +0.000 C 
ATOM     21  C   UNL     1       1.820   7.343  19.941  0.00  0.00    +0.000 A 
ATOM     22  C   UNL     1       1.309   8.537  20.484  0.00  0.00    +0.000 A 
ATOM     23  C   UNL     1       1.304   9.713  19.723  0.00  0.00    +0.000 A 
ATOM     24  C   UNL     1       1.797   9.721  18.417  0.00  0.00    +0.000 A 
ATOM     25  C   UNL     1       2.290   8.539  17.867  0.00  0.00    +0.000 A 
ATOM     26  C   UNL     1       2.304   7.358  18.621  0.00  0.00    +0.000 A 
ATOM     27 BR   UNL     1       3.009   5.802  17.792  0.00  0.00    +0.000 Br
ENDBRANCH  17  23
ENDBRANCH   1  17
TORSDOF 2
ENDMDL
