MODEL 1
REMARK VINA RESULT:      -7.9      0.000      0.000
REMARK  Name = 
REMARK  6 active torsions:
REMARK  status: ('A' for Active; 'I' for Inactive)
REMARK    1  A    between atoms: C_1  and  O_2
REMARK    2  A    between atoms: O_2  and  C_3
REMARK    3  A    between atoms: C_7  and  O_8
REMARK    4  A    between atoms: O_8  and  C_9
REMARK    5  A    between atoms: N_13  and  C_14
REMARK    6  A    between atoms: C_18  and  C_19
REMARK                            x       y       z     vdW  Elec       q    Type
REMARK                         _______ _______ _______ _____ _____    ______ ____
ROOT
ATOM      1  C   UNL     1      -0.230  12.983  19.408  0.00  0.00    +0.000 A 
ATOM      2  C   UNL     1       0.674  12.295  18.613  0.00  0.00    +0.000 A 
ATOM      3  C   UNL     1       1.090  11.008  18.966  0.00  0.00    +0.000 A 
ATOM      4  C   UNL     1       0.619  10.388  20.155  0.00  0.00    +0.000 A 
ATOM      5  C   UNL     1      -0.356  11.054  20.924  0.00  0.00    +0.000 A 
ATOM      6  C   UNL     1      -0.760  12.348  20.528  0.00  0.00    +0.000 A 
ATOM      7  C   UNL     1       1.277   9.085  20.506  0.00  0.00    +0.000 C 
ATOM      8  O   UNL     1       1.428   8.767  21.680  0.00  0.00    +0.000 OA
ATOM      9  N   UNL     1       1.731   8.300  19.431  0.00  0.00    +0.000 N 
ATOM     10  C   UNL     1       1.725   8.808  18.068  0.00  0.00    +0.000 C 
ATOM     11  C   UNL     1       2.078  10.289  18.084  0.00  0.00    +0.000 C 
ENDROOT
BRANCH   9  12
ATOM     12  C   UNL     1       2.266   7.006  19.646  0.00  0.00    +0.000 A 
ATOM     13  C   UNL     1       1.541   6.045  20.357  0.00  0.00    +0.000 A 
ATOM     14  C   UNL     1       2.108   4.797  20.620  0.00  0.00    +0.000 A 
ATOM     15  C   UNL     1       3.398   4.506  20.166  0.00  0.00    +0.000 A 
ATOM     16  C   UNL     1       4.121   5.459  19.437  0.00  0.00    +0.000 A 
ATOM     17  C   UNL     1       3.526   6.689  19.144  0.00  0.00    +0.000 A 
BRANCH  16  18
ATOM     18  C   UNL     1       5.463   5.093  18.906  0.00  0.00    +0.000 C 
ATOM     19  O   UNL     1       6.407   5.158  19.697  0.00  0.00    +0.000 OA
ATOM     20  N   UNL     1       5.621   4.675  17.583  0.00  0.00    +0.000 N 
ATOM     21  C   UNL     1       6.895   4.076  17.188  0.00  0.00    +0.000 C 
ATOM     22  C   UNL     1       7.524   4.834  16.024  0.00  0.00    +0.000 C 
ATOM     23  C   UNL     1       6.550   4.953  14.854  0.00  0.00    +0.000 C 
ATOM     24  C   UNL     1       5.239   5.579  15.311  0.00  0.00    +0.000 C 
ATOM     25  C   UNL     1       4.644   4.829  16.498  0.00  0.00    +0.000 C 
ENDBRANCH  16  18
ENDBRANCH   9  12
BRANCH   1  27
ATOM     26  C   UNL     1       0.496  15.192  19.044  0.00  0.00    +0.000 C 
ATOM     27  O   UNL     1      -0.561  14.240  18.990  0.00  0.00    +0.000 OA
ENDBRANCH   1  27
BRANCH   5  28
ATOM     28  O   UNL     1      -1.053  10.695  22.042  0.00  0.00    +0.000 OA
ATOM     29  C   UNL     1      -1.305  11.588  23.108  0.00  0.00    +0.000 C 
ENDBRANCH   5  28
TORSDOF 4
ENDMDL
MODEL 2
REMARK VINA RESULT:      -7.8      1.367      2.409
REMARK  Name = 
REMARK  6 active torsions:
REMARK  status: ('A' for Active; 'I' for Inactive)
REMARK    1  A    between atoms: C_1  and  O_2
REMARK    2  A    between atoms: O_2  and  C_3
REMARK    3  A    between atoms: C_7  and  O_8
REMARK    4  A    between atoms: O_8  and  C_9
REMARK    5  A    between atoms: N_13  and  C_14
REMARK    6  A    between atoms: C_18  and  C_19
REMARK                            x       y       z     vdW  Elec       q    Type
REMARK                         _______ _______ _______ _____ _____    ______ ____
ROOT
ATOM      1  C   UNL     1      -0.466  12.495  20.118  0.00  0.00    +0.000 A 
ATOM      2  C   UNL     1      -0.711  11.329  20.827  0.00  0.00    +0.000 A 
ATOM      3  C   UNL     1       0.002  10.162  20.539  0.00  0.00    +0.000 A 
ATOM      4  C   UNL     1       0.972  10.136  19.501  0.00  0.00    +0.000 A 
ATOM      5  C   UNL     1       1.277  11.338  18.830  0.00  0.00    +0.000 A 
ATOM      6  C   UNL     1       0.542  12.498  19.157  0.00  0.00    +0.000 A 
ATOM      7  C   UNL     1       1.536   8.782  19.179  0.00  0.00    +0.000 C 
ATOM      8  O   UNL     1       1.869   8.510  18.031  0.00  0.00    +0.000 OA
ATOM      9  N   UNL     1       1.613   7.864  20.242  0.00  0.00    +0.000 N 
ATOM     10  C   UNL     1       1.012   8.153  21.535  0.00  0.00    +0.000 C 
ATOM     11  C   UNL     1      -0.292   8.910  21.324  0.00  0.00    +0.000 C 
ENDROOT
BRANCH   9  12
ATOM     12  C   UNL     1       2.228   6.599  20.072  0.00  0.00    +0.000 A 
ATOM     13  C   UNL     1       1.558   5.427  20.436  0.00  0.00    +0.000 A 
ATOM     14  C   UNL     1       2.202   4.194  20.327  0.00  0.00    +0.000 A 
ATOM     15  C   UNL     1       3.513   4.130  19.847  0.00  0.00    +0.000 A 
ATOM     16  C   UNL     1       4.182   5.300  19.462  0.00  0.00    +0.000 A 
ATOM     17  C   UNL     1       3.511   6.524  19.537  0.00  0.00    +0.000 A 
BRANCH  16  18
ATOM     18  C   UNL     1       5.551   5.192  18.887  0.00  0.00    +0.000 C 
ATOM     19  O   UNL     1       6.485   5.530  19.616  0.00  0.00    +0.000 OA
ATOM     20  N   UNL     1       5.747   4.704  17.593  0.00  0.00    +0.000 N 
ATOM     21  C   UNL     1       7.107   4.366  17.174  0.00  0.00    +0.000 C 
ATOM     22  C   UNL     1       7.508   5.138  15.922  0.00  0.00    +0.000 C 
ATOM     23  C   UNL     1       6.488   4.939  14.803  0.00  0.00    +0.000 C 
ATOM     24  C   UNL     1       5.089   5.300  15.283  0.00  0.00    +0.000 C 
ATOM     25  C   UNL     1       4.720   4.545  16.556  0.00  0.00    +0.000 C 
ENDBRANCH  16  18
ENDBRANCH   9  12
BRANCH   1  27
ATOM     26  C   UNL     1      -1.853  13.494  21.736  0.00  0.00    +0.000 C 
ATOM     27  O   UNL     1      -1.225  13.576  20.460  0.00  0.00    +0.000 OA
ENDBRANCH   1  27
BRANCH   5  28
ATOM     28  O   UNL     1       2.197  11.651  17.871  0.00  0.00    +0.000 OA
ATOM     29  C   UNL     1       3.036  12.786  17.957  0.00  0.00    +0.000 C 
ENDBRANCH   5  28
TORSDOF 4
ENDMDL
MODEL 3
REMARK VINA RESULT:      -7.4      1.987      3.285
REMARK  Name = 
REMARK  6 active torsions:
REMARK  status: ('A' for Active; 'I' for Inactive)
REMARK    1  A    between atoms: C_1  and  O_2
REMARK    2  A    between atoms: O_2  and  C_3
REMARK    3  A    between atoms: C_7  and  O_8
REMARK    4  A    between atoms: O_8  and  C_9
REMARK    5  A    between atoms: N_13  and  C_14
REMARK    6  A    between atoms: C_18  and  C_19
REMARK                            x       y       z     vdW  Elec       q    Type
REMARK                         _______ _______ _______ _____ _____    ______ ____
ROOT
ATOM      1  C   UNL     1       0.185  10.953  21.592  0.00  0.00    +0.000 A 
ATOM      2  C   UNL     1       0.288   9.588  21.812  0.00  0.00    +0.000 A 
ATOM      3  C   UNL     1       0.880   8.759  20.854  0.00  0.00    +0.000 A 
ATOM      4  C   UNL     1       1.363   9.290  19.627  0.00  0.00    +0.000 A 
ATOM      5  C   UNL     1       1.327  10.686  19.433  0.00  0.00    +0.000 A 
ATOM      6  C   UNL     1       0.733  11.491  20.430  0.00  0.00    +0.000 A 
ATOM      7  C   UNL     1       1.811   8.273  18.618  0.00  0.00    +0.000 C 
ATOM      8  O   UNL     1       1.676   8.494  17.419  0.00  0.00    +0.000 OA
ATOM      9  N   UNL     1       2.339   7.072  19.126  0.00  0.00    +0.000 N 
ATOM     10  C   UNL     1       2.284   6.764  20.546  0.00  0.00    +0.000 C 
ATOM     11  C   UNL     1       0.971   7.279  21.121  0.00  0.00    +0.000 C 
ENDROOT
BRANCH   9  12
ATOM     12  C   UNL     1       2.890   6.093  18.263  0.00  0.00    +0.000 A 
ATOM     13  C   UNL     1       2.310   4.825  18.162  0.00  0.00    +0.000 A 
ATOM     14  C   UNL     1       2.904   3.849  17.360  0.00  0.00    +0.000 A 
ATOM     15  C   UNL     1       4.073   4.142  16.653  0.00  0.00    +0.000 A 
ATOM     16  C   UNL     1       4.647   5.418  16.736  0.00  0.00    +0.000 A 
ATOM     17  C   UNL     1       4.020   6.399  17.508  0.00  0.00    +0.000 A 
BRANCH  16  18
ATOM     18  C   UNL     1       5.851   5.720  15.914  0.00  0.00    +0.000 C 
ATOM     19  O   UNL     1       6.415   6.794  16.133  0.00  0.00    +0.000 OA
ATOM     20  N   UNL     1       6.317   4.809  14.964  0.00  0.00    +0.000 N 
ATOM     21  C   UNL     1       7.639   5.027  14.378  0.00  0.00    +0.000 C 
ATOM     22  C   UNL     1       7.563   5.121  12.858  0.00  0.00    +0.000 C 
ATOM     23  C   UNL     1       6.859   3.902  12.267  0.00  0.00    +0.000 C 
ATOM     24  C   UNL     1       5.489   3.712  12.906  0.00  0.00    +0.000 C 
ATOM     25  C   UNL     1       5.583   3.657  14.426  0.00  0.00    +0.000 C 
ENDBRANCH  16  18
ENDBRANCH   9  12
BRANCH   1  27
ATOM     26  C   UNL     1      -0.654  13.046  22.266  0.00  0.00    +0.000 C 
ATOM     27  O   UNL     1      -0.424  11.676  22.577  0.00  0.00    +0.000 OA
ENDBRANCH   1  27
BRANCH   5  28
ATOM     28  O   UNL     1       1.782  11.489  18.428  0.00  0.00    +0.000 OA
ATOM     29  C   UNL     1       2.187  12.827  18.639  0.00  0.00    +0.000 C 
ENDBRANCH   5  28
TORSDOF 4
ENDMDL
MODEL 4
REMARK VINA RESULT:      -7.3      2.371      4.010
REMARK  Name = 
REMARK  6 active torsions:
REMARK  status: ('A' for Active; 'I' for Inactive)
REMARK    1  A    between atoms: C_1  and  O_2
REMARK    2  A    between atoms: O_2  and  C_3
REMARK    3  A    between atoms: C_7  and  O_8
REMARK    4  A    between atoms: O_8  and  C_9
REMARK    5  A    between atoms: N_13  and  C_14
REMARK    6  A    between atoms: C_18  and  C_19
REMARK                            x       y       z     vdW  Elec       q    Type
REMARK                         _______ _______ _______ _____ _____    ______ ____
ROOT
ATOM      1  C   UNL     1      -2.346  13.212  22.819  0.00  0.00    +0.000 A 
ATOM      2  C   UNL     1      -1.730  12.052  23.266  0.00  0.00    +0.000 A 
ATOM      3  C   UNL     1      -1.038  11.229  22.373  0.00  0.00    +0.000 A 
ATOM      4  C   UNL     1      -0.972  11.545  20.989  0.00  0.00    +0.000 A 
ATOM      5  C   UNL     1      -1.532  12.760  20.545  0.00  0.00    +0.000 A 
ATOM      6  C   UNL     1      -2.213  13.571  21.480  0.00  0.00    +0.000 A 
ATOM      7  C   UNL     1      -0.353  10.491  20.116  0.00  0.00    +0.000 C 
ATOM      8  O   UNL     1      -0.742  10.340  18.964  0.00  0.00    +0.000 OA
ATOM      9  N   UNL     1       0.640   9.689  20.707  0.00  0.00    +0.000 N 
ATOM     10  C   UNL     1       0.919   9.760  22.133  0.00  0.00    +0.000 C 
ATOM     11  C   UNL     1      -0.385   9.973  22.890  0.00  0.00    +0.000 C 
ENDROOT
BRANCH   9  12
ATOM     12  C   UNL     1       1.363   8.741  19.943  0.00  0.00    +0.000 A 
ATOM     13  C   UNL     1       1.932   9.100  18.717  0.00  0.00    +0.000 A 
ATOM     14  C   UNL     1       2.584   8.138  17.943  0.00  0.00    +0.000 A 
ATOM     15  C   UNL     1       2.673   6.819  18.397  0.00  0.00    +0.000 A 
ATOM     16  C   UNL     1       2.121   6.459  19.633  0.00  0.00    +0.000 A 
ATOM     17  C   UNL     1       1.508   7.440  20.418  0.00  0.00    +0.000 A 
BRANCH  16  18
ATOM     18  C   UNL     1       2.295   5.063  20.121  0.00  0.00    +0.000 C 
ATOM     19  O   UNL     1       2.407   4.913  21.339  0.00  0.00    +0.000 OA
ATOM     20  N   UNL     1       2.304   3.989  19.229  0.00  0.00    +0.000 N 
ATOM     21  C   UNL     1       2.209   2.633  19.769  0.00  0.00    +0.000 C 
ATOM     22  C   UNL     1       3.392   1.778  19.328  0.00  0.00    +0.000 C 
ATOM     23  C   UNL     1       3.542   1.789  17.808  0.00  0.00    +0.000 C 
ATOM     24  C   UNL     1       3.635   3.218  17.290  0.00  0.00    +0.000 C 
ATOM     25  C   UNL     1       2.463   4.066  17.771  0.00  0.00    +0.000 C 
ENDBRANCH  16  18
ENDBRANCH   9  12
BRANCH   1  27
ATOM     26  C   UNL     1      -2.186  14.753  24.590  0.00  0.00    +0.000 C 
ATOM     27  O   UNL     1      -3.012  13.940  23.762  0.00  0.00    +0.000 OA
ENDBRANCH   1  27
BRANCH   5  28
ATOM     28  O   UNL     1      -1.556  13.374  19.326  0.00  0.00    +0.000 OA
ATOM     29  C   UNL     1      -0.384  13.786  18.653  0.00  0.00    +0.000 C 
ENDBRANCH   5  28
TORSDOF 4
ENDMDL
MODEL 5
REMARK VINA RESULT:      -7.2      1.284      1.480
REMARK  Name = 
REMARK  6 active torsions:
REMARK  status: ('A' for Active; 'I' for Inactive)
REMARK    1  A    between atoms: C_1  and  O_2
REMARK    2  A    between atoms: O_2  and  C_3
REMARK    3  A    between atoms: C_7  and  O_8
REMARK    4  A    between atoms: O_8  and  C_9
REMARK    5  A    between atoms: N_13  and  C_14
REMARK    6  A    between atoms: C_18  and  C_19
REMARK                            x       y       z     vdW  Elec       q    Type
REMARK                         _______ _______ _______ _____ _____    ______ ____
ROOT
ATOM      1  C   UNL     1      -0.003  13.690  19.278  0.00  0.00    +0.000 A 
ATOM      2  C   UNL     1       0.930  12.961  18.556  0.00  0.00    +0.000 A 
ATOM      3  C   UNL     1       1.171  11.619  18.863  0.00  0.00    +0.000 A 
ATOM      4  C   UNL     1       0.488  10.980  19.933  0.00  0.00    +0.000 A 
ATOM      5  C   UNL     1      -0.514  11.696  20.619  0.00  0.00    +0.000 A 
ATOM      6  C   UNL     1      -0.737  13.046  20.272  0.00  0.00    +0.000 A 
ATOM      7  C   UNL     1       0.967   9.597  20.269  0.00  0.00    +0.000 C 
ATOM      8  O   UNL     1       0.927   9.195  21.426  0.00  0.00    +0.000 OA
ATOM      9  N   UNL     1       1.484   8.836  19.205  0.00  0.00    +0.000 N 
ATOM     10  C   UNL     1       1.709   9.424  17.894  0.00  0.00    +0.000 C 
ATOM     11  C   UNL     1       2.196  10.857  18.064  0.00  0.00    +0.000 C 
ENDROOT
BRANCH   9  12
ATOM     12  C   UNL     1       1.860   7.482  19.390  0.00  0.00    +0.000 A 
ATOM     13  C   UNL     1       1.666   6.852  20.623  0.00  0.00    +0.000 A 
ATOM     14  C   UNL     1       2.103   5.540  20.812  0.00  0.00    +0.000 A 
ATOM     15  C   UNL     1       2.729   4.855  19.767  0.00  0.00    +0.000 A 
ATOM     16  C   UNL     1       2.909   5.476  18.524  0.00  0.00    +0.000 A 
ATOM     17  C   UNL     1       2.429   6.775  18.334  0.00  0.00    +0.000 A 
BRANCH  16  18
ATOM     18  C   UNL     1       3.514   4.695  17.410  0.00  0.00    +0.000 C 
ATOM     19  O   UNL     1       2.960   3.635  17.114  0.00  0.00    +0.000 OA
ATOM     20  N   UNL     1       4.637   5.170  16.729  0.00  0.00    +0.000 N 
ATOM     21  C   UNL     1       5.029   4.510  15.484  0.00  0.00    +0.000 C 
ATOM     22  C   UNL     1       6.464   4.002  15.556  0.00  0.00    +0.000 C 
ATOM     23  C   UNL     1       7.426   5.121  15.947  0.00  0.00    +0.000 C 
ATOM     24  C   UNL     1       6.979   5.780  17.246  0.00  0.00    +0.000 C 
ATOM     25  C   UNL     1       5.530   6.250  17.167  0.00  0.00    +0.000 C 
ENDBRANCH  16  18
ENDBRANCH   9  12
BRANCH   1  27
ATOM     26  C   UNL     1       1.029  15.784  18.985  0.00  0.00    +0.000 C 
ATOM     27  O   UNL     1      -0.155  14.997  18.915  0.00  0.00    +0.000 OA
ENDBRANCH   1  27
BRANCH   5  28
ATOM     28  O   UNL     1      -1.386  11.344  21.609  0.00  0.00    +0.000 OA
ATOM     29  C   UNL     1      -1.211  11.730  22.958  0.00  0.00    +0.000 C 
ENDBRANCH   5  28
TORSDOF 4
ENDMDL
MODEL 6
REMARK VINA RESULT:      -7.1      1.868      2.948
REMARK  Name = 
REMARK  6 active torsions:
REMARK  status: ('A' for Active; 'I' for Inactive)
REMARK    1  A    between atoms: C_1  and  O_2
REMARK    2  A    between atoms: O_2  and  C_3
REMARK    3  A    between atoms: C_7  and  O_8
REMARK    4  A    between atoms: O_8  and  C_9
REMARK    5  A    between atoms: N_13  and  C_14
REMARK    6  A    between atoms: C_18  and  C_19
REMARK                            x       y       z     vdW  Elec       q    Type
REMARK                         _______ _______ _______ _____ _____    ______ ____
ROOT
ATOM      1  C   UNL     1      -0.139  11.924  21.733  0.00  0.00    +0.000 A 
ATOM      2  C   UNL     1      -0.201  10.558  21.964  0.00  0.00    +0.000 A 
ATOM      3  C   UNL     1       0.407   9.661  21.080  0.00  0.00    +0.000 A 
ATOM      4  C   UNL     1       1.076  10.125  19.916  0.00  0.00    +0.000 A 
ATOM      5  C   UNL     1       1.205  11.515  19.717  0.00  0.00    +0.000 A 
ATOM      6  C   UNL     1       0.587  12.388  20.639  0.00  0.00    +0.000 A 
ATOM      7  C   UNL     1       1.529   9.055  18.964  0.00  0.00    +0.000 C 
ATOM      8  O   UNL     1       1.553   9.273  17.758  0.00  0.00    +0.000 OA
ATOM      9  N   UNL     1       1.871   7.814  19.530  0.00  0.00    +0.000 N 
ATOM     10  C   UNL     1       1.626   7.531  20.935  0.00  0.00    +0.000 C 
ATOM     11  C   UNL     1       0.317   8.183  21.358  0.00  0.00    +0.000 C 
ENDROOT
BRANCH   9  12
ATOM     12  C   UNL     1       2.414   6.774  18.736  0.00  0.00    +0.000 A 
ATOM     13  C   UNL     1       1.756   5.545  18.626  0.00  0.00    +0.000 A 
ATOM     14  C   UNL     1       2.335   4.506  17.896  0.00  0.00    +0.000 A 
ATOM     15  C   UNL     1       3.570   4.698  17.269  0.00  0.00    +0.000 A 
ATOM     16  C   UNL     1       4.224   5.934  17.360  0.00  0.00    +0.000 A 
ATOM     17  C   UNL     1       3.613   6.978  18.059  0.00  0.00    +0.000 A 
BRANCH  16  18
ATOM     18  C   UNL     1       5.502   6.128  16.621  0.00  0.00    +0.000 C 
ATOM     19  O   UNL     1       6.085   7.199  16.798  0.00  0.00    +0.000 OA
ATOM     20  N   UNL     1       6.010   5.125  15.793  0.00  0.00    +0.000 N 
ATOM     21  C   UNL     1       7.383   5.252  15.306  0.00  0.00    +0.000 C 
ATOM     22  C   UNL     1       7.435   5.217  13.783  0.00  0.00    +0.000 C 
ATOM     23  C   UNL     1       6.738   3.974  13.237  0.00  0.00    +0.000 C 
ATOM     24  C   UNL     1       5.314   3.881  13.771  0.00  0.00    +0.000 C 
ATOM     25  C   UNL     1       5.280   3.953  15.293  0.00  0.00    +0.000 C 
ENDBRANCH  16  18
ENDBRANCH   9  12
BRANCH   1  27
ATOM     26  C   UNL     1      -2.140  12.379  22.885  0.00  0.00    +0.000 C 
ATOM     27  O   UNL     1      -0.778  12.716  22.642  0.00  0.00    +0.000 OA
ENDBRANCH   1  27
BRANCH   5  28
ATOM     28  O   UNL     1       1.849  12.255  18.769  0.00  0.00    +0.000 OA
ATOM     29  C   UNL     1       1.374  13.510  18.323  0.00  0.00    +0.000 C 
ENDBRANCH   5  28
TORSDOF 4
ENDMDL
MODEL 7
REMARK VINA RESULT:      -7.1      2.329      3.969
REMARK  Name = 
REMARK  6 active torsions:
REMARK  status: ('A' for Active; 'I' for Inactive)
REMARK    1  A    between atoms: C_1  and  O_2
REMARK    2  A    between atoms: O_2  and  C_3
REMARK    3  A    between atoms: C_7  and  O_8
REMARK    4  A    between atoms: O_8  and  C_9
REMARK    5  A    between atoms: N_13  and  C_14
REMARK    6  A    between atoms: C_18  and  C_19
REMARK                            x       y       z     vdW  Elec       q    Type
REMARK                         _______ _______ _______ _____ _____    ______ ____
ROOT
ATOM      1  C   UNL     1      -1.887  12.539  23.090  0.00  0.00    +0.000 A 
ATOM      2  C   UNL     1      -1.562  11.194  23.169  0.00  0.00    +0.000 A 
ATOM      3  C   UNL     1      -0.773  10.596  22.181  0.00  0.00    +0.000 A 
ATOM      4  C   UNL     1      -0.311  11.344  21.065  0.00  0.00    +0.000 A 
ATOM      5  C   UNL     1      -0.575  12.728  21.020  0.00  0.00    +0.000 A 
ATOM      6  C   UNL     1      -1.365  13.297  22.044  0.00  0.00    +0.000 A 
ATOM      7  C   UNL     1       0.373  10.545  19.992  0.00  0.00    +0.000 C 
ATOM      8  O   UNL     1       0.281  10.884  18.818  0.00  0.00    +0.000 OA
ATOM      9  N   UNL     1       1.067   9.395  20.411  0.00  0.00    +0.000 N 
ATOM     10  C   UNL     1       0.973   8.913  21.780  0.00  0.00    +0.000 C 
ATOM     11  C   UNL     1      -0.444   9.130  22.293  0.00  0.00    +0.000 C 
ENDROOT
BRANCH   9  12
ATOM     12  C   UNL     1       1.836   8.633  19.497  0.00  0.00    +0.000 A 
ATOM     13  C   UNL     1       1.991   9.054  18.173  0.00  0.00    +0.000 A 
ATOM     14  C   UNL     1       2.694   8.259  17.266  0.00  0.00    +0.000 A 
ATOM     15  C   UNL     1       3.249   7.046  17.686  0.00  0.00    +0.000 A 
ATOM     16  C   UNL     1       3.113   6.630  19.017  0.00  0.00    +0.000 A 
ATOM     17  C   UNL     1       2.443   7.455  19.924  0.00  0.00    +0.000 A 
BRANCH  16  18
ATOM     18  C   UNL     1       3.778   5.369  19.448  0.00  0.00    +0.000 C 
ATOM     19  O   UNL     1       4.956   5.457  19.798  0.00  0.00    +0.000 OA
ATOM     20  N   UNL     1       3.076   4.162  19.473  0.00  0.00    +0.000 N 
ATOM     21  C   UNL     1       3.683   3.017  20.150  0.00  0.00    +0.000 C 
ATOM     22  C   UNL     1       3.817   1.825  19.209  0.00  0.00    +0.000 C 
ATOM     23  C   UNL     1       2.475   1.477  18.567  0.00  0.00    +0.000 C 
ATOM     24  C   UNL     1       1.880   2.697  17.876  0.00  0.00    +0.000 C 
ATOM     25  C   UNL     1       1.788   3.888  18.823  0.00  0.00    +0.000 C 
ENDBRANCH  16  18
ENDBRANCH   9  12
BRANCH   1  27
ATOM     26  C   UNL     1      -3.940  12.386  24.230  0.00  0.00    +0.000 C 
ATOM     27  O   UNL     1      -2.675  13.026  24.092  0.00  0.00    +0.000 OA
ENDBRANCH   1  27
BRANCH   5  28
ATOM     28  O   UNL     1      -0.203  13.711  20.150  0.00  0.00    +0.000 OA
ATOM     29  C   UNL     1       0.784  14.675  20.460  0.00  0.00    +0.000 C 
ENDBRANCH   5  28
TORSDOF 4
ENDMDL
MODEL 8
REMARK VINA RESULT:      -7.1      2.239      8.550
REMARK  Name = 
REMARK  6 active torsions:
REMARK  status: ('A' for Active; 'I' for Inactive)
REMARK    1  A    between atoms: C_1  and  O_2
REMARK    2  A    between atoms: O_2  and  C_3
REMARK    3  A    between atoms: C_7  and  O_8
REMARK    4  A    between atoms: O_8  and  C_9
REMARK    5  A    between atoms: N_13  and  C_14
REMARK    6  A    between atoms: C_18  and  C_19
REMARK                            x       y       z     vdW  Elec       q    Type
REMARK                         _______ _______ _______ _____ _____    ______ ____
ROOT
ATOM      1  C   UNL     1       5.478   3.967  15.966  0.00  0.00    +0.000 A 
ATOM      2  C   UNL     1       5.201   5.324  15.903  0.00  0.00    +0.000 A 
ATOM      3  C   UNL     1       4.297   5.905  16.797  0.00  0.00    +0.000 A 
ATOM      4  C   UNL     1       3.625   5.118  17.770  0.00  0.00    +0.000 A 
ATOM      5  C   UNL     1       3.960   3.754  17.886  0.00  0.00    +0.000 A 
ATOM      6  C   UNL     1       4.887   3.207  16.972  0.00  0.00    +0.000 A 
ATOM      7  C   UNL     1       2.554   5.829  18.546  0.00  0.00    +0.000 C 
ATOM      8  O   UNL     1       1.563   5.219  18.932  0.00  0.00    +0.000 OA
ATOM      9  N   UNL     1       2.740   7.207  18.757  0.00  0.00    +0.000 N 
ATOM     10  C   UNL     1       3.818   7.933  18.103  0.00  0.00    +0.000 C 
ATOM     11  C   UNL     1       4.014   7.382  16.697  0.00  0.00    +0.000 C 
ENDROOT
BRANCH   9  12
ATOM     12  C   UNL     1       1.847   7.950  19.568  0.00  0.00    +0.000 A 
ATOM     13  C   UNL     1       1.563   7.539  20.874  0.00  0.00    +0.000 A 
ATOM     14  C   UNL     1       0.630   8.241  21.638  0.00  0.00    +0.000 A 
ATOM     15  C   UNL     1      -0.014   9.359  21.100  0.00  0.00    +0.000 A 
ATOM     16  C   UNL     1       0.281   9.786  19.799  0.00  0.00    +0.000 A 
ATOM     17  C   UNL     1       1.248   9.099  19.059  0.00  0.00    +0.000 A 
BRANCH  16  18
ATOM     18  C   UNL     1      -0.368  11.022  19.281  0.00  0.00    +0.000 C 
ATOM     19  O   UNL     1      -1.295  10.866  18.484  0.00  0.00    +0.000 OA
ATOM     20  N   UNL     1       0.050  12.284  19.710  0.00  0.00    +0.000 N 
ATOM     21  C   UNL     1      -0.783  13.441  19.385  0.00  0.00    +0.000 C 
ATOM     22  C   UNL     1       0.006  14.491  18.611  0.00  0.00    +0.000 C 
ATOM     23  C   UNL     1       1.280  14.881  19.356  0.00  0.00    +0.000 C 
ATOM     24  C   UNL     1       2.114  13.647  19.675  0.00  0.00    +0.000 C 
ATOM     25  C   UNL     1       1.298  12.595  20.417  0.00  0.00    +0.000 C 
ENDBRANCH  16  18
ENDBRANCH   9  12
BRANCH   1  27
ATOM     26  C   UNL     1       6.638   4.376  13.960  0.00  0.00    +0.000 C 
ATOM     27  O   UNL     1       6.360   3.490  15.040  0.00  0.00    +0.000 OA
ENDBRANCH   1  27
BRANCH   5  28
ATOM     28  O   UNL     1       3.566   2.777  18.755  0.00  0.00    +0.000 OA
ATOM     29  C   UNL     1       4.208   2.549  19.994  0.00  0.00    +0.000 C 
ENDBRANCH   5  28
TORSDOF 4
ENDMDL
MODEL 9
REMARK VINA RESULT:      -7.0      1.981      8.527
REMARK  Name = 
REMARK  6 active torsions:
REMARK  status: ('A' for Active; 'I' for Inactive)
REMARK    1  A    between atoms: C_1  and  O_2
REMARK    2  A    between atoms: O_2  and  C_3
REMARK    3  A    between atoms: C_7  and  O_8
REMARK    4  A    between atoms: O_8  and  C_9
REMARK    5  A    between atoms: N_13  and  C_14
REMARK    6  A    between atoms: C_18  and  C_19
REMARK                            x       y       z     vdW  Elec       q    Type
REMARK                         _______ _______ _______ _____ _____    ______ ____
ROOT
ATOM      1  C   UNL     1       5.001   4.297  16.960  0.00  0.00    +0.000 A 
ATOM      2  C   UNL     1       4.445   5.527  16.641  0.00  0.00    +0.000 A 
ATOM      3  C   UNL     1       3.624   6.192  17.555  0.00  0.00    +0.000 A 
ATOM      4  C   UNL     1       3.319   5.614  18.817  0.00  0.00    +0.000 A 
ATOM      5  C   UNL     1       3.942   4.401  19.174  0.00  0.00    +0.000 A 
ATOM      6  C   UNL     1       4.774   3.766  18.227  0.00  0.00    +0.000 A 
ATOM      7  C   UNL     1       2.289   6.346  19.629  0.00  0.00    +0.000 C 
ATOM      8  O   UNL     1       1.533   5.726  20.369  0.00  0.00    +0.000 OA
ATOM      9  N   UNL     1       2.226   7.740  19.455  0.00  0.00    +0.000 N 
ATOM     10  C   UNL     1       2.992   8.408  18.415  0.00  0.00    +0.000 C 
ATOM     11  C   UNL     1       3.032   7.524  17.175  0.00  0.00    +0.000 C 
ENDROOT
BRANCH   9  12
ATOM     12  C   UNL     1       1.367   8.537  20.251  0.00  0.00    +0.000 A 
ATOM     13  C   UNL     1       1.082   8.178  21.571  0.00  0.00    +0.000 A 
ATOM     14  C   UNL     1       0.181   8.934  22.322  0.00  0.00    +0.000 A 
ATOM     15  C   UNL     1      -0.431  10.056  21.755  0.00  0.00    +0.000 A 
ATOM     16  C   UNL     1      -0.135  10.431  20.437  0.00  0.00    +0.000 A 
ATOM     17  C   UNL     1       0.801   9.690  19.711  0.00  0.00    +0.000 A 
BRANCH  16  18
ATOM     18  C   UNL     1      -0.748  11.672  19.887  0.00  0.00    +0.000 C 
ATOM     19  O   UNL     1      -1.791  11.535  19.247  0.00  0.00    +0.000 OA
ATOM     20  N   UNL     1      -0.167  12.921  20.118  0.00  0.00    +0.000 N 
ATOM     21  C   UNL     1      -0.939  14.119  19.792  0.00  0.00    +0.000 C 
ATOM     22  C   UNL     1      -0.187  15.010  18.808  0.00  0.00    +0.000 C 
ATOM     23  C   UNL     1       1.211  15.342  19.324  0.00  0.00    +0.000 C 
ATOM     24  C   UNL     1       1.977  14.066  19.653  0.00  0.00    +0.000 C 
ATOM     25  C   UNL     1       1.194  13.173  20.608  0.00  0.00    +0.000 C 
ENDBRANCH  16  18
ENDBRANCH   9  12
BRANCH   1  27
ATOM     26  C   UNL     1       6.817   4.542  15.483  0.00  0.00    +0.000 C 
ATOM     27  O   UNL     1       5.774   3.718  15.995  0.00  0.00    +0.000 OA
ENDBRANCH   1  27
BRANCH   5  28
ATOM     28  O   UNL     1       3.924   3.656  20.318  0.00  0.00    +0.000 OA
ATOM     29  C   UNL     1       4.156   2.262  20.329  0.00  0.00    +0.000 C 
ENDBRANCH   5  28
TORSDOF 4
ENDMDL
