MODEL 1
REMARK VINA RESULT:      -8.4      0.000      0.000
REMARK  Name = 
REMARK  5 active torsions:
REMARK  status: ('A' for Active; 'I' for Inactive)
REMARK    1  A    between atoms: N_2  and  C_4
REMARK    2  A    between atoms: C_7  and  C_8
REMARK    3  A    between atoms: N_10  and  C_11
REMARK    4  A    between atoms: C_18  and  C_19
REMARK    5  A    between atoms: C_22  and  C_23
REMARK                            x       y       z     vdW  Elec       q    Type
REMARK                         _______ _______ _______ _____ _____    ______ ____
ROOT
ATOM      1  C   UNL     1       5.247   5.170  16.251  0.00  0.00    +0.000 A 
ATOM      2  N   UNL     1       4.936   4.521  15.119  0.00  0.00    +0.000 NA
ATOM      3  N   UNL     1       6.073   4.495  14.381  0.00  0.00    +0.000 N 
ATOM      4  C   UNL     1       7.091   5.184  15.002  0.00  0.00    +0.000 A 
ATOM      5  C   UNL     1       6.574   5.658  16.184  0.00  0.00    +0.000 A 
ENDROOT
BRANCH   1   9
ATOM      6  C   UNL     1       2.407   5.384  19.433  0.00  0.00    +0.000 A 
ATOM      7  C   UNL     1       2.893   4.141  19.022  0.00  0.00    +0.000 A 
ATOM      8  C   UNL     1       3.807   4.078  17.970  0.00  0.00    +0.000 A 
ATOM      9  C   UNL     1       4.281   5.246  17.350  0.00  0.00    +0.000 A 
ATOM     10  C   UNL     1       3.778   6.485  17.768  0.00  0.00    +0.000 A 
ATOM     11  C   UNL     1       2.841   6.560  18.805  0.00  0.00    +0.000 A 
BRANCH   6  13
ATOM     12  O   UNL     1       1.259   6.534  21.091  0.00  0.00    +0.000 OA
ATOM     13  N   UNL     1       1.421   5.449  20.517  0.00  0.00    +0.000 N 
ATOM     14  O   UNL     1       0.814   4.403  20.804  0.00  0.00    +0.000 OA
ENDBRANCH   6  13
ENDBRANCH   1   9
BRANCH   3  15
ATOM     15  C   UNL     1       6.125   3.783  13.151  0.00  0.00    +0.000 A 
ATOM     16  C   UNL     1       4.936   3.295  12.586  0.00  0.00    +0.000 A 
ATOM     17  C   UNL     1       4.974   2.536  11.415  0.00  0.00    +0.000 A 
ATOM     18  C   UNL     1       6.195   2.259  10.802  0.00  0.00    +0.000 A 
ATOM     19  C   UNL     1       7.376   2.758  11.348  0.00  0.00    +0.000 A 
ATOM     20  C   UNL     1       7.346   3.525  12.515  0.00  0.00    +0.000 A 
ENDBRANCH   3  15
BRANCH   5  21
ATOM     21  C   UNL     1       7.306   6.517  17.143  0.00  0.00    +0.000 A 
ATOM     22  N   UNL     1       7.799   6.086  18.289  0.00  0.00    +0.000 NA
ATOM     23  N   UNL     1       8.374   7.162  18.915  0.00  0.00    +0.000 NA
ATOM     24  C   UNL     1       8.204   8.188  18.111  0.00  0.00    +0.000 A 
ATOM     25  O   UNL     1       7.536   7.859  16.962  0.00  0.00    +0.000 OA
BRANCH  24  26
ATOM     26  C   UNL     1       8.548   9.583  18.309  0.00  0.00    +0.000 A 
ATOM     27  C   UNL     1       9.303   9.948  19.426  0.00  0.00    +0.000 A 
ATOM     28  C   UNL     1       9.577  11.289  19.626  0.00  0.00    +0.000 A 
ATOM     29  N   UNL     1       9.166  12.268  18.796  0.00  0.00    +0.000 NA
ATOM     30  C   UNL     1       8.452  11.893  17.713  0.00  0.00    +0.000 A 
ATOM     31  C   UNL     1       8.124  10.576  17.428  0.00  0.00    +0.000 A 
ENDBRANCH  24  26
ENDBRANCH   5  21
TORSDOF 5
ENDMDL
MODEL 2
REMARK VINA RESULT:      -8.3      0.153      1.338
REMARK  Name = 
REMARK  5 active torsions:
REMARK  status: ('A' for Active; 'I' for Inactive)
REMARK    1  A    between atoms: N_2  and  C_4
REMARK    2  A    between atoms: C_7  and  C_8
REMARK    3  A    between atoms: N_10  and  C_11
REMARK    4  A    between atoms: C_18  and  C_19
REMARK    5  A    between atoms: C_22  and  C_23
REMARK                            x       y       z     vdW  Elec       q    Type
REMARK                         _______ _______ _______ _____ _____    ______ ____
ROOT
ATOM      1  C   UNL     1       5.269   5.090  16.273  0.00  0.00    +0.000 A 
ATOM      2  N   UNL     1       4.963   4.448  15.135  0.00  0.00    +0.000 NA
ATOM      3  N   UNL     1       6.096   4.454  14.390  0.00  0.00    +0.000 N 
ATOM      4  C   UNL     1       7.103   5.156  15.013  0.00  0.00    +0.000 A 
ATOM      5  C   UNL     1       6.585   5.606  16.203  0.00  0.00    +0.000 A 
ENDROOT
BRANCH   1   9
ATOM      6  C   UNL     1       2.493   5.227  19.515  0.00  0.00    +0.000 A 
ATOM      7  C   UNL     1       2.743   6.381  18.770  0.00  0.00    +0.000 A 
ATOM      8  C   UNL     1       3.665   6.332  17.723  0.00  0.00    +0.000 A 
ATOM      9  C   UNL     1       4.308   5.133  17.378  0.00  0.00    +0.000 A 
ATOM     10  C   UNL     1       4.052   3.985  18.141  0.00  0.00    +0.000 A 
ATOM     11  C   UNL     1       3.150   4.027  19.210  0.00  0.00    +0.000 A 
BRANCH   6  13
ATOM     12  O   UNL     1       1.065   4.221  21.044  0.00  0.00    +0.000 OA
ATOM     13  N   UNL     1       1.549   5.285  20.636  0.00  0.00    +0.000 N 
ATOM     14  O   UNL     1       1.280   6.405  21.104  0.00  0.00    +0.000 OA
ENDBRANCH   6  13
ENDBRANCH   1   9
BRANCH   3  15
ATOM     15  C   UNL     1       6.154   3.758  13.151  0.00  0.00    +0.000 A 
ATOM     16  C   UNL     1       4.966   3.298  12.562  0.00  0.00    +0.000 A 
ATOM     17  C   UNL     1       5.009   2.554  11.381  0.00  0.00    +0.000 A 
ATOM     18  C   UNL     1       6.233   2.264  10.783  0.00  0.00    +0.000 A 
ATOM     19  C   UNL     1       7.415   2.736  11.352  0.00  0.00    +0.000 A 
ATOM     20  C   UNL     1       7.380   3.487  12.529  0.00  0.00    +0.000 A 
ENDBRANCH   3  15
BRANCH   5  21
ATOM     21  C   UNL     1       7.306   6.468  17.168  0.00  0.00    +0.000 A 
ATOM     22  N   UNL     1       7.784   6.041  18.321  0.00  0.00    +0.000 NA
ATOM     23  N   UNL     1       8.352   7.119  18.951  0.00  0.00    +0.000 NA
ATOM     24  C   UNL     1       8.193   8.141  18.141  0.00  0.00    +0.000 A 
ATOM     25  O   UNL     1       7.539   7.808  16.985  0.00  0.00    +0.000 OA
BRANCH  24  26
ATOM     26  C   UNL     1       8.535   9.537  18.338  0.00  0.00    +0.000 A 
ATOM     27  C   UNL     1       8.057  10.491  17.436  0.00  0.00    +0.000 A 
ATOM     28  C   UNL     1       8.436  11.809  17.609  0.00  0.00    +0.000 A 
ATOM     29  N   UNL     1       9.233  12.233  18.610  0.00  0.00    +0.000 NA
ATOM     30  C   UNL     1       9.671  11.299  19.481  0.00  0.00    +0.000 A 
ATOM     31  C   UNL     1       9.349   9.953  19.389  0.00  0.00    +0.000 A 
ENDBRANCH  24  26
ENDBRANCH   5  21
TORSDOF 5
ENDMDL
MODEL 3
REMARK VINA RESULT:      -7.9      0.144      1.351
REMARK  Name = 
REMARK  5 active torsions:
REMARK  status: ('A' for Active; 'I' for Inactive)
REMARK    1  A    between atoms: N_2  and  C_4
REMARK    2  A    between atoms: C_7  and  C_8
REMARK    3  A    between atoms: N_10  and  C_11
REMARK    4  A    between atoms: C_18  and  C_19
REMARK    5  A    between atoms: C_22  and  C_23
REMARK                            x       y       z     vdW  Elec       q    Type
REMARK                         _______ _______ _______ _____ _____    ______ ____
ROOT
ATOM      1  C   UNL     1       5.228   5.106  16.294  0.00  0.00    +0.000 A 
ATOM      2  N   UNL     1       4.908   4.447  15.170  0.00  0.00    +0.000 NA
ATOM      3  N   UNL     1       6.036   4.428  14.418  0.00  0.00    +0.000 N 
ATOM      4  C   UNL     1       7.055   5.130  15.022  0.00  0.00    +0.000 A 
ATOM      5  C   UNL     1       6.550   5.606  16.208  0.00  0.00    +0.000 A 
ENDROOT
BRANCH   1   9
ATOM      6  C   UNL     1       2.476   5.330  19.552  0.00  0.00    +0.000 A 
ATOM      7  C   UNL     1       2.752   6.474  18.800  0.00  0.00    +0.000 A 
ATOM      8  C   UNL     1       3.666   6.396  17.749  0.00  0.00    +0.000 A 
ATOM      9  C   UNL     1       4.276   5.179  17.405  0.00  0.00    +0.000 A 
ATOM     10  C   UNL     1       3.994   4.041  18.174  0.00  0.00    +0.000 A 
ATOM     11  C   UNL     1       3.099   4.111  19.248  0.00  0.00    +0.000 A 
BRANCH   6  13
ATOM     12  O   UNL     1       1.110   4.360  21.160  0.00  0.00    +0.000 OA
ATOM     13  N   UNL     1       1.540   5.417  20.678  0.00  0.00    +0.000 N 
ATOM     14  O   UNL     1       1.223   6.552  21.075  0.00  0.00    +0.000 OA
ENDBRANCH   6  13
ENDBRANCH   1   9
BRANCH   3  15
ATOM     15  C   UNL     1       6.078   3.709  13.191  0.00  0.00    +0.000 A 
ATOM     16  C   UNL     1       7.317   3.459  12.580  0.00  0.00    +0.000 A 
ATOM     17  C   UNL     1       7.373   2.815  11.343  0.00  0.00    +0.000 A 
ATOM     18  C   UNL     1       6.198   2.419  10.708  0.00  0.00    +0.000 A 
ATOM     19  C   UNL     1       4.966   2.647  11.319  0.00  0.00    +0.000 A 
ATOM     20  C   UNL     1       4.901   3.283  12.561  0.00  0.00    +0.000 A 
ENDBRANCH   3  15
BRANCH   5  21
ATOM     21  C   UNL     1       7.286   6.477  17.152  0.00  0.00    +0.000 A 
ATOM     22  N   UNL     1       7.780   6.061  18.303  0.00  0.00    +0.000 NA
ATOM     23  N   UNL     1       8.359   7.144  18.913  0.00  0.00    +0.000 NA
ATOM     24  C   UNL     1       8.190   8.159  18.094  0.00  0.00    +0.000 A 
ATOM     25  O   UNL     1       7.519   7.815  16.952  0.00  0.00    +0.000 OA
BRANCH  24  26
ATOM     26  C   UNL     1       8.538   9.556  18.271  0.00  0.00    +0.000 A 
ATOM     27  C   UNL     1       9.327   9.931  19.360  0.00  0.00    +0.000 A 
ATOM     28  C   UNL     1       9.605  11.273  19.543  0.00  0.00    +0.000 A 
ATOM     29  N   UNL     1       9.166  12.246  18.719  0.00  0.00    +0.000 NA
ATOM     30  C   UNL     1       8.419  11.861  17.662  0.00  0.00    +0.000 A 
ATOM     31  C   UNL     1       8.085  10.542  17.397  0.00  0.00    +0.000 A 
ENDBRANCH  24  26
ENDBRANCH   5  21
TORSDOF 5
ENDMDL
MODEL 4
REMARK VINA RESULT:      -7.8      1.056      1.723
REMARK  Name = 
REMARK  5 active torsions:
REMARK  status: ('A' for Active; 'I' for Inactive)
REMARK    1  A    between atoms: N_2  and  C_4
REMARK    2  A    between atoms: C_7  and  C_8
REMARK    3  A    between atoms: N_10  and  C_11
REMARK    4  A    between atoms: C_18  and  C_19
REMARK    5  A    between atoms: C_22  and  C_23
REMARK                            x       y       z     vdW  Elec       q    Type
REMARK                         _______ _______ _______ _____ _____    ______ ____
ROOT
ATOM      1  C   UNL     1       5.181   6.133  16.484  0.00  0.00    +0.000 A 
ATOM      2  N   UNL     1       4.810   5.434  15.400  0.00  0.00    +0.000 NA
ATOM      3  N   UNL     1       5.961   5.076  14.779  0.00  0.00    +0.000 N 
ATOM      4  C   UNL     1       7.062   5.601  15.418  0.00  0.00    +0.000 A 
ATOM      5  C   UNL     1       6.584   6.314  16.492  0.00  0.00    +0.000 A 
ENDROOT
BRANCH   1   9
ATOM      6  C   UNL     1       2.294   7.357  19.384  0.00  0.00    +0.000 A 
ATOM      7  C   UNL     1       2.538   8.161  18.268  0.00  0.00    +0.000 A 
ATOM      8  C   UNL     1       3.495   7.763  17.334  0.00  0.00    +0.000 A 
ATOM      9  C   UNL     1       4.183   6.547  17.474  0.00  0.00    +0.000 A 
ATOM     10  C   UNL     1       3.932   5.754  18.603  0.00  0.00    +0.000 A 
ATOM     11  C   UNL     1       2.993   6.155  19.560  0.00  0.00    +0.000 A 
BRANCH   6  13
ATOM     12  O   UNL     1       0.858   8.940  20.290  0.00  0.00    +0.000 OA
ATOM     13  N   UNL     1       1.311   7.791  20.382  0.00  0.00    +0.000 N 
ATOM     14  O   UNL     1       0.999   6.980  21.271  0.00  0.00    +0.000 OA
ENDBRANCH   6  13
ENDBRANCH   1   9
BRANCH   3  15
ATOM     15  C   UNL     1       5.936   4.226  13.639  0.00  0.00    +0.000 A 
ATOM     16  C   UNL     1       7.137   3.921  12.979  0.00  0.00    +0.000 A 
ATOM     17  C   UNL     1       7.125   3.144  11.819  0.00  0.00    +0.000 A 
ATOM     18  C   UNL     1       5.918   2.668  11.311  0.00  0.00    +0.000 A 
ATOM     19  C   UNL     1       4.724   2.951  11.973  0.00  0.00    +0.000 A 
ATOM     20  C   UNL     1       4.729   3.721  13.138  0.00  0.00    +0.000 A 
ENDBRANCH   3  15
BRANCH   5  21
ATOM     21  C   UNL     1       7.423   7.105  17.421  0.00  0.00    +0.000 A 
ATOM     22  N   UNL     1       7.985   6.610  18.507  0.00  0.00    +0.000 NA
ATOM     23  N   UNL     1       8.649   7.637  19.127  0.00  0.00    +0.000 NA
ATOM     24  C   UNL     1       8.459   8.700  18.378  0.00  0.00    +0.000 A 
ATOM     25  O   UNL     1       7.691   8.444  17.274  0.00  0.00    +0.000 OA
BRANCH  24  26
ATOM     26  C   UNL     1       8.871  10.073  18.602  0.00  0.00    +0.000 A 
ATOM     27  C   UNL     1       9.576  10.394  19.764  0.00  0.00    +0.000 A 
ATOM     28  C   UNL     1       9.915  11.715  19.986  0.00  0.00    +0.000 A 
ATOM     29  N   UNL     1       9.616  12.717  19.135  0.00  0.00    +0.000 NA
ATOM     30  C   UNL     1       8.950  12.384  18.009  0.00  0.00    +0.000 A 
ATOM     31  C   UNL     1       8.563  11.089  17.699  0.00  0.00    +0.000 A 
ENDBRANCH  24  26
ENDBRANCH   5  21
TORSDOF 5
ENDMDL
MODEL 5
REMARK VINA RESULT:      -7.5      6.336     10.561
REMARK  Name = 
REMARK  5 active torsions:
REMARK  status: ('A' for Active; 'I' for Inactive)
REMARK    1  A    between atoms: N_2  and  C_4
REMARK    2  A    between atoms: C_7  and  C_8
REMARK    3  A    between atoms: N_10  and  C_11
REMARK    4  A    between atoms: C_18  and  C_19
REMARK    5  A    between atoms: C_22  and  C_23
REMARK                            x       y       z     vdW  Elec       q    Type
REMARK                         _______ _______ _______ _____ _____    ______ ____
ROOT
ATOM      1  C   UNL     1       0.085  11.996  18.835  0.00  0.00    +0.000 A 
ATOM      2  N   UNL     1      -1.127  12.569  18.769  0.00  0.00    +0.000 NA
ATOM      3  N   UNL     1      -2.011  11.551  18.634  0.00  0.00    +0.000 N 
ATOM      4  C   UNL     1      -1.370  10.336  18.542  0.00  0.00    +0.000 A 
ATOM      5  C   UNL     1      -0.024  10.600  18.630  0.00  0.00    +0.000 A 
ENDROOT
BRANCH   1   9
ATOM      6  C   UNL     1       3.556  14.322  19.718  0.00  0.00    +0.000 A 
ATOM      7  C   UNL     1       3.258  13.999  18.392  0.00  0.00    +0.000 A 
ATOM      8  C   UNL     1       2.133  13.224  18.114  0.00  0.00    +0.000 A 
ATOM      9  C   UNL     1       1.269  12.804  19.139  0.00  0.00    +0.000 A 
ATOM     10  C   UNL     1       1.585  13.130  20.465  0.00  0.00    +0.000 A 
ATOM     11  C   UNL     1       2.725  13.885  20.760  0.00  0.00    +0.000 A 
BRANCH   6  13
ATOM     12  O   UNL     1       4.913  16.181  19.411  0.00  0.00    +0.000 OA
ATOM     13  N   UNL     1       4.757  15.110  20.015  0.00  0.00    +0.000 N 
ATOM     14  O   UNL     1       5.555  14.650  20.849  0.00  0.00    +0.000 OA
ENDBRANCH   6  13
ENDBRANCH   1   9
BRANCH   3  15
ATOM     15  C   UNL     1      -3.412  11.801  18.638  0.00  0.00    +0.000 A 
ATOM     16  C   UNL     1      -4.001  12.407  19.759  0.00  0.00    +0.000 A 
ATOM     17  C   UNL     1      -5.383  12.598  19.810  0.00  0.00    +0.000 A 
ATOM     18  C   UNL     1      -6.184  12.186  18.747  0.00  0.00    +0.000 A 
ATOM     19  C   UNL     1      -5.602  11.601  17.623  0.00  0.00    +0.000 A 
ATOM     20  C   UNL     1      -4.220  11.414  17.561  0.00  0.00    +0.000 A 
ENDBRANCH   3  15
BRANCH   5  21
ATOM     21  C   UNL     1       1.046   9.584  18.510  0.00  0.00    +0.000 A 
ATOM     22  N   UNL     1       2.008   9.633  17.608  0.00  0.00    +0.000 NA
ATOM     23  N   UNL     1       2.785   8.516  17.780  0.00  0.00    +0.000 NA
ATOM     24  C   UNL     1       2.255   7.852  18.783  0.00  0.00    +0.000 A 
ATOM     25  O   UNL     1       1.147   8.467  19.302  0.00  0.00    +0.000 OA
BRANCH  24  26
ATOM     26  C   UNL     1       2.627   6.564  19.338  0.00  0.00    +0.000 A 
ATOM     27  C   UNL     1       3.729   5.887  18.813  0.00  0.00    +0.000 A 
ATOM     28  C   UNL     1       4.038   4.638  19.318  0.00  0.00    +0.000 A 
ATOM     29  N   UNL     1       3.341   4.037  20.303  0.00  0.00    +0.000 NA
ATOM     30  C   UNL     1       2.289   4.715  20.809  0.00  0.00    +0.000 A 
ATOM     31  C   UNL     1       1.899   5.970  20.367  0.00  0.00    +0.000 A 
ENDBRANCH  24  26
ENDBRANCH   5  21
TORSDOF 5
ENDMDL
MODEL 6
REMARK VINA RESULT:      -7.5      6.318     10.552
REMARK  Name = 
REMARK  5 active torsions:
REMARK  status: ('A' for Active; 'I' for Inactive)
REMARK    1  A    between atoms: N_2  and  C_4
REMARK    2  A    between atoms: C_7  and  C_8
REMARK    3  A    between atoms: N_10  and  C_11
REMARK    4  A    between atoms: C_18  and  C_19
REMARK    5  A    between atoms: C_22  and  C_23
REMARK                            x       y       z     vdW  Elec       q    Type
REMARK                         _______ _______ _______ _____ _____    ______ ____
ROOT
ATOM      1  C   UNL     1       0.197  12.015  18.854  0.00  0.00    +0.000 A 
ATOM      2  N   UNL     1      -1.009  12.604  18.847  0.00  0.00    +0.000 NA
ATOM      3  N   UNL     1      -1.910  11.601  18.708  0.00  0.00    +0.000 N 
ATOM      4  C   UNL     1      -1.287  10.383  18.554  0.00  0.00    +0.000 A 
ATOM      5  C   UNL     1       0.064  10.628  18.606  0.00  0.00    +0.000 A 
ENDROOT
BRANCH   1   9
ATOM      6  C   UNL     1       3.687  14.325  19.703  0.00  0.00    +0.000 A 
ATOM      7  C   UNL     1       2.909  13.835  20.755  0.00  0.00    +0.000 A 
ATOM      8  C   UNL     1       1.761  13.097  20.468  0.00  0.00    +0.000 A 
ATOM      9  C   UNL     1       1.401  12.799  19.144  0.00  0.00    +0.000 A 
ATOM     10  C   UNL     1       2.188  13.303  18.100  0.00  0.00    +0.000 A 
ATOM     11  C   UNL     1       3.328  14.067  18.373  0.00  0.00    +0.000 A 
BRANCH   6  13
ATOM     12  O   UNL     1       5.250  15.953  19.156  0.00  0.00    +0.000 OA
ATOM     13  N   UNL     1       4.877  15.129  20.003  0.00  0.00    +0.000 N 
ATOM     14  O   UNL     1       5.449  14.926  21.087  0.00  0.00    +0.000 OA
ENDBRANCH   6  13
ENDBRANCH   1   9
BRANCH   3  15
ATOM     15  C   UNL     1      -3.306  11.867  18.768  0.00  0.00    +0.000 A 
ATOM     16  C   UNL     1      -4.132  11.461  17.707  0.00  0.00    +0.000 A 
ATOM     17  C   UNL     1      -5.493  11.773  17.717  0.00  0.00    +0.000 A 
ATOM     18  C   UNL     1      -6.037  12.489  18.781  0.00  0.00    +0.000 A 
ATOM     19  C   UNL     1      -5.226  12.876  19.847  0.00  0.00    +0.000 A 
ATOM     20  C   UNL     1      -3.865  12.562  19.848  0.00  0.00    +0.000 A 
ENDBRANCH   3  15
BRANCH   5  21
ATOM     21  C   UNL     1       1.117   9.605  18.416  0.00  0.00    +0.000 A 
ATOM     22  N   UNL     1       2.033   9.659  17.467  0.00  0.00    +0.000 NA
ATOM     23  N   UNL     1       2.806   8.533  17.583  0.00  0.00    +0.000 NA
ATOM     24  C   UNL     1       2.321   7.858  18.601  0.00  0.00    +0.000 A 
ATOM     25  O   UNL     1       1.248   8.475  19.185  0.00  0.00    +0.000 OA
BRANCH  24  26
ATOM     26  C   UNL     1       2.709   6.559  19.117  0.00  0.00    +0.000 A 
ATOM     27  C   UNL     1       3.740   5.856  18.492  0.00  0.00    +0.000 A 
ATOM     28  C   UNL     1       4.061   4.597  18.964  0.00  0.00    +0.000 A 
ATOM     29  N   UNL     1       3.441   4.009  20.007  0.00  0.00    +0.000 NA
ATOM     30  C   UNL     1       2.458   4.712  20.609  0.00  0.00    +0.000 A 
ATOM     31  C   UNL     1       2.062   5.978  20.207  0.00  0.00    +0.000 A 
ENDBRANCH  24  26
ENDBRANCH   5  21
TORSDOF 5
ENDMDL
MODEL 7
REMARK VINA RESULT:      -7.5      6.349      9.499
REMARK  Name = 
REMARK  5 active torsions:
REMARK  status: ('A' for Active; 'I' for Inactive)
REMARK    1  A    between atoms: N_2  and  C_4
REMARK    2  A    between atoms: C_7  and  C_8
REMARK    3  A    between atoms: N_10  and  C_11
REMARK    4  A    between atoms: C_18  and  C_19
REMARK    5  A    between atoms: C_22  and  C_23
REMARK                            x       y       z     vdW  Elec       q    Type
REMARK                         _______ _______ _______ _____ _____    ______ ____
ROOT
ATOM      1  C   UNL     1      -0.243  10.665  19.210  0.00  0.00    +0.000 A 
ATOM      2  N   UNL     1      -1.538  10.446  18.937  0.00  0.00    +0.000 NA
ATOM      3  N   UNL     1      -2.136  11.661  18.981  0.00  0.00    +0.000 N 
ATOM      4  C   UNL     1      -1.248  12.647  19.349  0.00  0.00    +0.000 A 
ATOM      5  C   UNL     1      -0.036  12.026  19.537  0.00  0.00    +0.000 A 
ENDROOT
BRANCH   1   9
ATOM      6  C   UNL     1       2.573   7.473  18.862  0.00  0.00    +0.000 A 
ATOM      7  C   UNL     1       2.286   8.266  17.749  0.00  0.00    +0.000 A 
ATOM      8  C   UNL     1       1.352   9.296  17.866  0.00  0.00    +0.000 A 
ATOM      9  C   UNL     1       0.732   9.576  19.094  0.00  0.00    +0.000 A 
ATOM     10  C   UNL     1       1.025   8.767  20.201  0.00  0.00    +0.000 A 
ATOM     11  C   UNL     1       1.941   7.715  20.089  0.00  0.00    +0.000 A 
BRANCH   6  13
ATOM     12  O   UNL     1       3.764   5.680  19.733  0.00  0.00    +0.000 OA
ATOM     13  N   UNL     1       3.532   6.370  18.731  0.00  0.00    +0.000 N 
ATOM     14  O   UNL     1       4.065   6.201  17.621  0.00  0.00    +0.000 OA
ENDBRANCH   6  13
ENDBRANCH   1   9
BRANCH   3  15
ATOM     15  C   UNL     1      -3.508  11.808  18.633  0.00  0.00    +0.000 A 
ATOM     16  C   UNL     1      -3.930  11.476  17.336  0.00  0.00    +0.000 A 
ATOM     17  C   UNL     1      -5.258  11.677  16.956  0.00  0.00    +0.000 A 
ATOM     18  C   UNL     1      -6.171  12.210  17.864  0.00  0.00    +0.000 A 
ATOM     19  C   UNL     1      -5.762  12.524  19.159  0.00  0.00    +0.000 A 
ATOM     20  C   UNL     1      -4.437  12.318  19.550  0.00  0.00    +0.000 A 
ENDBRANCH   3  15
BRANCH   5  21
ATOM     21  C   UNL     1       1.195  12.701  20.008  0.00  0.00    +0.000 A 
ATOM     22  N   UNL     1       1.645  12.631  21.246  0.00  0.00    +0.000 NA
ATOM     23  N   UNL     1       2.777  13.402  21.312  0.00  0.00    +0.000 NA
ATOM     24  C   UNL     1       2.957  13.894  20.107  0.00  0.00    +0.000 A 
ATOM     25  O   UNL     1       1.994  13.493  19.220  0.00  0.00    +0.000 OA
BRANCH  24  26
ATOM     26  C   UNL     1       3.956  14.832  19.631  0.00  0.00    +0.000 A 
ATOM     27  C   UNL     1       4.624  14.569  18.433  0.00  0.00    +0.000 A 
ATOM     28  C   UNL     1       5.609  15.447  18.022  0.00  0.00    +0.000 A 
ATOM     29  N   UNL     1       5.957  16.555  18.706  0.00  0.00    +0.000 NA
ATOM     30  C   UNL     1       5.288  16.800  19.853  0.00  0.00    +0.000 A 
ATOM     31  C   UNL     1       4.287  15.979  20.349  0.00  0.00    +0.000 A 
ENDBRANCH  24  26
ENDBRANCH   5  21
TORSDOF 5
ENDMDL
MODEL 8
REMARK VINA RESULT:      -7.5      6.321     10.530
REMARK  Name = 
REMARK  5 active torsions:
REMARK  status: ('A' for Active; 'I' for Inactive)
REMARK    1  A    between atoms: N_2  and  C_4
REMARK    2  A    between atoms: C_7  and  C_8
REMARK    3  A    between atoms: N_10  and  C_11
REMARK    4  A    between atoms: C_18  and  C_19
REMARK    5  A    between atoms: C_22  and  C_23
REMARK                            x       y       z     vdW  Elec       q    Type
REMARK                         _______ _______ _______ _____ _____    ______ ____
ROOT
ATOM      1  C   UNL     1       0.078  11.956  18.856  0.00  0.00    +0.000 A 
ATOM      2  N   UNL     1      -1.147  12.503  18.864  0.00  0.00    +0.000 NA
ATOM      3  N   UNL     1      -2.013  11.475  18.695  0.00  0.00    +0.000 N 
ATOM      4  C   UNL     1      -1.349  10.283  18.509  0.00  0.00    +0.000 A 
ATOM      5  C   UNL     1      -0.007  10.572  18.570  0.00  0.00    +0.000 A 
ENDROOT
BRANCH   1   9
ATOM      6  C   UNL     1       3.526  14.305  19.768  0.00  0.00    +0.000 A 
ATOM      7  C   UNL     1       3.200  14.044  18.435  0.00  0.00    +0.000 A 
ATOM      8  C   UNL     1       2.082  13.261  18.146  0.00  0.00    +0.000 A 
ATOM      9  C   UNL     1       1.255  12.771  19.170  0.00  0.00    +0.000 A 
ATOM     10  C   UNL     1       1.599  13.036  20.503  0.00  0.00    +0.000 A 
ATOM     11  C   UNL     1       2.733  13.798  20.806  0.00  0.00    +0.000 A 
BRANCH   6  13
ATOM     12  O   UNL     1       5.481  14.691  20.960  0.00  0.00    +0.000 OA
ATOM     13  N   UNL     1       4.719  15.102  20.073  0.00  0.00    +0.000 N 
ATOM     14  O   UNL     1       4.890  16.151  19.430  0.00  0.00    +0.000 OA
ENDBRANCH   6  13
ENDBRANCH   1   9
BRANCH   3  15
ATOM     15  C   UNL     1      -3.418  11.691  18.760  0.00  0.00    +0.000 A 
ATOM     16  C   UNL     1      -3.942  12.531  19.755  0.00  0.00    +0.000 A 
ATOM     17  C   UNL     1      -5.322  12.701  19.877  0.00  0.00    +0.000 A 
ATOM     18  C   UNL     1      -6.186  12.036  19.010  0.00  0.00    +0.000 A 
ATOM     19  C   UNL     1      -5.671  11.216  18.007  0.00  0.00    +0.000 A 
ATOM     20  C   UNL     1      -4.291  11.047  17.873  0.00  0.00    +0.000 A 
ENDBRANCH   3  15
BRANCH   5  21
ATOM     21  C   UNL     1       1.080   9.591  18.353  0.00  0.00    +0.000 A 
ATOM     22  N   UNL     1       2.025   9.729  17.443  0.00  0.00    +0.000 NA
ATOM     23  N   UNL     1       2.826   8.618  17.515  0.00  0.00    +0.000 NA
ATOM     24  C   UNL     1       2.326   7.868  18.471  0.00  0.00    +0.000 A 
ATOM     25  O   UNL     1       1.216   8.418  19.054  0.00  0.00    +0.000 OA
BRANCH  24  26
ATOM     26  C   UNL     1       2.732   6.549  18.918  0.00  0.00    +0.000 A 
ATOM     27  C   UNL     1       2.164   6.015  20.076  0.00  0.00    +0.000 A 
ATOM     28  C   UNL     1       2.600   4.779  20.516  0.00  0.00    +0.000 A 
ATOM     29  N   UNL     1       3.540   4.049  19.881  0.00  0.00    +0.000 NA
ATOM     30  C   UNL     1       4.065   4.575  18.754  0.00  0.00    +0.000 A 
ATOM     31  C   UNL     1       3.694   5.806  18.236  0.00  0.00    +0.000 A 
ENDBRANCH  24  26
ENDBRANCH   5  21
TORSDOF 5
ENDMDL
MODEL 9
REMARK VINA RESULT:      -7.5      6.331      9.462
REMARK  Name = 
REMARK  5 active torsions:
REMARK  status: ('A' for Active; 'I' for Inactive)
REMARK    1  A    between atoms: N_2  and  C_4
REMARK    2  A    between atoms: C_7  and  C_8
REMARK    3  A    between atoms: N_10  and  C_11
REMARK    4  A    between atoms: C_18  and  C_19
REMARK    5  A    between atoms: C_22  and  C_23
REMARK                            x       y       z     vdW  Elec       q    Type
REMARK                         _______ _______ _______ _____ _____    ______ ____
ROOT
ATOM      1  C   UNL     1      -0.235  10.675  19.264  0.00  0.00    +0.000 A 
ATOM      2  N   UNL     1      -1.530  10.465  18.980  0.00  0.00    +0.000 NA
ATOM      3  N   UNL     1      -2.117  11.687  18.998  0.00  0.00    +0.000 N 
ATOM      4  C   UNL     1      -1.222  12.669  19.360  0.00  0.00    +0.000 A 
ATOM      5  C   UNL     1      -0.019  12.040  19.573  0.00  0.00    +0.000 A 
ENDROOT
BRANCH   1   9
ATOM      6  C   UNL     1       2.553   7.452  18.998  0.00  0.00    +0.000 A 
ATOM      7  C   UNL     1       2.282   8.227  17.868  0.00  0.00    +0.000 A 
ATOM      8  C   UNL     1       1.357   9.267  17.959  0.00  0.00    +0.000 A 
ATOM      9  C   UNL     1       0.729   9.576  19.176  0.00  0.00    +0.000 A 
ATOM     10  C   UNL     1       1.006   8.784  20.300  0.00  0.00    +0.000 A 
ATOM     11  C   UNL     1       1.913   7.722  20.215  0.00  0.00    +0.000 A 
BRANCH   6  13
ATOM     12  O   UNL     1       4.277   6.322  17.928  0.00  0.00    +0.000 OA
ATOM     13  N   UNL     1       3.502   6.338  18.895  0.00  0.00    +0.000 N 
ATOM     14  O   UNL     1       3.464   5.467  19.781  0.00  0.00    +0.000 OA
ENDBRANCH   6  13
ENDBRANCH   1   9
BRANCH   3  15
ATOM     15  C   UNL     1      -3.483  11.841  18.631  0.00  0.00    +0.000 A 
ATOM     16  C   UNL     1      -3.893  11.491  17.335  0.00  0.00    +0.000 A 
ATOM     17  C   UNL     1      -5.215  11.700  16.937  0.00  0.00    +0.000 A 
ATOM     18  C   UNL     1      -6.132  12.257  17.825  0.00  0.00    +0.000 A 
ATOM     19  C   UNL     1      -5.735  12.588  19.119  0.00  0.00    +0.000 A 
ATOM     20  C   UNL     1      -4.417  12.375  19.529  0.00  0.00    +0.000 A 
ENDBRANCH   3  15
BRANCH   5  21
ATOM     21  C   UNL     1       1.213  12.710  20.047  0.00  0.00    +0.000 A 
ATOM     22  N   UNL     1       1.620  12.699  21.302  0.00  0.00    +0.000 NA
ATOM     23  N   UNL     1       2.769  13.445  21.364  0.00  0.00    +0.000 NA
ATOM     24  C   UNL     1       3.001  13.863  20.140  0.00  0.00    +0.000 A 
ATOM     25  O   UNL     1       2.058  13.436  19.244  0.00  0.00    +0.000 OA
BRANCH  24  26
ATOM     26  C   UNL     1       4.040  14.748  19.647  0.00  0.00    +0.000 A 
ATOM     27  C   UNL     1       4.487  15.793  20.458  0.00  0.00    +0.000 A 
ATOM     28  C   UNL     1       5.440  16.658  19.953  0.00  0.00    +0.000 A 
ATOM     29  N   UNL     1       5.975  16.544  18.720  0.00  0.00    +0.000 NA
ATOM     30  C   UNL     1       5.542  15.517  17.959  0.00  0.00    +0.000 A 
ATOM     31  C   UNL     1       4.589  14.600  18.375  0.00  0.00    +0.000 A 
ENDBRANCH  24  26
ENDBRANCH   5  21
TORSDOF 5
ENDMDL
