MODEL 1
REMARK VINA RESULT:      -7.5      0.000      0.000
REMARK  Name = 
REMARK  7 active torsions:
REMARK  status: ('A' for Active; 'I' for Inactive)
REMARK    1  A    between atoms: C_1  and  C_2
REMARK    2  A    between atoms: C_5  and  S_6
REMARK    3  A    between atoms: S_6  and  C_7
REMARK    4  A    between atoms: C_7  and  C_8
REMARK    5  A    between atoms: N_10  and  C_11
REMARK    6  A    between atoms: C_11  and  C_12
REMARK    7  A    between atoms: C_12  and  C_13
REMARK                            x       y       z     vdW  Elec       q    Type
REMARK                         _______ _______ _______ _____ _____    ______ ____
ROOT
ATOM      1  C   UNL     1       7.091   6.912  17.550  0.00  0.00    +0.000 C 
ATOM      2  O   UNL     1       7.616   6.285  18.484  0.00  0.00    +0.000 OA
ATOM      3  N   UNL     1       7.385   8.247  17.327  0.00  0.00    +0.000 N 
ATOM      4  H   UNL     1       6.896   8.732  16.576  0.00  0.00    +0.000 HD
ENDROOT
BRANCH   1   5
ATOM      5  C   UNL     1       6.018   6.285  16.663  0.00  0.00    +0.000 C 
BRANCH   5   6
ATOM      6  S   UNL     1       5.956   4.478  16.963  0.00  0.00    +0.000 S 
BRANCH   6  11
ATOM      7  C   UNL     1       0.891   3.964  20.314  0.00  0.00    +0.000 C 
ATOM      8  C   UNL     1       2.136   4.059  19.484  0.00  0.00    +0.000 A 
ATOM      9  C   UNL     1       3.201   4.873  19.876  0.00  0.00    +0.000 A 
ATOM     10  C   UNL     1       4.349   4.955  19.086  0.00  0.00    +0.000 A 
ATOM     11  C   UNL     1       4.465   4.222  17.897  0.00  0.00    +0.000 A 
ATOM     12  C   UNL     1       3.400   3.412  17.502  0.00  0.00    +0.000 A 
ATOM     13  C   UNL     1       2.246   3.331  18.291  0.00  0.00    +0.000 A 
ENDBRANCH   6  11
ENDBRANCH   5   6
ENDBRANCH   1   5
BRANCH   3  14
ATOM     14  C   UNL     1       8.398   8.896  18.125  0.00  0.00    +0.000 C 
BRANCH  14  15
ATOM     15  C   UNL     1       8.416  10.420  18.020  0.00  0.00    +0.000 C 
BRANCH  15  16
ATOM     16  C   UNL     1       9.668  11.044  18.617  0.00  0.00    +0.000 C 
ATOM     17  C   UNL     1      10.649  11.520  17.825  0.00  0.00    +0.000 C 
ATOM     18  C   UNL     1      11.925  12.121  18.339  0.00  0.00    +0.000 C 
ATOM     19  C   UNL     1      12.177  11.825  19.816  0.00  0.00    +0.000 C 
ATOM     20  C   UNL     1      10.905  12.029  20.628  0.00  0.00    +0.000 C 
ATOM     21  C   UNL     1       9.777  11.119  20.128  0.00  0.00    +0.000 C 
ENDBRANCH  15  16
ENDBRANCH  14  15
ENDBRANCH   3  14
TORSDOF 6
ENDMDL
MODEL 2
REMARK VINA RESULT:      -7.1      0.468      1.211
REMARK  Name = 
REMARK  7 active torsions:
REMARK  status: ('A' for Active; 'I' for Inactive)
REMARK    1  A    between atoms: C_1  and  C_2
REMARK    2  A    between atoms: C_5  and  S_6
REMARK    3  A    between atoms: S_6  and  C_7
REMARK    4  A    between atoms: C_7  and  C_8
REMARK    5  A    between atoms: N_10  and  C_11
REMARK    6  A    between atoms: C_11  and  C_12
REMARK    7  A    between atoms: C_12  and  C_13
REMARK                            x       y       z     vdW  Elec       q    Type
REMARK                         _______ _______ _______ _____ _____    ______ ____
ROOT
ATOM      1  C   UNL     1       7.322   6.865  17.768  0.00  0.00    +0.000 C 
ATOM      2  O   UNL     1       7.701   6.384  18.848  0.00  0.00    +0.000 OA
ATOM      3  N   UNL     1       7.675   8.150  17.391  0.00  0.00    +0.000 N 
ATOM      4  H   UNL     1       7.304   8.518  16.516  0.00  0.00    +0.000 HD
ENDROOT
BRANCH   1   5
ATOM      5  C   UNL     1       6.363   6.115  16.847  0.00  0.00    +0.000 C 
BRANCH   5   6
ATOM      6  S   UNL     1       6.328   4.343  17.313  0.00  0.00    +0.000 S 
BRANCH   6  11
ATOM      7  C   UNL     1       0.876   3.732  19.968  0.00  0.00    +0.000 C 
ATOM      8  C   UNL     1       2.212   3.855  19.297  0.00  0.00    +0.000 A 
ATOM      9  C   UNL     1       3.343   4.247  20.016  0.00  0.00    +0.000 A 
ATOM     10  C   UNL     1       4.577   4.365  19.374  0.00  0.00    +0.000 A 
ATOM     11  C   UNL     1       4.712   4.086  18.007  0.00  0.00    +0.000 A 
ATOM     12  C   UNL     1       3.581   3.699  17.286  0.00  0.00    +0.000 A 
ATOM     13  C   UNL     1       2.342   3.583  17.929  0.00  0.00    +0.000 A 
ENDBRANCH   6  11
ENDBRANCH   5   6
ENDBRANCH   1   5
BRANCH   3  14
ATOM     14  C   UNL     1       8.588   8.908  18.214  0.00  0.00    +0.000 C 
BRANCH  14  15
ATOM     15  C   UNL     1       8.464  10.425  18.077  0.00  0.00    +0.000 C 
BRANCH  15  16
ATOM     16  C   UNL     1       9.688  11.171  18.584  0.00  0.00    +0.000 C 
ATOM     17  C   UNL     1       9.932  11.282  19.905  0.00  0.00    +0.000 C 
ATOM     18  C   UNL     1      11.100  12.027  20.482  0.00  0.00    +0.000 C 
ATOM     19  C   UNL     1      11.786  12.945  19.472  0.00  0.00    +0.000 C 
ATOM     20  C   UNL     1      11.972  12.232  18.139  0.00  0.00    +0.000 C 
ATOM     21  C   UNL     1      10.627  11.780  17.561  0.00  0.00    +0.000 C 
ENDBRANCH  15  16
ENDBRANCH  14  15
ENDBRANCH   3  14
TORSDOF 6
ENDMDL
MODEL 3
REMARK VINA RESULT:      -7.1      1.444      2.107
REMARK  Name = 
REMARK  7 active torsions:
REMARK  status: ('A' for Active; 'I' for Inactive)
REMARK    1  A    between atoms: C_1  and  C_2
REMARK    2  A    between atoms: C_5  and  S_6
REMARK    3  A    between atoms: S_6  and  C_7
REMARK    4  A    between atoms: C_7  and  C_8
REMARK    5  A    between atoms: N_10  and  C_11
REMARK    6  A    between atoms: C_11  and  C_12
REMARK    7  A    between atoms: C_12  and  C_13
REMARK                            x       y       z     vdW  Elec       q    Type
REMARK                         _______ _______ _______ _____ _____    ______ ____
ROOT
ATOM      1  C   UNL     1       7.362   6.477  17.499  0.00  0.00    +0.000 C 
ATOM      2  O   UNL     1       7.687   5.962  18.581  0.00  0.00    +0.000 OA
ATOM      3  N   UNL     1       7.587   7.821  17.249  0.00  0.00    +0.000 N 
ATOM      4  H   UNL     1       7.264   8.210  16.365  0.00  0.00    +0.000 HD
ENDROOT
BRANCH   1   5
ATOM      5  C   UNL     1       6.605   5.694  16.430  0.00  0.00    +0.000 C 
BRANCH   5   6
ATOM      6  S   UNL     1       5.428   4.543  17.234  0.00  0.00    +0.000 S 
BRANCH   6  11
ATOM      7  C   UNL     1       1.479   8.006  20.327  0.00  0.00    +0.000 C 
ATOM      8  C   UNL     1       2.434   7.160  19.539  0.00  0.00    +0.000 A 
ATOM      9  C   UNL     1       2.907   5.948  20.045  0.00  0.00    +0.000 A 
ATOM     10  C   UNL     1       3.803   5.178  19.301  0.00  0.00    +0.000 A 
ATOM     11  C   UNL     1       4.238   5.593  18.035  0.00  0.00    +0.000 A 
ATOM     12  C   UNL     1       3.770   6.806  17.530  0.00  0.00    +0.000 A 
ATOM     13  C   UNL     1       2.873   7.582  18.276  0.00  0.00    +0.000 A 
ENDBRANCH   6  11
ENDBRANCH   5   6
ENDBRANCH   1   5
BRANCH   3  14
ATOM     14  C   UNL     1       8.307   8.615  18.217  0.00  0.00    +0.000 C 
BRANCH  14  15
ATOM     15  C   UNL     1       8.321  10.115  17.931  0.00  0.00    +0.000 C 
BRANCH  15  16
ATOM     16  C   UNL     1       9.446  10.848  18.644  0.00  0.00    +0.000 C 
ATOM     17  C   UNL     1       9.424  11.018  19.981  0.00  0.00    +0.000 C 
ATOM     18  C   UNL     1      10.481  11.754  20.751  0.00  0.00    +0.000 C 
ATOM     19  C   UNL     1      11.393  12.599  19.863  0.00  0.00    +0.000 C 
ATOM     20  C   UNL     1      11.815  11.814  18.628  0.00  0.00    +0.000 C 
ATOM     21  C   UNL     1      10.597  11.375  17.808  0.00  0.00    +0.000 C 
ENDBRANCH  15  16
ENDBRANCH  14  15
ENDBRANCH   3  14
TORSDOF 6
ENDMDL
MODEL 4
REMARK VINA RESULT:      -7.0      4.931      7.291
REMARK  Name = 
REMARK  7 active torsions:
REMARK  status: ('A' for Active; 'I' for Inactive)
REMARK    1  A    between atoms: C_1  and  C_2
REMARK    2  A    between atoms: C_5  and  S_6
REMARK    3  A    between atoms: S_6  and  C_7
REMARK    4  A    between atoms: C_7  and  C_8
REMARK    5  A    between atoms: N_10  and  C_11
REMARK    6  A    between atoms: C_11  and  C_12
REMARK    7  A    between atoms: C_12  and  C_13
REMARK                            x       y       z     vdW  Elec       q    Type
REMARK                         _______ _______ _______ _____ _____    ______ ____
ROOT
ATOM      1  C   UNL     1       1.457   2.957  19.826  0.00  0.00    +0.000 C 
ATOM      2  O   UNL     1       1.221   2.533  20.968  0.00  0.00    +0.000 OA
ATOM      3  N   UNL     1       1.453   4.314  19.549  0.00  0.00    +0.000 N 
ATOM      4  H   UNL     1       1.609   4.613  18.588  0.00  0.00    +0.000 HD
ENDROOT
BRANCH   1   5
ATOM      5  C   UNL     1       1.658   2.013  18.643  0.00  0.00    +0.000 C 
BRANCH   5   6
ATOM      6  S   UNL     1       3.437   1.608  18.480  0.00  0.00    +0.000 S 
BRANCH   6  11
ATOM      7  C   UNL     1       5.889   7.051  17.249  0.00  0.00    +0.000 C 
ATOM      8  C   UNL     1       5.313   5.704  17.567  0.00  0.00    +0.000 A 
ATOM      9  C   UNL     1       4.548   5.009  16.627  0.00  0.00    +0.000 A 
ATOM     10  C   UNL     1       4.013   3.760  16.944  0.00  0.00    +0.000 A 
ATOM     11  C   UNL     1       4.236   3.171  18.196  0.00  0.00    +0.000 A 
ATOM     12  C   UNL     1       4.997   3.866  19.137  0.00  0.00    +0.000 A 
ATOM     13  C   UNL     1       5.533   5.121  18.822  0.00  0.00    +0.000 A 
ENDBRANCH   6  11
ENDBRANCH   5   6
ENDBRANCH   1   5
BRANCH   3  14
ATOM     14  C   UNL     1       1.279   5.260  20.626  0.00  0.00    +0.000 C 
BRANCH  14  15
ATOM     15  C   UNL     1       2.331   6.367  20.682  0.00  0.00    +0.000 C 
BRANCH  15  16
ATOM     16  C   UNL     1       1.938   7.603  19.889  0.00  0.00    +0.000 C 
ATOM     17  C   UNL     1       1.284   8.624  20.478  0.00  0.00    +0.000 C 
ATOM     18  C   UNL     1       0.838   9.862  19.756  0.00  0.00    +0.000 C 
ATOM     19  C   UNL     1       0.867   9.715  18.236  0.00  0.00    +0.000 C 
ATOM     20  C   UNL     1       2.159   9.044  17.787  0.00  0.00    +0.000 C 
ATOM     21  C   UNL     1       2.311   7.657  18.420  0.00  0.00    +0.000 C 
ENDBRANCH  15  16
ENDBRANCH  14  15
ENDBRANCH   3  14
TORSDOF 6
ENDMDL
MODEL 5
REMARK VINA RESULT:      -7.0      0.421      1.596
REMARK  Name = 
REMARK  7 active torsions:
REMARK  status: ('A' for Active; 'I' for Inactive)
REMARK    1  A    between atoms: C_1  and  C_2
REMARK    2  A    between atoms: C_5  and  S_6
REMARK    3  A    between atoms: S_6  and  C_7
REMARK    4  A    between atoms: C_7  and  C_8
REMARK    5  A    between atoms: N_10  and  C_11
REMARK    6  A    between atoms: C_11  and  C_12
REMARK    7  A    between atoms: C_12  and  C_13
REMARK                            x       y       z     vdW  Elec       q    Type
REMARK                         _______ _______ _______ _____ _____    ______ ____
ROOT
ATOM      1  C   UNL     1       7.162   6.892  17.416  0.00  0.00    +0.000 C 
ATOM      2  O   UNL     1       7.735   6.214  18.284  0.00  0.00    +0.000 OA
ATOM      3  N   UNL     1       7.380   8.256  17.311  0.00  0.00    +0.000 N 
ATOM      4  H   UNL     1       6.854   8.778  16.611  0.00  0.00    +0.000 HD
ENDROOT
BRANCH   1   5
ATOM      5  C   UNL     1       6.111   6.288  16.487  0.00  0.00    +0.000 C 
BRANCH   5   6
ATOM      6  S   UNL     1       5.889   4.514  16.888  0.00  0.00    +0.000 S 
BRANCH   6  11
ATOM      7  C   UNL     1       0.895   3.916  20.331  0.00  0.00    +0.000 C 
ATOM      8  C   UNL     1       2.117   4.095  19.482  0.00  0.00    +0.000 A 
ATOM      9  C   UNL     1       2.457   3.158  18.504  0.00  0.00    +0.000 A 
ATOM     10  C   UNL     1       3.603   3.336  17.728  0.00  0.00    +0.000 A 
ATOM     11  C   UNL     1       4.429   4.455  17.902  0.00  0.00    +0.000 A 
ATOM     12  C   UNL     1       4.094   5.390  18.882  0.00  0.00    +0.000 A 
ATOM     13  C   UNL     1       2.946   5.211  19.663  0.00  0.00    +0.000 A 
ENDBRANCH   6  11
ENDBRANCH   5   6
ENDBRANCH   1   5
BRANCH   3  14
ATOM     14  C   UNL     1       8.369   8.887  18.153  0.00  0.00    +0.000 C 
BRANCH  14  15
ATOM     15  C   UNL     1       8.772  10.295  17.722  0.00  0.00    +0.000 C 
BRANCH  15  16
ATOM     16  C   UNL     1       9.664  10.996  18.735  0.00  0.00    +0.000 C 
ATOM     17  C   UNL     1       9.329  11.036  20.040  0.00  0.00    +0.000 C 
ATOM     18  C   UNL     1      10.140  11.733  21.093  0.00  0.00    +0.000 C 
ATOM     19  C   UNL     1      11.180  12.691  20.515  0.00  0.00    +0.000 C 
ATOM     20  C   UNL     1      11.915  12.044  19.349  0.00  0.00    +0.000 C 
ATOM     21  C   UNL     1      10.942  11.642  18.235  0.00  0.00    +0.000 C 
ENDBRANCH  15  16
ENDBRANCH  14  15
ENDBRANCH   3  14
TORSDOF 6
ENDMDL
MODEL 6
REMARK VINA RESULT:      -6.9      5.781      9.227
REMARK  Name = 
REMARK  7 active torsions:
REMARK  status: ('A' for Active; 'I' for Inactive)
REMARK    1  A    between atoms: C_1  and  C_2
REMARK    2  A    between atoms: C_5  and  S_6
REMARK    3  A    between atoms: S_6  and  C_7
REMARK    4  A    between atoms: C_7  and  C_8
REMARK    5  A    between atoms: N_10  and  C_11
REMARK    6  A    between atoms: C_11  and  C_12
REMARK    7  A    between atoms: C_12  and  C_13
REMARK                            x       y       z     vdW  Elec       q    Type
REMARK                         _______ _______ _______ _____ _____    ______ ____
ROOT
ATOM      1  C   UNL     1       2.346   8.107  18.447  0.00  0.00    +0.000 C 
ATOM      2  O   UNL     1       2.162   7.673  19.596  0.00  0.00    +0.000 OA
ATOM      3  N   UNL     1       3.298   7.546  17.612  0.00  0.00    +0.000 N 
ATOM      4  H   UNL     1       3.444   7.964  16.694  0.00  0.00    +0.000 HD
ENDROOT
BRANCH   1   5
ATOM      5  C   UNL     1       1.615   9.343  17.927  0.00  0.00    +0.000 C 
BRANCH   5   6
ATOM      6  S   UNL     1       0.612  10.071  19.276  0.00  0.00    +0.000 S 
BRANCH   6  11
ATOM      7  C   UNL     1      -4.798  11.571  16.902  0.00  0.00    +0.000 C 
ATOM      8  C   UNL     1      -3.473  11.171  17.480  0.00  0.00    +0.000 A 
ATOM      9  C   UNL     1      -2.988  11.767  18.646  0.00  0.00    +0.000 A 
ATOM     10  C   UNL     1      -1.749  11.388  19.164  0.00  0.00    +0.000 A 
ATOM     11  C   UNL     1      -0.972  10.402  18.540  0.00  0.00    +0.000 A 
ATOM     12  C   UNL     1      -1.453   9.810  17.372  0.00  0.00    +0.000 A 
ATOM     13  C   UNL     1      -2.695  10.191  16.848  0.00  0.00    +0.000 A 
ENDBRANCH   6  11
ENDBRANCH   5   6
ENDBRANCH   1   5
BRANCH   3  14
ATOM     14  C   UNL     1       4.017   6.369  18.041  0.00  0.00    +0.000 C 
BRANCH  14  15
ATOM     15  C   UNL     1       3.470   5.052  17.495  0.00  0.00    +0.000 C 
BRANCH  15  16
ATOM     16  C   UNL     1       2.676   4.263  18.526  0.00  0.00    +0.000 C 
ATOM     17  C   UNL     1       1.642   3.483  18.153  0.00  0.00    +0.000 C 
ATOM     18  C   UNL     1       0.795   2.700  19.113  0.00  0.00    +0.000 C 
ATOM     19  C   UNL     1       0.971   3.138  20.565  0.00  0.00    +0.000 C 
ATOM     20  C   UNL     1       2.446   3.325  20.894  0.00  0.00    +0.000 C 
ATOM     21  C   UNL     1       3.087   4.376  19.981  0.00  0.00    +0.000 C 
ENDBRANCH  15  16
ENDBRANCH  14  15
ENDBRANCH   3  14
TORSDOF 6
ENDMDL
MODEL 7
REMARK VINA RESULT:      -6.9      4.258      6.241
REMARK  Name = 
REMARK  7 active torsions:
REMARK  status: ('A' for Active; 'I' for Inactive)
REMARK    1  A    between atoms: C_1  and  C_2
REMARK    2  A    between atoms: C_5  and  S_6
REMARK    3  A    between atoms: S_6  and  C_7
REMARK    4  A    between atoms: C_7  and  C_8
REMARK    5  A    between atoms: N_10  and  C_11
REMARK    6  A    between atoms: C_11  and  C_12
REMARK    7  A    between atoms: C_12  and  C_13
REMARK                            x       y       z     vdW  Elec       q    Type
REMARK                         _______ _______ _______ _____ _____    ______ ____
ROOT
ATOM      1  C   UNL     1       2.043   3.573  18.580  0.00  0.00    +0.000 C 
ATOM      2  O   UNL     1       1.376   3.505  17.536  0.00  0.00    +0.000 OA
ATOM      3  N   UNL     1       3.419   3.411  18.564  0.00  0.00    +0.000 N 
ATOM      4  H   UNL     1       3.920   3.431  19.451  0.00  0.00    +0.000 HD
ENDROOT
BRANCH   1   5
ATOM      5  C   UNL     1       1.384   3.729  19.948  0.00  0.00    +0.000 C 
BRANCH   5   6
ATOM      6  S   UNL     1       2.322   4.951  20.942  0.00  0.00    +0.000 S 
BRANCH   6  11
ATOM      7  C   UNL     1       1.440  10.443  18.451  0.00  0.00    +0.000 C 
ATOM      8  C   UNL     1       1.652   9.079  19.035  0.00  0.00    +0.000 A 
ATOM      9  C   UNL     1       1.141   8.747  20.291  0.00  0.00    +0.000 A 
ATOM     10  C   UNL     1       1.355   7.474  20.823  0.00  0.00    +0.000 A 
ATOM     11  C   UNL     1       2.072   6.503  20.111  0.00  0.00    +0.000 A 
ATOM     12  C   UNL     1       2.587   6.834  18.857  0.00  0.00    +0.000 A 
ATOM     13  C   UNL     1       2.376   8.111  18.324  0.00  0.00    +0.000 A 
ENDBRANCH   6  11
ENDBRANCH   5   6
ENDBRANCH   1   5
BRANCH   3  14
ATOM     14  C   UNL     1       4.105   3.269  17.301  0.00  0.00    +0.000 C 
BRANCH  14  15
ATOM     15  C   UNL     1       4.462   4.586  16.615  0.00  0.00    +0.000 C 
BRANCH  15  16
ATOM     16  C   UNL     1       5.711   5.238  17.190  0.00  0.00    +0.000 C 
ATOM     17  C   UNL     1       6.670   4.495  17.777  0.00  0.00    +0.000 C 
ATOM     18  C   UNL     1       7.914   5.067  18.392  0.00  0.00    +0.000 C 
ATOM     19  C   UNL     1       7.835   6.576  18.616  0.00  0.00    +0.000 C 
ATOM     20  C   UNL     1       7.251   7.270  17.393  0.00  0.00    +0.000 C 
ATOM     21  C   UNL     1       5.847   6.744  17.076  0.00  0.00    +0.000 C 
ENDBRANCH  15  16
ENDBRANCH  14  15
ENDBRANCH   3  14
TORSDOF 6
ENDMDL
MODEL 8
REMARK VINA RESULT:      -6.9      1.575      2.163
REMARK  Name = 
REMARK  7 active torsions:
REMARK  status: ('A' for Active; 'I' for Inactive)
REMARK    1  A    between atoms: C_1  and  C_2
REMARK    2  A    between atoms: C_5  and  S_6
REMARK    3  A    between atoms: S_6  and  C_7
REMARK    4  A    between atoms: C_7  and  C_8
REMARK    5  A    between atoms: N_10  and  C_11
REMARK    6  A    between atoms: C_11  and  C_12
REMARK    7  A    between atoms: C_12  and  C_13
REMARK                            x       y       z     vdW  Elec       q    Type
REMARK                         _______ _______ _______ _____ _____    ______ ____
ROOT
ATOM      1  C   UNL     1       7.834   7.710  17.966  0.00  0.00    +0.000 C 
ATOM      2  O   UNL     1       7.329   8.288  16.990  0.00  0.00    +0.000 OA
ATOM      3  N   UNL     1       8.683   8.377  18.834  0.00  0.00    +0.000 N 
ATOM      4  H   UNL     1       9.109   7.851  19.595  0.00  0.00    +0.000 HD
ENDROOT
BRANCH   1   5
ATOM      5  C   UNL     1       7.639   6.215  18.205  0.00  0.00    +0.000 C 
BRANCH   5   6
ATOM      6  S   UNL     1       6.952   5.439  16.694  0.00  0.00    +0.000 S 
BRANCH   6  11
ATOM      7  C   UNL     1       1.239   3.868  18.124  0.00  0.00    +0.000 C 
ATOM      8  C   UNL     1       2.634   4.283  17.760  0.00  0.00    +0.000 A 
ATOM      9  C   UNL     1       3.539   3.366  17.222  0.00  0.00    +0.000 A 
ATOM     10  C   UNL     1       4.836   3.767  16.897  0.00  0.00    +0.000 A 
ATOM     11  C   UNL     1       5.255   5.091  17.091  0.00  0.00    +0.000 A 
ATOM     12  C   UNL     1       4.353   6.007  17.633  0.00  0.00    +0.000 A 
ATOM     13  C   UNL     1       3.052   5.605  17.963  0.00  0.00    +0.000 A 
ENDBRANCH   6  11
ENDBRANCH   5   6
ENDBRANCH   1   5
BRANCH   3  14
ATOM     14  C   UNL     1       8.901   9.795  18.668  0.00  0.00    +0.000 C 
BRANCH  14  15
ATOM     15  C   UNL     1       9.370  10.522  19.927  0.00  0.00    +0.000 C 
BRANCH  15  16
ATOM     16  C   UNL     1      10.149  11.793  19.626  0.00  0.00    +0.000 C 
ATOM     17  C   UNL     1      11.491  11.829  19.756  0.00  0.00    +0.000 C 
ATOM     18  C   UNL     1      12.324  13.052  19.507  0.00  0.00    +0.000 C 
ATOM     19  C   UNL     1      11.502  14.338  19.443  0.00  0.00    +0.000 C 
ATOM     20  C   UNL     1      10.252  14.132  18.597  0.00  0.00    +0.000 C 
ATOM     21  C   UNL     1       9.374  13.014  19.169  0.00  0.00    +0.000 C 
ENDBRANCH  15  16
ENDBRANCH  14  15
ENDBRANCH   3  14
TORSDOF 6
ENDMDL
MODEL 9
REMARK VINA RESULT:      -6.9      3.887      5.981
REMARK  Name = 
REMARK  7 active torsions:
REMARK  status: ('A' for Active; 'I' for Inactive)
REMARK    1  A    between atoms: C_1  and  C_2
REMARK    2  A    between atoms: C_5  and  S_6
REMARK    3  A    between atoms: S_6  and  C_7
REMARK    4  A    between atoms: C_7  and  C_8
REMARK    5  A    between atoms: N_10  and  C_11
REMARK    6  A    between atoms: C_11  and  C_12
REMARK    7  A    between atoms: C_12  and  C_13
REMARK                            x       y       z     vdW  Elec       q    Type
REMARK                         _______ _______ _______ _____ _____    ______ ____
ROOT
ATOM      1  C   UNL     1       2.835   3.768  17.706  0.00  0.00    +0.000 C 
ATOM      2  O   UNL     1       2.165   3.136  16.875  0.00  0.00    +0.000 OA
ATOM      3  N   UNL     1       4.213   3.860  17.596  0.00  0.00    +0.000 N 
ATOM      4  H   UNL     1       4.726   4.351  18.326  0.00  0.00    +0.000 HD
ENDROOT
BRANCH   1   5
ATOM      5  C   UNL     1       2.201   4.386  18.950  0.00  0.00    +0.000 C 
BRANCH   5   6
ATOM      6  S   UNL     1       3.294   5.705  19.602  0.00  0.00    +0.000 S 
BRANCH   6  11
ATOM      7  C   UNL     1       0.399  11.005  18.779  0.00  0.00    +0.000 C 
ATOM      8  C   UNL     1       1.101   9.691  18.952  0.00  0.00    +0.000 A 
ATOM      9  C   UNL     1       1.084   9.023  20.178  0.00  0.00    +0.000 A 
ATOM     10  C   UNL     1       1.750   7.805  20.324  0.00  0.00    +0.000 A 
ATOM     11  C   UNL     1       2.438   7.222  19.250  0.00  0.00    +0.000 A 
ATOM     12  C   UNL     1       2.460   7.891  18.026  0.00  0.00    +0.000 A 
ATOM     13  C   UNL     1       1.794   9.115  17.879  0.00  0.00    +0.000 A 
ENDBRANCH   6  11
ENDBRANCH   5   6
ENDBRANCH   1   5
BRANCH   3  14
ATOM     14  C   UNL     1       4.874   3.304  16.438  0.00  0.00    +0.000 C 
BRANCH  14  15
ATOM     15  C   UNL     1       5.862   4.246  15.753  0.00  0.00    +0.000 C 
BRANCH  15  16
ATOM     16  C   UNL     1       6.472   5.265  16.703  0.00  0.00    +0.000 C 
ATOM     17  C   UNL     1       6.085   6.556  16.674  0.00  0.00    +0.000 C 
ATOM     18  C   UNL     1       6.661   7.624  17.558  0.00  0.00    +0.000 C 
ATOM     19  C   UNL     1       7.963   7.204  18.237  0.00  0.00    +0.000 C 
ATOM     20  C   UNL     1       7.846   5.792  18.795  0.00  0.00    +0.000 C 
ATOM     21  C   UNL     1       7.521   4.784  17.687  0.00  0.00    +0.000 C 
ENDBRANCH  15  16
ENDBRANCH  14  15
ENDBRANCH   3  14
TORSDOF 6
ENDMDL
