MODEL 1
REMARK VINA RESULT:      -7.0      0.000      0.000
REMARK  Name = 
REMARK  5 active torsions:
REMARK  status: ('A' for Active; 'I' for Inactive)
REMARK    1  A    between atoms: C_1  and  SE_2
REMARK    2  A    between atoms: SE_2  and  C_3
REMARK    3  A    between atoms: N_4  and  C_5
REMARK    4  A    between atoms: C_5  and  C_7
REMARK    5  A    between atoms: C_13  and  C_15
REMARK                            x       y       z     vdW  Elec       q    Type
REMARK                         _______ _______ _______ _____ _____    ______ ____
ROOT
ATOM      1  C   UNL     1       4.851   5.062  17.186  0.00  0.00    +0.000 C 
ATOM      2  N   UNL     1       5.769   4.200  16.870  0.00  0.00    +0.000 NA
ATOM      3  N   UNL     1       3.799   4.681  18.086  0.00  0.00    +0.000 N 
ATOM      4  C   UNL     1       3.648   3.436  18.635  0.00  0.00    +0.000 C 
ATOM      5  O   UNL     1       4.379   2.511  18.305  0.00  0.00    +0.000 OA
ATOM      6  H   UNL     1       3.158   5.429  18.398  0.00  0.00    +0.000 HD
ENDROOT
BRANCH   4   7
ATOM      7  C   UNL     1       2.634   3.197  19.693  0.00  0.00    +0.000 A 
ATOM      8  C   UNL     1       1.263   3.308  19.539  0.00  0.00    +0.000 A 
ATOM      9  C   UNL     1       0.716   2.953  20.753  0.00  0.00    +0.000 A 
ATOM     10  C   UNL     1       1.780   2.643  21.574  0.00  0.00    +0.000 A 
ATOM     11  O   UNL     1       2.909   2.796  20.915  0.00  0.00    +0.000 OA
ENDBRANCH   4   7
BRANCH   1  13
ATOM     12  C   UNL     1       3.331   7.642  17.600  0.00  0.00    +0.000 C 
ATOM     13 SE   UNL     1       4.988   6.979  16.783  0.00  0.00    +0.000 Se
ENDBRANCH   1  13
BRANCH   2  14
ATOM     14  C   UNL     1       6.974   4.422  16.145  0.00  0.00    +0.000 C 
ATOM     15  O   UNL     1       8.054   4.473  16.708  0.00  0.00    +0.000 OA
BRANCH  14  16
ATOM     16  C   UNL     1       6.953   4.480  14.675  0.00  0.00    +0.000 A 
ATOM     17  C   UNL     1       6.183   3.709  13.821  0.00  0.00    +0.000 A 
ATOM     18  C   UNL     1       6.544   4.096  12.549  0.00  0.00    +0.000 A 
ATOM     19  C   UNL     1       7.505   5.072  12.697  0.00  0.00    +0.000 A 
ATOM     20  O   UNL     1       7.723   5.284  13.975  0.00  0.00    +0.000 OA
ENDBRANCH  14  16
ENDBRANCH   2  14
TORSDOF 4
ENDMDL
MODEL 2
REMARK VINA RESULT:      -6.9      1.144      1.443
REMARK  Name = 
REMARK  5 active torsions:
REMARK  status: ('A' for Active; 'I' for Inactive)
REMARK    1  A    between atoms: C_1  and  SE_2
REMARK    2  A    between atoms: SE_2  and  C_3
REMARK    3  A    between atoms: N_4  and  C_5
REMARK    4  A    between atoms: C_5  and  C_7
REMARK    5  A    between atoms: C_13  and  C_15
REMARK                            x       y       z     vdW  Elec       q    Type
REMARK                         _______ _______ _______ _____ _____    ______ ____
ROOT
ATOM      1  C   UNL     1       5.274   5.259  17.135  0.00  0.00    +0.000 C 
ATOM      2  N   UNL     1       5.620   4.336  16.288  0.00  0.00    +0.000 NA
ATOM      3  N   UNL     1       4.338   4.948  18.179  0.00  0.00    +0.000 N 
ATOM      4  C   UNL     1       3.728   3.735  18.351  0.00  0.00    +0.000 C 
ATOM      5  O   UNL     1       3.879   2.834  17.537  0.00  0.00    +0.000 OA
ATOM      6  H   UNL     1       4.181   5.676  18.895  0.00  0.00    +0.000 HD
ENDROOT
BRANCH   4   7
ATOM      7  C   UNL     1       2.918   3.465  19.566  0.00  0.00    +0.000 A 
ATOM      8  C   UNL     1       1.595   3.825  19.753  0.00  0.00    +0.000 A 
ATOM      9  C   UNL     1       1.241   3.337  20.992  0.00  0.00    +0.000 A 
ATOM     10  C   UNL     1       2.363   2.705  21.487  0.00  0.00    +0.000 A 
ATOM     11  O   UNL     1       3.346   2.796  20.615  0.00  0.00    +0.000 OA
ENDBRANCH   4   7
BRANCH   1  13
ATOM     12  C   UNL     1       7.683   6.478  18.493  0.00  0.00    +0.000 C 
ATOM     13 SE   UNL     1       6.209   6.978  17.298  0.00  0.00    +0.000 Se
ENDBRANCH   1  13
BRANCH   2  14
ATOM     14  C   UNL     1       6.646   4.387  15.302  0.00  0.00    +0.000 C 
ATOM     15  O   UNL     1       7.805   4.618  15.601  0.00  0.00    +0.000 OA
BRANCH  14  16
ATOM     16  C   UNL     1       6.345   4.041  13.904  0.00  0.00    +0.000 A 
ATOM     17  C   UNL     1       5.133   3.610  13.393  0.00  0.00    +0.000 A 
ATOM     18  C   UNL     1       5.359   3.375  12.055  0.00  0.00    +0.000 A 
ATOM     19  C   UNL     1       6.685   3.672  11.826  0.00  0.00    +0.000 A 
ATOM     20  O   UNL     1       7.245   4.073  12.945  0.00  0.00    +0.000 OA
ENDBRANCH  14  16
ENDBRANCH   2  14
TORSDOF 4
ENDMDL
MODEL 3
REMARK VINA RESULT:      -6.7      2.086      6.819
REMARK  Name = 
REMARK  5 active torsions:
REMARK  status: ('A' for Active; 'I' for Inactive)
REMARK    1  A    between atoms: C_1  and  SE_2
REMARK    2  A    between atoms: SE_2  and  C_3
REMARK    3  A    between atoms: N_4  and  C_5
REMARK    4  A    between atoms: C_5  and  C_7
REMARK    5  A    between atoms: C_13  and  C_15
REMARK                            x       y       z     vdW  Elec       q    Type
REMARK                         _______ _______ _______ _____ _____    ______ ____
ROOT
ATOM      1  C   UNL     1       6.657   4.617  17.838  0.00  0.00    +0.000 C 
ATOM      2  N   UNL     1       5.551   3.964  18.032  0.00  0.00    +0.000 NA
ATOM      3  N   UNL     1       7.161   4.776  16.502  0.00  0.00    +0.000 N 
ATOM      4  C   UNL     1       6.582   4.255  15.377  0.00  0.00    +0.000 C 
ATOM      5  O   UNL     1       5.611   3.514  15.455  0.00  0.00    +0.000 OA
ATOM      6  H   UNL     1       7.978   5.397  16.384  0.00  0.00    +0.000 HD
ENDROOT
BRANCH   4   7
ATOM      7  C   UNL     1       7.083   4.629  14.030  0.00  0.00    +0.000 A 
ATOM      8  C   UNL     1       6.677   4.068  12.831  0.00  0.00    +0.000 A 
ATOM      9  C   UNL     1       7.362   4.745  11.846  0.00  0.00    +0.000 A 
ATOM     10  C   UNL     1       8.140   5.679  12.496  0.00  0.00    +0.000 A 
ATOM     11  O   UNL     1       7.953   5.588  13.796  0.00  0.00    +0.000 OA
ENDBRANCH   4   7
BRANCH   1  13
ATOM     12  C   UNL     1       7.942   7.329  18.197  0.00  0.00    +0.000 C 
ATOM     13 SE   UNL     1       7.522   5.708  19.222  0.00  0.00    +0.000 Se
ENDBRANCH   1  13
BRANCH   2  14
ATOM     14  C   UNL     1       4.800   3.843  19.236  0.00  0.00    +0.000 C 
ATOM     15  O   UNL     1       5.070   2.997  20.070  0.00  0.00    +0.000 OA
BRANCH  14  16
ATOM     16  C   UNL     1       3.747   4.821  19.552  0.00  0.00    +0.000 A 
ATOM     17  C   UNL     1       2.678   4.647  20.413  0.00  0.00    +0.000 A 
ATOM     18  C   UNL     1       1.953   5.816  20.342  0.00  0.00    +0.000 A 
ATOM     19  C   UNL     1       2.614   6.631  19.449  0.00  0.00    +0.000 A 
ATOM     20  O   UNL     1       3.683   6.013  18.999  0.00  0.00    +0.000 OA
ENDBRANCH  14  16
ENDBRANCH   2  14
TORSDOF 4
ENDMDL
MODEL 4
REMARK VINA RESULT:      -6.5      1.902      6.973
REMARK  Name = 
REMARK  5 active torsions:
REMARK  status: ('A' for Active; 'I' for Inactive)
REMARK    1  A    between atoms: C_1  and  SE_2
REMARK    2  A    between atoms: SE_2  and  C_3
REMARK    3  A    between atoms: N_4  and  C_5
REMARK    4  A    between atoms: C_5  and  C_7
REMARK    5  A    between atoms: C_13  and  C_15
REMARK                            x       y       z     vdW  Elec       q    Type
REMARK                         _______ _______ _______ _____ _____    ______ ____
ROOT
ATOM      1  C   UNL     1       5.679   4.930  17.916  0.00  0.00    +0.000 C 
ATOM      2  N   UNL     1       4.382   4.958  17.996  0.00  0.00    +0.000 NA
ATOM      3  N   UNL     1       6.306   4.710  16.643  0.00  0.00    +0.000 N 
ATOM      4  C   UNL     1       5.641   4.484  15.468  0.00  0.00    +0.000 C 
ATOM      5  O   UNL     1       4.423   4.359  15.449  0.00  0.00    +0.000 OA
ATOM      6  H   UNL     1       7.333   4.810  16.607  0.00  0.00    +0.000 HD
ENDROOT
BRANCH   4   7
ATOM      7  C   UNL     1       6.378   4.449  14.180  0.00  0.00    +0.000 A 
ATOM      8  C   UNL     1       6.121   3.592  13.124  0.00  0.00    +0.000 A 
ATOM      9  C   UNL     1       7.008   3.942  12.129  0.00  0.00    +0.000 A 
ATOM     10  C   UNL     1       7.750   4.991  12.631  0.00  0.00    +0.000 A 
ATOM     11  O   UNL     1       7.352   5.272  13.854  0.00  0.00    +0.000 OA
ENDBRANCH   4   7
BRANCH   1  13
ATOM     12  C   UNL     1       7.944   6.861  18.442  0.00  0.00    +0.000 C 
ATOM     13 SE   UNL     1       6.861   5.513  19.371  0.00  0.00    +0.000 Se
ENDBRANCH   1  13
BRANCH   2  14
ATOM     14  C   UNL     1       3.576   5.328  19.111  0.00  0.00    +0.000 C 
ATOM     15  O   UNL     1       3.290   6.492  19.329  0.00  0.00    +0.000 OA
BRANCH  14  16
ATOM     16  C   UNL     1       2.971   4.291  19.961  0.00  0.00    +0.000 A 
ATOM     17  C   UNL     1       1.715   4.316  20.541  0.00  0.00    +0.000 A 
ATOM     18  C   UNL     1       1.622   3.153  21.272  0.00  0.00    +0.000 A 
ATOM     19  C   UNL     1       2.817   2.489  21.100  0.00  0.00    +0.000 A 
ATOM     20  O   UNL     1       3.598   3.188  20.308  0.00  0.00    +0.000 OA
ENDBRANCH  14  16
ENDBRANCH   2  14
TORSDOF 4
ENDMDL
MODEL 5
REMARK VINA RESULT:      -6.5      1.599      1.987
REMARK  Name = 
REMARK  5 active torsions:
REMARK  status: ('A' for Active; 'I' for Inactive)
REMARK    1  A    between atoms: C_1  and  SE_2
REMARK    2  A    between atoms: SE_2  and  C_3
REMARK    3  A    between atoms: N_4  and  C_5
REMARK    4  A    between atoms: C_5  and  C_7
REMARK    5  A    between atoms: C_13  and  C_15
REMARK                            x       y       z     vdW  Elec       q    Type
REMARK                         _______ _______ _______ _____ _____    ______ ____
ROOT
ATOM      1  C   UNL     1       5.544   5.688  16.995  0.00  0.00    +0.000 C 
ATOM      2  N   UNL     1       5.574   4.924  15.945  0.00  0.00    +0.000 NA
ATOM      3  N   UNL     1       4.554   5.460  18.011  0.00  0.00    +0.000 N 
ATOM      4  C   UNL     1       3.581   4.498  17.958  0.00  0.00    +0.000 C 
ATOM      5  O   UNL     1       3.434   3.808  16.958  0.00  0.00    +0.000 OA
ATOM      6  H   UNL     1       4.640   6.015  18.878  0.00  0.00    +0.000 HD
ENDROOT
BRANCH   4   7
ATOM      7  C   UNL     1       2.724   4.227  19.139  0.00  0.00    +0.000 A 
ATOM      8  C   UNL     1       1.374   3.922  19.106  0.00  0.00    +0.000 A 
ATOM      9  C   UNL     1       1.003   3.706  20.415  0.00  0.00    +0.000 A 
ATOM     10  C   UNL     1       2.143   3.888  21.169  0.00  0.00    +0.000 A 
ATOM     11  O   UNL     1       3.153   4.196  20.382  0.00  0.00    +0.000 OA
ENDBRANCH   4   7
BRANCH   1  13
ATOM     12  C   UNL     1       7.789   6.006  18.994  0.00  0.00    +0.000 C 
ATOM     13 SE   UNL     1       6.986   6.935  17.462  0.00  0.00    +0.000 Se
ENDBRANCH   1  13
BRANCH   2  14
ATOM     14  C   UNL     1       6.563   4.870  14.923  0.00  0.00    +0.000 C 
ATOM     15  O   UNL     1       7.689   5.301  15.105  0.00  0.00    +0.000 OA
BRANCH  14  16
ATOM     16  C   UNL     1       6.279   4.181  13.654  0.00  0.00    +0.000 A 
ATOM     17  C   UNL     1       7.180   3.880  12.648  0.00  0.00    +0.000 A 
ATOM     18  C   UNL     1       6.437   3.279  11.656  0.00  0.00    +0.000 A 
ATOM     19  C   UNL     1       5.136   3.248  12.108  0.00  0.00    +0.000 A 
ATOM     20  O   UNL     1       5.074   3.787  13.305  0.00  0.00    +0.000 OA
ENDBRANCH  14  16
ENDBRANCH   2  14
TORSDOF 4
ENDMDL
MODEL 6
REMARK VINA RESULT:      -6.5      1.860      6.948
REMARK  Name = 
REMARK  5 active torsions:
REMARK  status: ('A' for Active; 'I' for Inactive)
REMARK    1  A    between atoms: C_1  and  SE_2
REMARK    2  A    between atoms: SE_2  and  C_3
REMARK    3  A    between atoms: N_4  and  C_5
REMARK    4  A    between atoms: C_5  and  C_7
REMARK    5  A    between atoms: C_13  and  C_15
REMARK                            x       y       z     vdW  Elec       q    Type
REMARK                         _______ _______ _______ _____ _____    ______ ____
ROOT
ATOM      1  C   UNL     1       4.187   3.509  17.400  0.00  0.00    +0.000 C 
ATOM      2  N   UNL     1       4.907   3.368  18.472  0.00  0.00    +0.000 NA
ATOM      3  N   UNL     1       4.811   3.923  16.175  0.00  0.00    +0.000 N 
ATOM      4  C   UNL     1       6.139   4.229  16.035  0.00  0.00    +0.000 C 
ATOM      5  O   UNL     1       6.883   4.257  17.006  0.00  0.00    +0.000 OA
ATOM      6  H   UNL     1       4.225   3.911  15.326  0.00  0.00    +0.000 HD
ENDROOT
BRANCH   4   7
ATOM      7  C   UNL     1       6.718   4.471  14.689  0.00  0.00    +0.000 A 
ATOM      8  C   UNL     1       6.314   3.864  13.513  0.00  0.00    +0.000 A 
ATOM      9  C   UNL     1       7.087   4.418  12.517  0.00  0.00    +0.000 A 
ATOM     10  C   UNL     1       7.914   5.330  13.138  0.00  0.00    +0.000 A 
ATOM     11  O   UNL     1       7.671   5.341  14.432  0.00  0.00    +0.000 OA
ENDBRANCH   4   7
BRANCH   1  13
ATOM     12  C   UNL     1       1.343   4.522  17.558  0.00  0.00    +0.000 C 
ATOM     13 SE   UNL     1       2.340   2.859  17.249  0.00  0.00    +0.000 Se
ENDBRANCH   1  13
BRANCH   2  14
ATOM     14  C   UNL     1       4.522   2.809  19.724  0.00  0.00    +0.000 C 
ATOM     15  O   UNL     1       5.220   1.988  20.294  0.00  0.00    +0.000 OA
BRANCH  14  16
ATOM     16  C   UNL     1       3.322   3.303  20.417  0.00  0.00    +0.000 A 
ATOM     17  C   UNL     1       2.343   2.545  21.034  0.00  0.00    +0.000 A 
ATOM     18  C   UNL     1       1.412   3.449  21.496  0.00  0.00    +0.000 A 
ATOM     19  C   UNL     1       1.871   4.698  21.137  0.00  0.00    +0.000 A 
ATOM     20  O   UNL     1       3.014   4.579  20.501  0.00  0.00    +0.000 OA
ENDBRANCH  14  16
ENDBRANCH   2  14
TORSDOF 4
ENDMDL
MODEL 7
REMARK VINA RESULT:      -6.5      0.881      1.075
REMARK  Name = 
REMARK  5 active torsions:
REMARK  status: ('A' for Active; 'I' for Inactive)
REMARK    1  A    between atoms: C_1  and  SE_2
REMARK    2  A    between atoms: SE_2  and  C_3
REMARK    3  A    between atoms: N_4  and  C_5
REMARK    4  A    between atoms: C_5  and  C_7
REMARK    5  A    between atoms: C_13  and  C_15
REMARK                            x       y       z     vdW  Elec       q    Type
REMARK                         _______ _______ _______ _____ _____    ______ ____
ROOT
ATOM      1  C   UNL     1       4.564   5.491  17.058  0.00  0.00    +0.000 C 
ATOM      2  N   UNL     1       5.439   4.701  16.513  0.00  0.00    +0.000 NA
ATOM      3  N   UNL     1       3.679   4.981  18.068  0.00  0.00    +0.000 N 
ATOM      4  C   UNL     1       3.647   3.683  18.501  0.00  0.00    +0.000 C 
ATOM      5  O   UNL     1       4.336   2.825  17.966  0.00  0.00    +0.000 OA
ATOM      6  H   UNL     1       3.080   5.669  18.553  0.00  0.00    +0.000 HD
ENDROOT
BRANCH   4   7
ATOM      7  C   UNL     1       2.822   3.300  19.674  0.00  0.00    +0.000 A 
ATOM      8  C   UNL     1       1.445   3.409  19.765  0.00  0.00    +0.000 A 
ATOM      9  C   UNL     1       1.106   2.899  20.999  0.00  0.00    +0.000 A 
ATOM     10  C   UNL     1       2.290   2.507  21.588  0.00  0.00    +0.000 A 
ATOM     11  O   UNL     1       3.295   2.757  20.775  0.00  0.00    +0.000 OA
ENDBRANCH   4   7
BRANCH   1  13
ATOM     12  C   UNL     1       2.932   7.935  17.768  0.00  0.00    +0.000 C 
ATOM     13 SE   UNL     1       4.591   7.442  16.841  0.00  0.00    +0.000 Se
ENDBRANCH   1  13
BRANCH   2  14
ATOM     14  C   UNL     1       6.507   5.042  15.634  0.00  0.00    +0.000 C 
ATOM     15  O   UNL     1       7.467   5.685  16.021  0.00  0.00    +0.000 OA
BRANCH  14  16
ATOM     16  C   UNL     1       6.528   4.518  14.259  0.00  0.00    +0.000 A 
ATOM     17  C   UNL     1       7.435   4.829  13.262  0.00  0.00    +0.000 A 
ATOM     18  C   UNL     1       7.018   4.129  12.152  0.00  0.00    +0.000 A 
ATOM     19  C   UNL     1       5.888   3.436  12.531  0.00  0.00    +0.000 A 
ATOM     20  O   UNL     1       5.624   3.683  13.794  0.00  0.00    +0.000 OA
ENDBRANCH  14  16
ENDBRANCH   2  14
TORSDOF 4
ENDMDL
MODEL 8
REMARK VINA RESULT:      -6.5      1.369      1.818
REMARK  Name = 
REMARK  5 active torsions:
REMARK  status: ('A' for Active; 'I' for Inactive)
REMARK    1  A    between atoms: C_1  and  SE_2
REMARK    2  A    between atoms: SE_2  and  C_3
REMARK    3  A    between atoms: N_4  and  C_5
REMARK    4  A    between atoms: C_5  and  C_7
REMARK    5  A    between atoms: C_13  and  C_15
REMARK                            x       y       z     vdW  Elec       q    Type
REMARK                         _______ _______ _______ _____ _____    ______ ____
ROOT
ATOM      1  C   UNL     1       5.083   5.220  17.045  0.00  0.00    +0.000 C 
ATOM      2  N   UNL     1       5.469   4.292  16.221  0.00  0.00    +0.000 NA
ATOM      3  N   UNL     1       4.153   4.898  18.091  0.00  0.00    +0.000 N 
ATOM      4  C   UNL     1       3.586   3.667  18.287  0.00  0.00    +0.000 C 
ATOM      5  O   UNL     1       3.776   2.754  17.493  0.00  0.00    +0.000 OA
ATOM      6  H   UNL     1       3.963   5.635  18.789  0.00  0.00    +0.000 HD
ENDROOT
BRANCH   4   7
ATOM      7  C   UNL     1       2.779   3.394  19.502  0.00  0.00    +0.000 A 
ATOM      8  C   UNL     1       3.199   2.679  20.609  0.00  0.00    +0.000 A 
ATOM      9  C   UNL     1       2.152   2.716  21.504  0.00  0.00    +0.000 A 
ATOM     10  C   UNL     1       1.157   3.452  20.896  0.00  0.00    +0.000 A 
ATOM     11  O   UNL     1       1.559   3.844  19.705  0.00  0.00    +0.000 OA
ENDBRANCH   4   7
BRANCH   1  13
ATOM     12  C   UNL     1       7.526   6.522  18.259  0.00  0.00    +0.000 C 
ATOM     13 SE   UNL     1       5.953   6.975  17.175  0.00  0.00    +0.000 Se
ENDBRANCH   1  13
BRANCH   2  14
ATOM     14  C   UNL     1       6.499   4.358  15.240  0.00  0.00    +0.000 C 
ATOM     15  O   UNL     1       7.646   4.638  15.541  0.00  0.00    +0.000 OA
BRANCH  14  16
ATOM     16  C   UNL     1       6.220   3.971  13.848  0.00  0.00    +0.000 A 
ATOM     17  C   UNL     1       7.119   3.927  12.798  0.00  0.00    +0.000 A 
ATOM     18  C   UNL     1       6.382   3.552  11.697  0.00  0.00    +0.000 A 
ATOM     19  C   UNL     1       5.085   3.391  12.132  0.00  0.00    +0.000 A 
ATOM     20  O   UNL     1       5.020   3.642  13.420  0.00  0.00    +0.000 OA
ENDBRANCH  14  16
ENDBRANCH   2  14
TORSDOF 4
ENDMDL
MODEL 9
REMARK VINA RESULT:      -6.5      3.522      4.893
REMARK  Name = 
REMARK  5 active torsions:
REMARK  status: ('A' for Active; 'I' for Inactive)
REMARK    1  A    between atoms: C_1  and  SE_2
REMARK    2  A    between atoms: SE_2  and  C_3
REMARK    3  A    between atoms: N_4  and  C_5
REMARK    4  A    between atoms: C_5  and  C_7
REMARK    5  A    between atoms: C_13  and  C_15
REMARK                            x       y       z     vdW  Elec       q    Type
REMARK                         _______ _______ _______ _____ _____    ______ ____
ROOT
ATOM      1  C   UNL     1       2.906   5.222  19.617  0.00  0.00    +0.000 C 
ATOM      2  N   UNL     1       3.215   5.406  18.368  0.00  0.00    +0.000 NA
ATOM      3  N   UNL     1       2.320   6.297  20.368  0.00  0.00    +0.000 N 
ATOM      4  C   UNL     1       2.079   7.554  19.883  0.00  0.00    +0.000 C 
ATOM      5  O   UNL     1       2.450   7.877  18.762  0.00  0.00    +0.000 OA
ATOM      6  H   UNL     1       1.986   6.072  21.319  0.00  0.00    +0.000 HD
ENDROOT
BRANCH   4   7
ATOM      7  C   UNL     1       1.305   8.535  20.685  0.00  0.00    +0.000 A 
ATOM      8  C   UNL     1       0.487   9.529  20.177  0.00  0.00    +0.000 A 
ATOM      9  C   UNL     1      -0.060  10.165  21.271  0.00  0.00    +0.000 A 
ATOM     10  C   UNL     1       0.451   9.523  22.379  0.00  0.00    +0.000 A 
ATOM     11  O   UNL     1       1.260   8.556  22.000  0.00  0.00    +0.000 OA
ENDBRANCH   4   7
BRANCH   1  13
ATOM     12  C   UNL     1       1.028   2.897  20.072  0.00  0.00    +0.000 C 
ATOM     13 SE   UNL     1       2.868   3.454  20.469  0.00  0.00    +0.000 Se
ENDBRANCH   1  13
BRANCH   2  14
ATOM     14  C   UNL     1       3.637   4.437  17.414  0.00  0.00    +0.000 C 
ATOM     15  O   UNL     1       2.864   3.609  16.964  0.00  0.00    +0.000 OA
BRANCH  14  16
ATOM     16  C   UNL     1       4.999   4.491  16.859  0.00  0.00    +0.000 A 
ATOM     17  C   UNL     1       5.357   4.453  15.523  0.00  0.00    +0.000 A 
ATOM     18  C   UNL     1       6.734   4.487  15.510  0.00  0.00    +0.000 A 
ATOM     19  C   UNL     1       7.135   4.543  16.827  0.00  0.00    +0.000 A 
ATOM     20  O   UNL     1       6.079   4.550  17.608  0.00  0.00    +0.000 OA
ENDBRANCH  14  16
ENDBRANCH   2  14
TORSDOF 4
ENDMDL
