MODEL 1
REMARK VINA RESULT:      -7.9      0.000      0.000
REMARK  Name = 
REMARK  9 active torsions:
REMARK  status: ('A' for Active; 'I' for Inactive)
REMARK    1  A    between atoms: C_1  and  O_2
REMARK    2  A    between atoms: O_2  and  C_3
REMARK    3  A    between atoms: C_7  and  N_8
REMARK    4  A    between atoms: C_9  and  C_11
REMARK    5  A    between atoms: C_11  and  C_12
REMARK    6  A    between atoms: N_15  and  C_16
REMARK    7  A    between atoms: C_16  and  C_17
REMARK    8  A    between atoms: C_22  and  O_23
REMARK    9  A    between atoms: O_23  and  C_24
REMARK                            x       y       z     vdW  Elec       q    Type
REMARK                         _______ _______ _______ _____ _____    ______ ____
ROOT
ATOM      1  C   UNL     1       2.602   3.455  19.775  0.00  0.00    +0.000 C 
ATOM      2  C   UNL     1       2.978   2.910  21.166  0.00  0.00    +0.000 C 
ATOM      3  C   UNL     1       1.804   2.362  18.994  0.00  0.00    +0.000 C 
ATOM      4  C   UNL     1       3.166   1.958  18.403  0.00  0.00    +0.000 C 
ATOM      5  N   UNL     1       3.625   3.356  18.626  0.00  0.00    +0.000 NA
ENDROOT
BRANCH   1   7
ATOM      6  N   UNL     1       2.516   5.968  19.496  0.00  0.00    +0.000 N 
ATOM      7  C   UNL     1       1.808   4.852  19.906  0.00  0.00    +0.000 C 
ATOM      8  O   UNL     1       0.659   4.901  20.356  0.00  0.00    +0.000 OA
ATOM      9  H   UNL     1       3.491   5.799  19.250  0.00  0.00    +0.000 HD
BRANCH   6  14
ATOM     10  C   UNL     1       1.087   9.229  20.571  0.00  0.00    +0.000 A 
ATOM     11  C   UNL     1       1.091   9.939  19.372  0.00  0.00    +0.000 A 
ATOM     12  C   UNL     1       1.590   9.347  18.212  0.00  0.00    +0.000 A 
ATOM     13  C   UNL     1       2.058   8.034  18.238  0.00  0.00    +0.000 A 
ATOM     14  C   UNL     1       2.054   7.304  19.425  0.00  0.00    +0.000 A 
ATOM     15  C   UNL     1       1.585   7.925  20.599  0.00  0.00    +0.000 A 
BRANCH  10  17
ATOM     16  C   UNL     1      -0.358   9.228  22.480  0.00  0.00    +0.000 C 
ATOM     17  O   UNL     1       0.550   9.913  21.630  0.00  0.00    +0.000 OA
ENDBRANCH  10  17
ENDBRANCH   6  14
ENDBRANCH   1   7
BRANCH   5  18
ATOM     18  C   UNL     1       5.041   3.400  19.018  0.00  0.00    +0.000 C 
BRANCH  18  19
ATOM     19  C   UNL     1       5.928   4.459  18.320  0.00  0.00    +0.000 A 
ATOM     20  C   UNL     1       6.625   5.348  19.172  0.00  0.00    +0.000 A 
ATOM     21  C   UNL     1       7.428   6.398  18.689  0.00  0.00    +0.000 A 
ATOM     22  C   UNL     1       7.576   6.590  17.325  0.00  0.00    +0.000 A 
ATOM     23  C   UNL     1       6.909   5.733  16.461  0.00  0.00    +0.000 A 
ATOM     24  C   UNL     1       6.074   4.703  16.938  0.00  0.00    +0.000 A 
BRANCH  24  25
ATOM     25  O   UNL     1       5.507   4.012  15.905  0.00  0.00    +0.000 OA
BRANCH  25  26
ATOM     26  C   UNL     1       5.990   4.387  14.643  0.00  0.00    +0.000 C 
ATOM     27  F   UNL     1       6.500   3.287  14.033  0.00  0.00    +0.000 F 
ATOM     28  F   UNL     1       4.907   4.741  13.926  0.00  0.00    +0.000 F 
ENDBRANCH  25  26
ENDBRANCH  24  25
ENDBRANCH  18  19
ENDBRANCH   5  18
TORSDOF 7
ENDMDL
MODEL 2
REMARK VINA RESULT:      -7.8      1.988      2.527
REMARK  Name = 
REMARK  9 active torsions:
REMARK  status: ('A' for Active; 'I' for Inactive)
REMARK    1  A    between atoms: C_1  and  O_2
REMARK    2  A    between atoms: O_2  and  C_3
REMARK    3  A    between atoms: C_7  and  N_8
REMARK    4  A    between atoms: C_9  and  C_11
REMARK    5  A    between atoms: C_11  and  C_12
REMARK    6  A    between atoms: N_15  and  C_16
REMARK    7  A    between atoms: C_16  and  C_17
REMARK    8  A    between atoms: C_22  and  O_23
REMARK    9  A    between atoms: O_23  and  C_24
REMARK                            x       y       z     vdW  Elec       q    Type
REMARK                         _______ _______ _______ _____ _____    ______ ____
ROOT
ATOM      1  C   UNL     1       2.549   3.382  19.775  0.00  0.00    +0.000 C 
ATOM      2  C   UNL     1       3.197   2.938  21.100  0.00  0.00    +0.000 C 
ATOM      3  C   UNL     1       1.684   2.211  19.209  0.00  0.00    +0.000 C 
ATOM      4  C   UNL     1       2.937   1.832  18.402  0.00  0.00    +0.000 C 
ATOM      5  N   UNL     1       3.353   3.259  18.466  0.00  0.00    +0.000 NA
ENDROOT
BRANCH   1   7
ATOM      6  N   UNL     1       2.405   5.905  19.653  0.00  0.00    +0.000 N 
ATOM      7  C   UNL     1       1.718   4.749  19.977  0.00  0.00    +0.000 C 
ATOM      8  O   UNL     1       0.560   4.741  20.406  0.00  0.00    +0.000 OA
ATOM      9  H   UNL     1       3.389   5.775  19.416  0.00  0.00    +0.000 HD
BRANCH   6  14
ATOM     10  C   UNL     1       0.660   8.977  20.815  0.00  0.00    +0.000 A 
ATOM     11  C   UNL     1       0.870   9.836  19.738  0.00  0.00    +0.000 A 
ATOM     12  C   UNL     1       1.610   9.407  18.636  0.00  0.00    +0.000 A 
ATOM     13  C   UNL     1       2.118   8.109  18.593  0.00  0.00    +0.000 A 
ATOM     14  C   UNL     1       1.912   7.232  19.657  0.00  0.00    +0.000 A 
ATOM     15  C   UNL     1       1.196   7.688  20.780  0.00  0.00    +0.000 A 
BRANCH  10  17
ATOM     16  C   UNL     1       0.391   9.430  23.150  0.00  0.00    +0.000 C 
ATOM     17  O   UNL     1      -0.102   9.511  21.821  0.00  0.00    +0.000 OA
ENDBRANCH  10  17
ENDBRANCH   6  14
ENDBRANCH   1   7
BRANCH   5  18
ATOM     18  C   UNL     1       4.812   3.388  18.591  0.00  0.00    +0.000 C 
BRANCH  18  19
ATOM     19  C   UNL     1       5.565   4.012  17.391  0.00  0.00    +0.000 A 
ATOM     20  C   UNL     1       4.876   4.015  16.156  0.00  0.00    +0.000 A 
ATOM     21  C   UNL     1       5.447   4.497  14.963  0.00  0.00    +0.000 A 
ATOM     22  C   UNL     1       6.732   5.012  14.966  0.00  0.00    +0.000 A 
ATOM     23  C   UNL     1       7.435   5.027  16.162  0.00  0.00    +0.000 A 
ATOM     24  C   UNL     1       6.884   4.512  17.352  0.00  0.00    +0.000 A 
BRANCH  24  25
ATOM     25  O   UNL     1       7.769   4.611  18.387  0.00  0.00    +0.000 OA
BRANCH  25  26
ATOM     26  C   UNL     1       7.550   5.724  19.212  0.00  0.00    +0.000 C 
ATOM     27  F   UNL     1       8.184   5.515  20.394  0.00  0.00    +0.000 F 
ATOM     28  F   UNL     1       8.192   6.750  18.622  0.00  0.00    +0.000 F 
ENDBRANCH  25  26
ENDBRANCH  24  25
ENDBRANCH  18  19
ENDBRANCH   5  18
TORSDOF 7
ENDMDL
MODEL 3
REMARK VINA RESULT:      -7.7      1.501      1.705
REMARK  Name = 
REMARK  9 active torsions:
REMARK  status: ('A' for Active; 'I' for Inactive)
REMARK    1  A    between atoms: C_1  and  O_2
REMARK    2  A    between atoms: O_2  and  C_3
REMARK    3  A    between atoms: C_7  and  N_8
REMARK    4  A    between atoms: C_9  and  C_11
REMARK    5  A    between atoms: C_11  and  C_12
REMARK    6  A    between atoms: N_15  and  C_16
REMARK    7  A    between atoms: C_16  and  C_17
REMARK    8  A    between atoms: C_22  and  O_23
REMARK    9  A    between atoms: O_23  and  C_24
REMARK                            x       y       z     vdW  Elec       q    Type
REMARK                         _______ _______ _______ _____ _____    ______ ____
ROOT
ATOM      1  C   UNL     1       2.792   4.921  18.633  0.00  0.00    +0.000 C 
ATOM      2  C   UNL     1       3.097   4.355  20.033  0.00  0.00    +0.000 C 
ATOM      3  C   UNL     1       1.558   4.172  18.035  0.00  0.00    +0.000 C 
ATOM      4  C   UNL     1       2.591   3.245  17.372  0.00  0.00    +0.000 C 
ATOM      5  N   UNL     1       3.561   4.372  17.415  0.00  0.00    +0.000 NA
ENDROOT
BRANCH   1   7
ATOM      6  N   UNL     1       1.694   6.963  19.645  0.00  0.00    +0.000 N 
ATOM      7  C   UNL     1       2.597   6.520  18.695  0.00  0.00    +0.000 C 
ATOM      8  O   UNL     1       3.207   7.274  17.929  0.00  0.00    +0.000 OA
ATOM      9  H   UNL     1       1.180   6.230  20.133  0.00  0.00    +0.000 HD
BRANCH   6  14
ATOM     10  C   UNL     1       0.725   9.918  21.685  0.00  0.00    +0.000 A 
ATOM     11  C   UNL     1       0.711  10.924  20.721  0.00  0.00    +0.000 A 
ATOM     12  C   UNL     1       1.045  10.630  19.400  0.00  0.00    +0.000 A 
ATOM     13  C   UNL     1       1.367   9.325  19.030  0.00  0.00    +0.000 A 
ATOM     14  C   UNL     1       1.379   8.303  19.977  0.00  0.00    +0.000 A 
ATOM     15  C   UNL     1       1.077   8.618  21.316  0.00  0.00    +0.000 A 
BRANCH  10  17
ATOM     16  C   UNL     1      -1.009  10.658  23.160  0.00  0.00    +0.000 C 
ATOM     17  O   UNL     1       0.355  10.332  22.938  0.00  0.00    +0.000 OA
ENDBRANCH  10  17
ENDBRANCH   6  14
ENDBRANCH   1   7
BRANCH   5  18
ATOM     18  C   UNL     1       4.926   3.895  17.677  0.00  0.00    +0.000 C 
BRANCH  18  19
ATOM     19  C   UNL     1       6.030   4.972  17.812  0.00  0.00    +0.000 A 
ATOM     20  C   UNL     1       6.687   5.038  19.063  0.00  0.00    +0.000 A 
ATOM     21  C   UNL     1       7.673   5.997  19.359  0.00  0.00    +0.000 A 
ATOM     22  C   UNL     1       8.053   6.922  18.401  0.00  0.00    +0.000 A 
ATOM     23  C   UNL     1       7.431   6.883  17.161  0.00  0.00    +0.000 A 
ATOM     24  C   UNL     1       6.417   5.949  16.871  0.00  0.00    +0.000 A 
BRANCH  24  25
ATOM     25  O   UNL     1       5.939   6.121  15.603  0.00  0.00    +0.000 OA
BRANCH  25  26
ATOM     26  C   UNL     1       6.406   5.163  14.690  0.00  0.00    +0.000 C 
ATOM     27  F   UNL     1       7.366   4.421  15.298  0.00  0.00    +0.000 F 
ATOM     28  F   UNL     1       5.372   4.328  14.474  0.00  0.00    +0.000 F 
ENDBRANCH  25  26
ENDBRANCH  24  25
ENDBRANCH  18  19
ENDBRANCH   5  18
TORSDOF 7
ENDMDL
MODEL 4
REMARK VINA RESULT:      -7.5      3.431      6.703
REMARK  Name = 
REMARK  9 active torsions:
REMARK  status: ('A' for Active; 'I' for Inactive)
REMARK    1  A    between atoms: C_1  and  O_2
REMARK    2  A    between atoms: O_2  and  C_3
REMARK    3  A    between atoms: C_7  and  N_8
REMARK    4  A    between atoms: C_9  and  C_11
REMARK    5  A    between atoms: C_11  and  C_12
REMARK    6  A    between atoms: N_15  and  C_16
REMARK    7  A    between atoms: C_16  and  C_17
REMARK    8  A    between atoms: C_22  and  O_23
REMARK    9  A    between atoms: O_23  and  C_24
REMARK                            x       y       z     vdW  Elec       q    Type
REMARK                         _______ _______ _______ _____ _____    ______ ____
ROOT
ATOM      1  C   UNL     1       2.906   3.081  19.971  0.00  0.00    +0.000 C 
ATOM      2  C   UNL     1       1.836   2.364  19.126  0.00  0.00    +0.000 C 
ATOM      3  C   UNL     1       3.130   2.286  21.297  0.00  0.00    +0.000 C 
ATOM      4  C   UNL     1       2.090   3.243  21.907  0.00  0.00    +0.000 C 
ATOM      5  N   UNL     1       2.486   4.249  20.884  0.00  0.00    +0.000 NA
ENDROOT
BRANCH   1   7
ATOM      6  N   UNL     1       4.078   3.842  17.862  0.00  0.00    +0.000 N 
ATOM      7  C   UNL     1       4.258   3.291  19.119  0.00  0.00    +0.000 C 
ATOM      8  O   UNL     1       5.361   2.961  19.567  0.00  0.00    +0.000 OA
ATOM      9  H   UNL     1       3.107   3.965  17.576  0.00  0.00    +0.000 HD
BRANCH   6  14
ATOM     10  C   UNL     1       6.893   5.721  16.320  0.00  0.00    +0.000 A 
ATOM     11  C   UNL     1       7.066   5.025  15.125  0.00  0.00    +0.000 A 
ATOM     12  C   UNL     1       6.266   3.919  14.840  0.00  0.00    +0.000 A 
ATOM     13  C   UNL     1       5.272   3.521  15.733  0.00  0.00    +0.000 A 
ATOM     14  C   UNL     1       5.078   4.208  16.930  0.00  0.00    +0.000 A 
ATOM     15  C   UNL     1       5.917   5.301  17.225  0.00  0.00    +0.000 A 
BRANCH  10  17
ATOM     16  C   UNL     1       7.477   7.693  17.545  0.00  0.00    +0.000 C 
ATOM     17  O   UNL     1       7.724   6.801  16.468  0.00  0.00    +0.000 OA
ENDBRANCH  10  17
ENDBRANCH   6  14
ENDBRANCH   1   7
BRANCH   5  18
ATOM     18  C   UNL     1       1.330   5.037  20.433  0.00  0.00    +0.000 C 
BRANCH  18  19
ATOM     19  C   UNL     1       1.630   6.412  19.789  0.00  0.00    +0.000 A 
ATOM     20  C   UNL     1       2.245   6.384  18.515  0.00  0.00    +0.000 A 
ATOM     21  C   UNL     1       2.629   7.550  17.826  0.00  0.00    +0.000 A 
ATOM     22  C   UNL     1       2.395   8.796  18.383  0.00  0.00    +0.000 A 
ATOM     23  C   UNL     1       1.790   8.860  19.629  0.00  0.00    +0.000 A 
ATOM     24  C   UNL     1       1.437   7.697  20.342  0.00  0.00    +0.000 A 
BRANCH  24  25
ATOM     25  O   UNL     1       0.883   8.009  21.550  0.00  0.00    +0.000 OA
BRANCH  25  26
ATOM     26  C   UNL     1       0.700   9.385  21.748  0.00  0.00    +0.000 C 
ATOM     27  F   UNL     1      -0.609   9.680  21.539  0.00  0.00    +0.000 F 
ATOM     28  F   UNL     1       0.925   9.601  23.057  0.00  0.00    +0.000 F 
ENDBRANCH  25  26
ENDBRANCH  24  25
ENDBRANCH  18  19
ENDBRANCH   5  18
TORSDOF 7
ENDMDL
MODEL 5
REMARK VINA RESULT:      -7.5      2.128      2.932
REMARK  Name = 
REMARK  9 active torsions:
REMARK  status: ('A' for Active; 'I' for Inactive)
REMARK    1  A    between atoms: C_1  and  O_2
REMARK    2  A    between atoms: O_2  and  C_3
REMARK    3  A    between atoms: C_7  and  N_8
REMARK    4  A    between atoms: C_9  and  C_11
REMARK    5  A    between atoms: C_11  and  C_12
REMARK    6  A    between atoms: N_15  and  C_16
REMARK    7  A    between atoms: C_16  and  C_17
REMARK    8  A    between atoms: C_22  and  O_23
REMARK    9  A    between atoms: O_23  and  C_24
REMARK                            x       y       z     vdW  Elec       q    Type
REMARK                         _______ _______ _______ _____ _____    ______ ____
ROOT
ATOM      1  C   UNL     1       2.567   3.436  19.717  0.00  0.00    +0.000 C 
ATOM      2  C   UNL     1       3.235   2.821  20.961  0.00  0.00    +0.000 C 
ATOM      3  C   UNL     1       1.729   2.336  18.989  0.00  0.00    +0.000 C 
ATOM      4  C   UNL     1       2.987   2.113  18.131  0.00  0.00    +0.000 C 
ATOM      5  N   UNL     1       3.365   3.527  18.401  0.00  0.00    +0.000 NA
ENDROOT
BRANCH   1   7
ATOM      6  N   UNL     1       2.386   5.935  20.061  0.00  0.00    +0.000 N 
ATOM      7  C   UNL     1       1.701   4.735  20.118  0.00  0.00    +0.000 C 
ATOM      8  O   UNL     1       0.519   4.640  20.465  0.00  0.00    +0.000 OA
ATOM      9  H   UNL     1       3.385   5.858  19.866  0.00  0.00    +0.000 HD
BRANCH   6  14
ATOM     10  C   UNL     1       1.106   9.352  19.339  0.00  0.00    +0.000 A 
ATOM     11  C   UNL     1       0.875   9.836  20.624  0.00  0.00    +0.000 A 
ATOM     12  C   UNL     1       1.121   9.024  21.731  0.00  0.00    +0.000 A 
ATOM     13  C   UNL     1       1.625   7.735  21.559  0.00  0.00    +0.000 A 
ATOM     14  C   UNL     1       1.870   7.235  20.281  0.00  0.00    +0.000 A 
ATOM     15  C   UNL     1       1.583   8.051  19.169  0.00  0.00    +0.000 A 
BRANCH  10  17
ATOM     16  C   UNL     1      -0.502  10.466  17.958  0.00  0.00    +0.000 C 
ATOM     17  O   UNL     1       0.849  10.256  18.341  0.00  0.00    +0.000 OA
ENDBRANCH  10  17
ENDBRANCH   6  14
ENDBRANCH   1   7
BRANCH   5  18
ATOM     18  C   UNL     1       4.821   3.675  18.540  0.00  0.00    +0.000 C 
BRANCH  18  19
ATOM     19  C   UNL     1       5.595   4.171  17.295  0.00  0.00    +0.000 A 
ATOM     20  C   UNL     1       4.881   4.166  16.073  0.00  0.00    +0.000 A 
ATOM     21  C   UNL     1       5.462   4.536  14.846  0.00  0.00    +0.000 A 
ATOM     22  C   UNL     1       6.785   4.943  14.799  0.00  0.00    +0.000 A 
ATOM     23  C   UNL     1       7.513   4.964  15.979  0.00  0.00    +0.000 A 
ATOM     24  C   UNL     1       6.949   4.560  17.205  0.00  0.00    +0.000 A 
BRANCH  24  25
ATOM     25  O   UNL     1       7.861   4.640  18.218  0.00  0.00    +0.000 OA
BRANCH  25  26
ATOM     26  C   UNL     1       7.633   5.707  19.099  0.00  0.00    +0.000 C 
ATOM     27  F   UNL     1       8.311   5.467  20.250  0.00  0.00    +0.000 F 
ATOM     28  F   UNL     1       8.223   6.779  18.538  0.00  0.00    +0.000 F 
ENDBRANCH  25  26
ENDBRANCH  24  25
ENDBRANCH  18  19
ENDBRANCH   5  18
TORSDOF 7
ENDMDL
MODEL 6
REMARK VINA RESULT:      -7.5      1.106      1.675
REMARK  Name = 
REMARK  9 active torsions:
REMARK  status: ('A' for Active; 'I' for Inactive)
REMARK    1  A    between atoms: C_1  and  O_2
REMARK    2  A    between atoms: O_2  and  C_3
REMARK    3  A    between atoms: C_7  and  N_8
REMARK    4  A    between atoms: C_9  and  C_11
REMARK    5  A    between atoms: C_11  and  C_12
REMARK    6  A    between atoms: N_15  and  C_16
REMARK    7  A    between atoms: C_16  and  C_17
REMARK    8  A    between atoms: C_22  and  O_23
REMARK    9  A    between atoms: O_23  and  C_24
REMARK                            x       y       z     vdW  Elec       q    Type
REMARK                         _______ _______ _______ _____ _____    ______ ____
ROOT
ATOM      1  C   UNL     1       2.643   3.707  19.312  0.00  0.00    +0.000 C 
ATOM      2  C   UNL     1       3.003   2.699  20.421  0.00  0.00    +0.000 C 
ATOM      3  C   UNL     1       1.841   2.971  18.192  0.00  0.00    +0.000 C 
ATOM      4  C   UNL     1       3.203   2.786  17.501  0.00  0.00    +0.000 C 
ATOM      5  N   UNL     1       3.674   4.009  18.207  0.00  0.00    +0.000 NA
ENDROOT
BRANCH   1   7
ATOM      6  N   UNL     1       2.374   6.209  19.565  0.00  0.00    +0.000 N 
ATOM      7  C   UNL     1       1.862   4.976  19.927  0.00  0.00    +0.000 C 
ATOM      8  O   UNL     1       0.890   4.834  20.676  0.00  0.00    +0.000 OA
ATOM      9  H   UNL     1       3.243   6.180  19.032  0.00  0.00    +0.000 HD
BRANCH   6  14
ATOM     10  C   UNL     1       1.434   9.788  19.195  0.00  0.00    +0.000 A 
ATOM     11  C   UNL     1       0.881  10.058  20.445  0.00  0.00    +0.000 A 
ATOM     12  C   UNL     1       0.797   9.048  21.403  0.00  0.00    +0.000 A 
ATOM     13  C   UNL     1       1.291   7.774  21.127  0.00  0.00    +0.000 A 
ATOM     14  C   UNL     1       1.856   7.487  19.886  0.00  0.00    +0.000 A 
ATOM     15  C   UNL     1       1.901   8.503  18.912  0.00  0.00    +0.000 A 
BRANCH  10  17
ATOM     16  C   UNL     1       0.956  12.104  18.819  0.00  0.00    +0.000 C 
ATOM     17  O   UNL     1       1.480  10.869  18.353  0.00  0.00    +0.000 OA
ENDBRANCH  10  17
ENDBRANCH   6  14
ENDBRANCH   1   7
BRANCH   5  18
ATOM     18  C   UNL     1       5.087   3.894  18.594  0.00  0.00    +0.000 C 
BRANCH  18  19
ATOM     19  C   UNL     1       6.029   5.038  18.151  0.00  0.00    +0.000 A 
ATOM     20  C   UNL     1       6.964   5.486  19.114  0.00  0.00    +0.000 A 
ATOM     21  C   UNL     1       7.851   6.554  18.881  0.00  0.00    +0.000 A 
ATOM     22  C   UNL     1       7.846   7.208  17.661  0.00  0.00    +0.000 A 
ATOM     23  C   UNL     1       6.945   6.792  16.692  0.00  0.00    +0.000 A 
ATOM     24  C   UNL     1       6.029   5.748  16.931  0.00  0.00    +0.000 A 
BRANCH  24  25
ATOM     25  O   UNL     1       5.229   5.537  15.844  0.00  0.00    +0.000 OA
BRANCH  25  26
ATOM     26  C   UNL     1       5.856   4.822  14.813  0.00  0.00    +0.000 C 
ATOM     27  F   UNL     1       6.353   3.669  15.329  0.00  0.00    +0.000 F 
ATOM     28  F   UNL     1       4.873   4.458  13.969  0.00  0.00    +0.000 F 
ENDBRANCH  25  26
ENDBRANCH  24  25
ENDBRANCH  18  19
ENDBRANCH   5  18
TORSDOF 7
ENDMDL
MODEL 7
REMARK VINA RESULT:      -7.4      2.053      2.950
REMARK  Name = 
REMARK  9 active torsions:
REMARK  status: ('A' for Active; 'I' for Inactive)
REMARK    1  A    between atoms: C_1  and  O_2
REMARK    2  A    between atoms: O_2  and  C_3
REMARK    3  A    between atoms: C_7  and  N_8
REMARK    4  A    between atoms: C_9  and  C_11
REMARK    5  A    between atoms: C_11  and  C_12
REMARK    6  A    between atoms: N_15  and  C_16
REMARK    7  A    between atoms: C_16  and  C_17
REMARK    8  A    between atoms: C_22  and  O_23
REMARK    9  A    between atoms: O_23  and  C_24
REMARK                            x       y       z     vdW  Elec       q    Type
REMARK                         _______ _______ _______ _____ _____    ______ ____
ROOT
ATOM      1  C   UNL     1       2.487   3.631  19.479  0.00  0.00    +0.000 C 
ATOM      2  C   UNL     1       3.068   2.890  20.698  0.00  0.00    +0.000 C 
ATOM      3  C   UNL     1       1.485   2.691  18.737  0.00  0.00    +0.000 C 
ATOM      4  C   UNL     1       2.684   2.301  17.856  0.00  0.00    +0.000 C 
ATOM      5  N   UNL     1       3.276   3.634  18.154  0.00  0.00    +0.000 NA
ENDROOT
BRANCH   1   7
ATOM      6  N   UNL     1       2.397   6.156  19.338  0.00  0.00    +0.000 N 
ATOM      7  C   UNL     1       1.833   5.036  19.923  0.00  0.00    +0.000 C 
ATOM      8  O   UNL     1       0.908   5.087  20.741  0.00  0.00    +0.000 OA
ATOM      9  H   UNL     1       3.224   5.979  18.767  0.00  0.00    +0.000 HD
BRANCH   6  14
ATOM     10  C   UNL     1       1.825   9.735  18.504  0.00  0.00    +0.000 A 
ATOM     11  C   UNL     1       1.229  10.197  19.675  0.00  0.00    +0.000 A 
ATOM     12  C   UNL     1       0.994   9.320  20.733  0.00  0.00    +0.000 A 
ATOM     13  C   UNL     1       1.380   7.983  20.637  0.00  0.00    +0.000 A 
ATOM     14  C   UNL     1       1.985   7.503  19.477  0.00  0.00    +0.000 A 
ATOM     15  C   UNL     1       2.183   8.389  18.401  0.00  0.00    +0.000 A 
BRANCH  10  17
ATOM     16  C   UNL     1       2.403  11.999  17.983  0.00  0.00    +0.000 C 
ATOM     17  O   UNL     1       2.023  10.701  17.552  0.00  0.00    +0.000 OA
ENDBRANCH  10  17
ENDBRANCH   6  14
ENDBRANCH   1   7
BRANCH   5  18
ATOM     18  C   UNL     1       4.739   3.557  18.275  0.00  0.00    +0.000 C 
BRANCH  18  19
ATOM     19  C   UNL     1       5.568   4.099  17.087  0.00  0.00    +0.000 A 
ATOM     20  C   UNL     1       4.903   4.166  15.840  0.00  0.00    +0.000 A 
ATOM     21  C   UNL     1       5.537   4.585  14.655  0.00  0.00    +0.000 A 
ATOM     22  C   UNL     1       6.867   4.970  14.678  0.00  0.00    +0.000 A 
ATOM     23  C   UNL     1       7.549   4.921  15.885  0.00  0.00    +0.000 A 
ATOM     24  C   UNL     1       6.931   4.467  17.067  0.00  0.00    +0.000 A 
BRANCH  24  25
ATOM     25  O   UNL     1       7.805   4.482  18.117  0.00  0.00    +0.000 OA
BRANCH  25  26
ATOM     26  C   UNL     1       7.783   5.677  18.852  0.00  0.00    +0.000 C 
ATOM     27  F   UNL     1       7.234   6.648  18.078  0.00  0.00    +0.000 F 
ATOM     28  F   UNL     1       6.916   5.471  19.861  0.00  0.00    +0.000 F 
ENDBRANCH  25  26
ENDBRANCH  24  25
ENDBRANCH  18  19
ENDBRANCH   5  18
TORSDOF 7
ENDMDL
MODEL 8
REMARK VINA RESULT:      -7.4      1.166      1.274
REMARK  Name = 
REMARK  9 active torsions:
REMARK  status: ('A' for Active; 'I' for Inactive)
REMARK    1  A    between atoms: C_1  and  O_2
REMARK    2  A    between atoms: O_2  and  C_3
REMARK    3  A    between atoms: C_7  and  N_8
REMARK    4  A    between atoms: C_9  and  C_11
REMARK    5  A    between atoms: C_11  and  C_12
REMARK    6  A    between atoms: N_15  and  C_16
REMARK    7  A    between atoms: C_16  and  C_17
REMARK    8  A    between atoms: C_22  and  O_23
REMARK    9  A    between atoms: O_23  and  C_24
REMARK                            x       y       z     vdW  Elec       q    Type
REMARK                         _______ _______ _______ _____ _____    ______ ____
ROOT
ATOM      1  C   UNL     1       2.714   4.144  18.918  0.00  0.00    +0.000 C 
ATOM      2  C   UNL     1       3.166   3.198  20.046  0.00  0.00    +0.000 C 
ATOM      3  C   UNL     1       1.489   3.514  18.181  0.00  0.00    +0.000 C 
ATOM      4  C   UNL     1       2.526   2.936  17.201  0.00  0.00    +0.000 C 
ATOM      5  N   UNL     1       3.419   4.074  17.549  0.00  0.00    +0.000 NA
ENDROOT
BRANCH   1   7
ATOM      6  N   UNL     1       2.320   6.613  18.537  0.00  0.00    +0.000 N 
ATOM      7  C   UNL     1       2.419   5.620  19.495  0.00  0.00    +0.000 C 
ATOM      8  O   UNL     1       2.309   5.828  20.708  0.00  0.00    +0.000 OA
ATOM      9  H   UNL     1       2.540   6.323  17.584  0.00  0.00    +0.000 HD
BRANCH   6  14
ATOM     10  C   UNL     1       1.048   9.691  20.192  0.00  0.00    +0.000 A 
ATOM     11  C   UNL     1       1.290  10.651  19.211  0.00  0.00    +0.000 A 
ATOM     12  C   UNL     1       1.896  10.284  18.010  0.00  0.00    +0.000 A 
ATOM     13  C   UNL     1       2.237   8.953  17.773  0.00  0.00    +0.000 A 
ATOM     14  C   UNL     1       1.995   7.977  18.738  0.00  0.00    +0.000 A 
ATOM     15  C   UNL     1       1.417   8.365  19.962  0.00  0.00    +0.000 A 
BRANCH  10  17
ATOM     16  C   UNL     1      -0.653  11.082  21.143  0.00  0.00    +0.000 C 
ATOM     17  O   UNL     1       0.426  10.175  21.313  0.00  0.00    +0.000 OA
ENDBRANCH  10  17
ENDBRANCH   6  14
ENDBRANCH   1   7
BRANCH   5  18
ATOM     18  C   UNL     1       4.830   3.661  17.571  0.00  0.00    +0.000 C 
BRANCH  18  19
ATOM     19  C   UNL     1       5.886   4.786  17.689  0.00  0.00    +0.000 A 
ATOM     20  C   UNL     1       6.464   4.968  18.967  0.00  0.00    +0.000 A 
ATOM     21  C   UNL     1       7.398   5.983  19.247  0.00  0.00    +0.000 A 
ATOM     22  C   UNL     1       7.803   6.850  18.246  0.00  0.00    +0.000 A 
ATOM     23  C   UNL     1       7.259   6.697  16.979  0.00  0.00    +0.000 A 
ATOM     24  C   UNL     1       6.296   5.707  16.701  0.00  0.00    +0.000 A 
BRANCH  24  25
ATOM     25  O   UNL     1       5.889   5.768  15.399  0.00  0.00    +0.000 OA
BRANCH  25  26
ATOM     26  C   UNL     1       6.344   4.697  14.615  0.00  0.00    +0.000 C 
ATOM     27  F   UNL     1       5.296   4.208  13.904  0.00  0.00    +0.000 F 
ATOM     28  F   UNL     1       7.186   5.235  13.713  0.00  0.00    +0.000 F 
ENDBRANCH  25  26
ENDBRANCH  24  25
ENDBRANCH  18  19
ENDBRANCH   5  18
TORSDOF 7
ENDMDL
MODEL 9
REMARK VINA RESULT:      -7.4      1.881      2.569
REMARK  Name = 
REMARK  9 active torsions:
REMARK  status: ('A' for Active; 'I' for Inactive)
REMARK    1  A    between atoms: C_1  and  O_2
REMARK    2  A    between atoms: O_2  and  C_3
REMARK    3  A    between atoms: C_7  and  N_8
REMARK    4  A    between atoms: C_9  and  C_11
REMARK    5  A    between atoms: C_11  and  C_12
REMARK    6  A    between atoms: N_15  and  C_16
REMARK    7  A    between atoms: C_16  and  C_17
REMARK    8  A    between atoms: C_22  and  O_23
REMARK    9  A    between atoms: O_23  and  C_24
REMARK                            x       y       z     vdW  Elec       q    Type
REMARK                         _______ _______ _______ _____ _____    ______ ____
ROOT
ATOM      1  C   UNL     1       2.515   4.139  19.282  0.00  0.00    +0.000 C 
ATOM      2  C   UNL     1       3.054   3.272  20.436  0.00  0.00    +0.000 C 
ATOM      3  C   UNL     1       1.423   3.337  18.504  0.00  0.00    +0.000 C 
ATOM      4  C   UNL     1       2.569   2.909  17.571  0.00  0.00    +0.000 C 
ATOM      5  N   UNL     1       3.276   4.166  17.942  0.00  0.00    +0.000 NA
ENDROOT
BRANCH   1   7
ATOM      6  N   UNL     1       2.268   6.643  19.018  0.00  0.00    +0.000 N 
ATOM      7  C   UNL     1       1.989   5.560  19.833  0.00  0.00    +0.000 C 
ATOM      8  O   UNL     1       1.398   5.654  20.914  0.00  0.00    +0.000 OA
ATOM      9  H   UNL     1       2.857   6.440  18.211  0.00  0.00    +0.000 HD
BRANCH   6  14
ATOM     10  C   UNL     1       1.135   9.743  20.733  0.00  0.00    +0.000 A 
ATOM     11  C   UNL     1       1.036  10.628  19.662  0.00  0.00    +0.000 A 
ATOM     12  C   UNL     1       1.368  10.207  18.374  0.00  0.00    +0.000 A 
ATOM     13  C   UNL     1       1.771   8.892  18.147  0.00  0.00    +0.000 A 
ATOM     14  C   UNL     1       1.868   7.988  19.204  0.00  0.00    +0.000 A 
ATOM     15  C   UNL     1       1.568   8.435  20.505  0.00  0.00    +0.000 A 
BRANCH  10  17
ATOM     16  C   UNL     1       0.270   9.387  22.937  0.00  0.00    +0.000 C 
ATOM     17  O   UNL     1       0.757  10.272  21.939  0.00  0.00    +0.000 OA
ENDBRANCH  10  17
ENDBRANCH   6  14
ENDBRANCH   1   7
BRANCH   5  18
ATOM     18  C   UNL     1       4.729   3.960  18.022  0.00  0.00    +0.000 C 
BRANCH  18  19
ATOM     19  C   UNL     1       5.561   4.352  16.777  0.00  0.00    +0.000 A 
ATOM     20  C   UNL     1       5.104   3.847  15.537  0.00  0.00    +0.000 A 
ATOM     21  C   UNL     1       5.783   4.070  14.324  0.00  0.00    +0.000 A 
ATOM     22  C   UNL     1       6.942   4.826  14.305  0.00  0.00    +0.000 A 
ATOM     23  C   UNL     1       7.416   5.341  15.503  0.00  0.00    +0.000 A 
ATOM     24  C   UNL     1       6.763   5.090  16.726  0.00  0.00    +0.000 A 
BRANCH  24  25
ATOM     25  O   UNL     1       7.426   5.675  17.767  0.00  0.00    +0.000 OA
BRANCH  25  26
ATOM     26  C   UNL     1       7.692   7.038  17.572  0.00  0.00    +0.000 C 
ATOM     27  F   UNL     1       6.510   7.706  17.536  0.00  0.00    +0.000 F 
ATOM     28  F   UNL     1       8.319   7.453  18.688  0.00  0.00    +0.000 F 
ENDBRANCH  25  26
ENDBRANCH  24  25
ENDBRANCH  18  19
ENDBRANCH   5  18
TORSDOF 7
ENDMDL
