MODEL 1
REMARK VINA RESULT:      -8.1      0.000      0.000
REMARK  Name = 
REMARK  8 active torsions:
REMARK  status: ('A' for Active; 'I' for Inactive)
REMARK    1  A    between atoms: C_1  and  O_2
REMARK    2  A    between atoms: O_2  and  C_3
REMARK    3  A    between atoms: C_6  and  S_7
REMARK    4  A    between atoms: S_7  and  N_10
REMARK    5  A    between atoms: N_10  and  C_11
REMARK    6  A    between atoms: N_10  and  C_15
REMARK    7  A    between atoms: C_11  and  C_12
REMARK    8  A    between atoms: C_12  and  O_14
REMARK                            x       y       z     vdW  Elec       q    Type
REMARK                         _______ _______ _______ _____ _____    ______ ____
ROOT
ATOM      1  N   UNL     1       5.842   4.688  16.921  0.00  0.00    +0.000 N 
ENDROOT
BRANCH   1   2
ATOM      2  C   UNL     1       4.494   5.146  17.138  0.00  0.00    +0.000 A 
ATOM      3  C   UNL     1       4.281   6.524  17.226  0.00  0.00    +0.000 A 
ATOM      4  C   UNL     1       3.095   7.027  17.742  0.00  0.00    +0.000 A 
ATOM      5  C   UNL     1       2.134   6.156  18.245  0.00  0.00    +0.000 A 
ATOM      6  C   UNL     1       2.323   4.770  18.193  0.00  0.00    +0.000 A 
ATOM      7  C   UNL     1       1.373   3.920  18.784  0.00  0.00    +0.000 A 
ATOM      8  C   UNL     1       1.516   2.537  18.727  0.00  0.00    +0.000 A 
ATOM      9  C   UNL     1       2.600   1.988  18.052  0.00  0.00    +0.000 A 
ATOM     10  C   UNL     1       3.578   2.822  17.495  0.00  0.00    +0.000 A 
ATOM     11  C   UNL     1       3.489   4.233  17.584  0.00  0.00    +0.000 A 
ENDBRANCH   1   2
BRANCH   1  12
ATOM     12  S   UNL     1       7.060   4.856  18.069  0.00  0.00    +0.000 S 
ATOM     13  O   UNL     1       8.215   4.086  17.675  0.00  0.00    +0.000 OA
ATOM     14  O   UNL     1       6.402   4.614  19.343  0.00  0.00    +0.000 OA
BRANCH  12  18
ATOM     15  C   UNL     1       8.411   9.250  18.272  0.00  0.00    +0.000 A 
ATOM     16  C   UNL     1       8.885   8.308  19.185  0.00  0.00    +0.000 A 
ATOM     17  C   UNL     1       8.481   6.973  19.107  0.00  0.00    +0.000 A 
ATOM     18  C   UNL     1       7.571   6.570  18.120  0.00  0.00    +0.000 A 
ATOM     19  C   UNL     1       7.144   7.492  17.167  0.00  0.00    +0.000 A 
ATOM     20  C   UNL     1       7.545   8.837  17.257  0.00  0.00    +0.000 A 
BRANCH  15  22
ATOM     21  C   UNL     1       9.273  10.846  19.813  0.00  0.00    +0.000 C 
ATOM     22  O   UNL     1       8.857  10.522  18.493  0.00  0.00    +0.000 OA
ENDBRANCH  15  22
ENDBRANCH  12  18
ENDBRANCH   1  12
BRANCH   1  23
ATOM     23  C   UNL     1       6.052   3.826  15.743  0.00  0.00    +0.000 C 
BRANCH  23  24
ATOM     24  C   UNL     1       6.662   4.550  14.568  0.00  0.00    +0.000 C 
ATOM     25  O   UNL     1       7.544   5.393  14.662  0.00  0.00    +0.000 OA
BRANCH  24  26
ATOM     26  O   UNL     1       6.124   4.207  13.374  0.00  0.00    +0.000 OA
ATOM     27  H   UNL     1       5.145   4.180  13.353  0.00  0.00    +0.000 HD
ENDBRANCH  24  26
ENDBRANCH  23  24
ENDBRANCH   1  23
TORSDOF 7
ENDMDL
MODEL 2
REMARK VINA RESULT:      -7.9      2.439      5.414
REMARK  Name = 
REMARK  8 active torsions:
REMARK  status: ('A' for Active; 'I' for Inactive)
REMARK    1  A    between atoms: C_1  and  O_2
REMARK    2  A    between atoms: O_2  and  C_3
REMARK    3  A    between atoms: C_6  and  S_7
REMARK    4  A    between atoms: S_7  and  N_10
REMARK    5  A    between atoms: N_10  and  C_11
REMARK    6  A    between atoms: N_10  and  C_15
REMARK    7  A    between atoms: C_11  and  C_12
REMARK    8  A    between atoms: C_12  and  O_14
REMARK                            x       y       z     vdW  Elec       q    Type
REMARK                         _______ _______ _______ _____ _____    ______ ____
ROOT
ATOM      1  N   UNL     1       5.600   5.205  16.966  0.00  0.00    +0.000 N 
ENDROOT
BRANCH   1   2
ATOM      2  C   UNL     1       4.268   5.476  17.441  0.00  0.00    +0.000 A 
ATOM      3  C   UNL     1       3.995   6.760  17.918  0.00  0.00    +0.000 A 
ATOM      4  C   UNL     1       2.859   7.010  18.674  0.00  0.00    +0.000 A 
ATOM      5  C   UNL     1       2.016   5.961  19.024  0.00  0.00    +0.000 A 
ATOM      6  C   UNL     1       2.269   4.657  18.583  0.00  0.00    +0.000 A 
ATOM      7  C   UNL     1       1.447   3.606  19.022  0.00  0.00    +0.000 A 
ATOM      8  C   UNL     1       1.654   2.302  18.581  0.00  0.00    +0.000 A 
ATOM      9  C   UNL     1       2.671   2.041  17.671  0.00  0.00    +0.000 A 
ATOM     10  C   UNL     1       3.527   3.070  17.257  0.00  0.00    +0.000 A 
ATOM     11  C   UNL     1       3.376   4.397  17.731  0.00  0.00    +0.000 A 
ENDBRANCH   1   2
BRANCH   1  12
ATOM     12  S   UNL     1       6.248   5.936  15.597  0.00  0.00    +0.000 S 
ATOM     13  O   UNL     1       7.651   6.208  15.803  0.00  0.00    +0.000 OA
ATOM     14  O   UNL     1       5.320   7.009  15.277  0.00  0.00    +0.000 OA
BRANCH  12  18
ATOM     15  C   UNL     1       5.890   2.974  12.094  0.00  0.00    +0.000 A 
ATOM     16  C   UNL     1       4.803   3.238  12.928  0.00  0.00    +0.000 A 
ATOM     17  C   UNL     1       4.917   4.150  13.980  0.00  0.00    +0.000 A 
ATOM     18  C   UNL     1       6.137   4.793  14.225  0.00  0.00    +0.000 A 
ATOM     19  C   UNL     1       7.207   4.582  13.358  0.00  0.00    +0.000 A 
ATOM     20  C   UNL     1       7.091   3.654  12.307  0.00  0.00    +0.000 A 
BRANCH  15  22
ATOM     21  C   UNL     1       6.572   0.957  11.029  0.00  0.00    +0.000 C 
ATOM     22  O   UNL     1       5.648   2.032  11.135  0.00  0.00    +0.000 OA
ENDBRANCH  15  22
ENDBRANCH  12  18
ENDBRANCH   1  12
BRANCH   1  23
ATOM     23  C   UNL     1       6.474   4.449  17.882  0.00  0.00    +0.000 C 
BRANCH  23  24
ATOM     24  C   UNL     1       6.987   5.270  19.039  0.00  0.00    +0.000 C 
ATOM     25  O   UNL     1       6.520   5.232  20.169  0.00  0.00    +0.000 OA
BRANCH  24  26
ATOM     26  O   UNL     1       8.011   6.094  18.715  0.00  0.00    +0.000 OA
ATOM     27  H   UNL     1       7.968   6.472  17.812  0.00  0.00    +0.000 HD
ENDBRANCH  24  26
ENDBRANCH  23  24
ENDBRANCH   1  23
TORSDOF 7
ENDMDL
MODEL 3
REMARK VINA RESULT:      -7.8      0.217      1.145
REMARK  Name = 
REMARK  8 active torsions:
REMARK  status: ('A' for Active; 'I' for Inactive)
REMARK    1  A    between atoms: C_1  and  O_2
REMARK    2  A    between atoms: O_2  and  C_3
REMARK    3  A    between atoms: C_6  and  S_7
REMARK    4  A    between atoms: S_7  and  N_10
REMARK    5  A    between atoms: N_10  and  C_11
REMARK    6  A    between atoms: N_10  and  C_15
REMARK    7  A    between atoms: C_11  and  C_12
REMARK    8  A    between atoms: C_12  and  O_14
REMARK                            x       y       z     vdW  Elec       q    Type
REMARK                         _______ _______ _______ _____ _____    ______ ____
ROOT
ATOM      1  N   UNL     1       5.880   4.708  16.954  0.00  0.00    +0.000 N 
ENDROOT
BRANCH   1   2
ATOM      2  C   UNL     1       4.528   5.152  17.175  0.00  0.00    +0.000 A 
ATOM      3  C   UNL     1       4.300   6.527  17.266  0.00  0.00    +0.000 A 
ATOM      4  C   UNL     1       3.111   7.017  17.786  0.00  0.00    +0.000 A 
ATOM      5  C   UNL     1       2.160   6.135  18.289  0.00  0.00    +0.000 A 
ATOM      6  C   UNL     1       2.363   4.751  18.234  0.00  0.00    +0.000 A 
ATOM      7  C   UNL     1       1.424   3.890  18.826  0.00  0.00    +0.000 A 
ATOM      8  C   UNL     1       1.581   2.509  18.766  0.00  0.00    +0.000 A 
ATOM      9  C   UNL     1       2.669   1.972  18.087  0.00  0.00    +0.000 A 
ATOM     10  C   UNL     1       3.637   2.818  17.529  0.00  0.00    +0.000 A 
ATOM     11  C   UNL     1       3.533   4.227  17.621  0.00  0.00    +0.000 A 
ENDBRANCH   1   2
BRANCH   1  12
ATOM     12  S   UNL     1       7.093   4.868  18.107  0.00  0.00    +0.000 S 
ATOM     13  O   UNL     1       8.248   4.094  17.716  0.00  0.00    +0.000 OA
ATOM     14  O   UNL     1       6.429   4.624  19.378  0.00  0.00    +0.000 OA
BRANCH  12  18
ATOM     15  C   UNL     1       8.390   9.282  18.191  0.00  0.00    +0.000 A 
ATOM     16  C   UNL     1       7.481   8.816  17.240  0.00  0.00    +0.000 A 
ATOM     17  C   UNL     1       7.082   7.477  17.232  0.00  0.00    +0.000 A 
ATOM     18  C   UNL     1       7.612   6.579  18.167  0.00  0.00    +0.000 A 
ATOM     19  C   UNL     1       8.470   7.051  19.159  0.00  0.00    +0.000 A 
ATOM     20  C   UNL     1       8.877   8.398  19.156  0.00  0.00    +0.000 A 
BRANCH  15  22
ATOM     21  C   UNL     1       9.295  11.247  19.183  0.00  0.00    +0.000 C 
ATOM     22  O   UNL     1       8.720  10.601  18.055  0.00  0.00    +0.000 OA
ENDBRANCH  15  22
ENDBRANCH  12  18
ENDBRANCH   1  12
BRANCH   1  23
ATOM     23  C   UNL     1       6.100   3.867  15.763  0.00  0.00    +0.000 C 
BRANCH  23  24
ATOM     24  C   UNL     1       6.615   4.635  14.571  0.00  0.00    +0.000 C 
ATOM     25  O   UNL     1       6.050   4.682  13.487  0.00  0.00    +0.000 OA
BRANCH  24  26
ATOM     26  O   UNL     1       7.795   5.262  14.790  0.00  0.00    +0.000 OA
ATOM     27  H   UNL     1       7.846   5.766  15.628  0.00  0.00    +0.000 HD
ENDBRANCH  24  26
ENDBRANCH  23  24
ENDBRANCH   1  23
TORSDOF 7
ENDMDL
MODEL 4
REMARK VINA RESULT:      -7.8      2.549      5.218
REMARK  Name = 
REMARK  8 active torsions:
REMARK  status: ('A' for Active; 'I' for Inactive)
REMARK    1  A    between atoms: C_1  and  O_2
REMARK    2  A    between atoms: O_2  and  C_3
REMARK    3  A    between atoms: C_6  and  S_7
REMARK    4  A    between atoms: S_7  and  N_10
REMARK    5  A    between atoms: N_10  and  C_11
REMARK    6  A    between atoms: N_10  and  C_15
REMARK    7  A    between atoms: C_11  and  C_12
REMARK    8  A    between atoms: C_12  and  O_14
REMARK                            x       y       z     vdW  Elec       q    Type
REMARK                         _______ _______ _______ _____ _____    ______ ____
ROOT
ATOM      1  N   UNL     1       5.351   5.005  18.322  0.00  0.00    +0.000 N 
ENDROOT
BRANCH   1   2
ATOM      2  C   UNL     1       4.438   3.922  18.582  0.00  0.00    +0.000 A 
ATOM      3  C   UNL     1       4.589   2.750  17.838  0.00  0.00    +0.000 A 
ATOM      4  C   UNL     1       3.579   1.799  17.796  0.00  0.00    +0.000 A 
ATOM      5  C   UNL     1       2.372   2.043  18.443  0.00  0.00    +0.000 A 
ATOM      6  C   UNL     1       2.176   3.217  19.181  0.00  0.00    +0.000 A 
ATOM      7  C   UNL     1       0.919   3.474  19.753  0.00  0.00    +0.000 A 
ATOM      8  C   UNL     1       0.698   4.616  20.515  0.00  0.00    +0.000 A 
ATOM      9  C   UNL     1       1.744   5.504  20.737  0.00  0.00    +0.000 A 
ATOM     10  C   UNL     1       2.992   5.285  20.138  0.00  0.00    +0.000 A 
ATOM     11  C   UNL     1       3.232   4.159  19.312  0.00  0.00    +0.000 A 
ENDBRANCH   1   2
BRANCH   1  12
ATOM     12  S   UNL     1       5.160   6.071  17.035  0.00  0.00    +0.000 S 
ATOM     13  O   UNL     1       6.005   7.226  17.225  0.00  0.00    +0.000 OA
ATOM     14  O   UNL     1       3.721   6.217  16.887  0.00  0.00    +0.000 OA
BRANCH  12  18
ATOM     15  C   UNL     1       6.500   3.968  13.169  0.00  0.00    +0.000 A 
ATOM     16  C   UNL     1       5.171   3.923  13.589  0.00  0.00    +0.000 A 
ATOM     17  C   UNL     1       4.770   4.577  14.757  0.00  0.00    +0.000 A 
ATOM     18  C   UNL     1       5.709   5.267  15.534  0.00  0.00    +0.000 A 
ATOM     19  C   UNL     1       7.024   5.370  15.086  0.00  0.00    +0.000 A 
ATOM     20  C   UNL     1       7.425   4.700  13.916  0.00  0.00    +0.000 A 
BRANCH  15  22
ATOM     21  C   UNL     1       5.788   2.287  11.640  0.00  0.00    +0.000 C 
ATOM     22  O   UNL     1       6.756   3.251  12.034  0.00  0.00    +0.000 OA
ENDBRANCH  15  22
ENDBRANCH  12  18
ENDBRANCH   1  12
BRANCH   1  23
ATOM     23  C   UNL     1       6.324   5.303  19.389  0.00  0.00    +0.000 C 
BRANCH  23  24
ATOM     24  C   UNL     1       7.752   5.350  18.905  0.00  0.00    +0.000 C 
ATOM     25  O   UNL     1       8.305   4.439  18.304  0.00  0.00    +0.000 OA
BRANCH  24  26
ATOM     26  O   UNL     1       8.400   6.497  19.219  0.00  0.00    +0.000 OA
ATOM     27  H   UNL     1       7.844   7.303  19.206  0.00  0.00    +0.000 HD
ENDBRANCH  24  26
ENDBRANCH  23  24
ENDBRANCH   1  23
TORSDOF 7
ENDMDL
MODEL 5
REMARK VINA RESULT:      -7.7      2.484      4.230
REMARK  Name = 
REMARK  8 active torsions:
REMARK  status: ('A' for Active; 'I' for Inactive)
REMARK    1  A    between atoms: C_1  and  O_2
REMARK    2  A    between atoms: O_2  and  C_3
REMARK    3  A    between atoms: C_6  and  S_7
REMARK    4  A    between atoms: S_7  and  N_10
REMARK    5  A    between atoms: N_10  and  C_11
REMARK    6  A    between atoms: N_10  and  C_15
REMARK    7  A    between atoms: C_11  and  C_12
REMARK    8  A    between atoms: C_12  and  O_14
REMARK                            x       y       z     vdW  Elec       q    Type
REMARK                         _______ _______ _______ _____ _____    ______ ____
ROOT
ATOM      1  N   UNL     1       3.276   4.540  18.241  0.00  0.00    +0.000 N 
ENDROOT
BRANCH   1   2
ATOM      2  C   UNL     1       2.902   5.480  19.267  0.00  0.00    +0.000 A 
ATOM      3  C   UNL     1       2.536   4.971  20.514  0.00  0.00    +0.000 A 
ATOM      4  C   UNL     1       1.868   5.764  21.437  0.00  0.00    +0.000 A 
ATOM      5  C   UNL     1       1.494   7.059  21.094  0.00  0.00    +0.000 A 
ATOM      6  C   UNL     1       1.825   7.596  19.844  0.00  0.00    +0.000 A 
ATOM      7  C   UNL     1       1.361   8.875  19.496  0.00  0.00    +0.000 A 
ATOM      8  C   UNL     1       1.694   9.449  18.273  0.00  0.00    +0.000 A 
ATOM      9  C   UNL     1       2.521   8.759  17.395  0.00  0.00    +0.000 A 
ATOM     10  C   UNL     1       2.956   7.464  17.709  0.00  0.00    +0.000 A 
ATOM     11  C   UNL     1       2.589   6.831  18.922  0.00  0.00    +0.000 A 
ENDBRANCH   1   2
BRANCH   1  12
ATOM     12  S   UNL     1       4.847   3.968  18.057  0.00  0.00    +0.000 S 
ATOM     13  O   UNL     1       4.971   3.271  16.798  0.00  0.00    +0.000 OA
ATOM     14  O   UNL     1       5.145   3.297  19.312  0.00  0.00    +0.000 OA
BRANCH  12  18
ATOM     15  C   UNL     1       7.689   7.578  17.817  0.00  0.00    +0.000 A 
ATOM     16  C   UNL     1       6.617   7.446  16.935  0.00  0.00    +0.000 A 
ATOM     17  C   UNL     1       5.750   6.354  17.025  0.00  0.00    +0.000 A 
ATOM     18  C   UNL     1       5.965   5.362  17.990  0.00  0.00    +0.000 A 
ATOM     19  C   UNL     1       6.996   5.520  18.915  0.00  0.00    +0.000 A 
ATOM     20  C   UNL     1       7.873   6.616  18.813  0.00  0.00    +0.000 A 
BRANCH  15  22
ATOM     21  C   UNL     1       8.724   9.538  18.687  0.00  0.00    +0.000 C 
ATOM     22  O   UNL     1       8.476   8.671  17.588  0.00  0.00    +0.000 OA
ENDBRANCH  15  22
ENDBRANCH  12  18
ENDBRANCH   1  12
BRANCH   1  23
ATOM     23  C   UNL     1       2.166   3.896  17.515  0.00  0.00    +0.000 C 
BRANCH  23  24
ATOM     24  C   UNL     1       1.733   2.583  18.120  0.00  0.00    +0.000 C 
ATOM     25  O   UNL     1       0.660   2.405  18.680  0.00  0.00    +0.000 OA
BRANCH  24  26
ATOM     26  O   UNL     1       2.659   1.601  18.018  0.00  0.00    +0.000 OA
ATOM     27  H   UNL     1       3.335   1.741  17.323  0.00  0.00    +0.000 HD
ENDBRANCH  24  26
ENDBRANCH  23  24
ENDBRANCH   1  23
TORSDOF 7
ENDMDL
MODEL 6
REMARK VINA RESULT:      -7.7      2.448      4.807
REMARK  Name = 
REMARK  8 active torsions:
REMARK  status: ('A' for Active; 'I' for Inactive)
REMARK    1  A    between atoms: C_1  and  O_2
REMARK    2  A    between atoms: O_2  and  C_3
REMARK    3  A    between atoms: C_6  and  S_7
REMARK    4  A    between atoms: S_7  and  N_10
REMARK    5  A    between atoms: N_10  and  C_11
REMARK    6  A    between atoms: N_10  and  C_15
REMARK    7  A    between atoms: C_11  and  C_12
REMARK    8  A    between atoms: C_12  and  O_14
REMARK                            x       y       z     vdW  Elec       q    Type
REMARK                         _______ _______ _______ _____ _____    ______ ____
ROOT
ATOM      1  N   UNL     1       5.094   5.784  18.414  0.00  0.00    +0.000 N 
ENDROOT
BRANCH   1   2
ATOM      2  C   UNL     1       3.751   5.448  18.813  0.00  0.00    +0.000 A 
ATOM      3  C   UNL     1       3.047   6.380  19.578  0.00  0.00    +0.000 A 
ATOM      4  C   UNL     1       1.895   6.013  20.261  0.00  0.00    +0.000 A 
ATOM      5  C   UNL     1       1.472   4.688  20.242  0.00  0.00    +0.000 A 
ATOM      6  C   UNL     1       2.165   3.722  19.503  0.00  0.00    +0.000 A 
ATOM      7  C   UNL     1       1.763   2.378  19.571  0.00  0.00    +0.000 A 
ATOM      8  C   UNL     1       2.412   1.397  18.828  0.00  0.00    +0.000 A 
ATOM      9  C   UNL     1       3.457   1.757  17.985  0.00  0.00    +0.000 A 
ATOM     10  C   UNL     1       3.898   3.085  17.938  0.00  0.00    +0.000 A 
ATOM     11  C   UNL     1       3.293   4.097  18.723  0.00  0.00    +0.000 A 
ENDBRANCH   1   2
BRANCH   1  12
ATOM     12  S   UNL     1       5.438   6.714  17.056  0.00  0.00    +0.000 S 
ATOM     13  O   UNL     1       6.649   7.469  17.272  0.00  0.00    +0.000 OA
ATOM     14  O   UNL     1       4.187   7.386  16.742  0.00  0.00    +0.000 OA
BRANCH  12  18
ATOM     15  C   UNL     1       6.300   3.945  13.483  0.00  0.00    +0.000 A 
ATOM     16  C   UNL     1       7.269   4.827  13.962  0.00  0.00    +0.000 A 
ATOM     17  C   UNL     1       7.004   5.653  15.056  0.00  0.00    +0.000 A 
ATOM     18  C   UNL     1       5.746   5.623  15.672  0.00  0.00    +0.000 A 
ATOM     19  C   UNL     1       4.796   4.700  15.240  0.00  0.00    +0.000 A 
ATOM     20  C   UNL     1       5.064   3.878  14.130  0.00  0.00    +0.000 A 
BRANCH  15  22
ATOM     21  C   UNL     1       5.682   2.465  11.725  0.00  0.00    +0.000 C 
ATOM     22  O   UNL     1       6.682   3.230  12.384  0.00  0.00    +0.000 OA
ENDBRANCH  15  22
ENDBRANCH  12  18
ENDBRANCH   1  12
BRANCH   1  23
ATOM     23  C   UNL     1       6.153   5.494  19.398  0.00  0.00    +0.000 C 
BRANCH  23  24
ATOM     24  C   UNL     1       7.524   5.354  18.783  0.00  0.00    +0.000 C 
ATOM     25  O   UNL     1       7.881   4.398  18.108  0.00  0.00    +0.000 OA
BRANCH  24  26
ATOM     26  O   UNL     1       8.359   6.382  19.065  0.00  0.00    +0.000 OA
ATOM     27  H   UNL     1       8.051   7.261  18.761  0.00  0.00    +0.000 HD
ENDBRANCH  24  26
ENDBRANCH  23  24
ENDBRANCH   1  23
TORSDOF 7
ENDMDL
MODEL 7
REMARK VINA RESULT:      -7.7      3.345      5.760
REMARK  Name = 
REMARK  8 active torsions:
REMARK  status: ('A' for Active; 'I' for Inactive)
REMARK    1  A    between atoms: C_1  and  O_2
REMARK    2  A    between atoms: O_2  and  C_3
REMARK    3  A    between atoms: C_6  and  S_7
REMARK    4  A    between atoms: S_7  and  N_10
REMARK    5  A    between atoms: N_10  and  C_11
REMARK    6  A    between atoms: N_10  and  C_15
REMARK    7  A    between atoms: C_11  and  C_12
REMARK    8  A    between atoms: C_12  and  O_14
REMARK                            x       y       z     vdW  Elec       q    Type
REMARK                         _______ _______ _______ _____ _____    ______ ____
ROOT
ATOM      1  N   UNL     1       4.058   3.324  18.810  0.00  0.00    +0.000 N 
ENDROOT
BRANCH   1   2
ATOM      2  C   UNL     1       5.204   4.135  18.483  0.00  0.00    +0.000 A 
ATOM      3  C   UNL     1       5.659   5.037  19.447  0.00  0.00    +0.000 A 
ATOM      4  C   UNL     1       6.533   6.059  19.106  0.00  0.00    +0.000 A 
ATOM      5  C   UNL     1       6.908   6.235  17.779  0.00  0.00    +0.000 A 
ATOM      6  C   UNL     1       6.454   5.363  16.782  0.00  0.00    +0.000 A 
ATOM      7  C   UNL     1       6.782   5.616  15.439  0.00  0.00    +0.000 A 
ATOM      8  C   UNL     1       6.371   4.755  14.427  0.00  0.00    +0.000 A 
ATOM      9  C   UNL     1       5.649   3.613  14.751  0.00  0.00    +0.000 A 
ATOM     10  C   UNL     1       5.276   3.369  16.080  0.00  0.00    +0.000 A 
ATOM     11  C   UNL     1       5.633   4.255  17.125  0.00  0.00    +0.000 A 
ENDBRANCH   1   2
BRANCH   1  12
ATOM     12  S   UNL     1       2.483   3.771  18.426  0.00  0.00    +0.000 S 
ATOM     13  O   UNL     1       1.552   3.066  19.273  0.00  0.00    +0.000 OA
ATOM     14  O   UNL     1       2.409   3.655  16.978  0.00  0.00    +0.000 OA
BRANCH  12  18
ATOM     15  C   UNL     1       1.930   8.238  19.382  0.00  0.00    +0.000 A 
ATOM     16  C   UNL     1       1.778   7.266  20.370  0.00  0.00    +0.000 A 
ATOM     17  C   UNL     1       1.962   5.913  20.074  0.00  0.00    +0.000 A 
ATOM     18  C   UNL     1       2.279   5.515  18.769  0.00  0.00    +0.000 A 
ATOM     19  C   UNL     1       2.495   6.485  17.792  0.00  0.00    +0.000 A 
ATOM     20  C   UNL     1       2.296   7.845  18.093  0.00  0.00    +0.000 A 
BRANCH  15  22
ATOM     21  C   UNL     1       0.324   9.942  19.811  0.00  0.00    +0.000 C 
ATOM     22  O   UNL     1       1.679   9.513  19.803  0.00  0.00    +0.000 OA
ENDBRANCH  15  22
ENDBRANCH  12  18
ENDBRANCH   1  12
BRANCH   1  23
ATOM     23  C   UNL     1       4.345   1.952  19.268  0.00  0.00    +0.000 C 
BRANCH  23  24
ATOM     24  C   UNL     1       4.524   1.842  20.762  0.00  0.00    +0.000 C 
ATOM     25  O   UNL     1       5.511   1.364  21.303  0.00  0.00    +0.000 OA
BRANCH  24  26
ATOM     26  O   UNL     1       3.468   2.300  21.476  0.00  0.00    +0.000 OA
ATOM     27  H   UNL     1       3.620   2.372  22.441  0.00  0.00    +0.000 HD
ENDBRANCH  24  26
ENDBRANCH  23  24
ENDBRANCH   1  23
TORSDOF 7
ENDMDL
MODEL 8
REMARK VINA RESULT:      -7.7      3.433      5.976
REMARK  Name = 
REMARK  8 active torsions:
REMARK  status: ('A' for Active; 'I' for Inactive)
REMARK    1  A    between atoms: C_1  and  O_2
REMARK    2  A    between atoms: O_2  and  C_3
REMARK    3  A    between atoms: C_6  and  S_7
REMARK    4  A    between atoms: S_7  and  N_10
REMARK    5  A    between atoms: N_10  and  C_11
REMARK    6  A    between atoms: N_10  and  C_15
REMARK    7  A    between atoms: C_11  and  C_12
REMARK    8  A    between atoms: C_12  and  O_14
REMARK                            x       y       z     vdW  Elec       q    Type
REMARK                         _______ _______ _______ _____ _____    ______ ____
ROOT
ATOM      1  N   UNL     1       3.462   3.162  18.049  0.00  0.00    +0.000 N 
ENDROOT
BRANCH   1   2
ATOM      2  C   UNL     1       4.448   3.811  17.223  0.00  0.00    +0.000 A 
ATOM      3  C   UNL     1       4.512   3.445  15.877  0.00  0.00    +0.000 A 
ATOM      4  C   UNL     1       5.616   3.774  15.103  0.00  0.00    +0.000 A 
ATOM      5  C   UNL     1       6.704   4.413  15.686  0.00  0.00    +0.000 A 
ATOM      6  C   UNL     1       6.684   4.777  17.039  0.00  0.00    +0.000 A 
ATOM      7  C   UNL     1       7.830   5.345  17.619  0.00  0.00    +0.000 A 
ATOM      8  C   UNL     1       7.836   5.743  18.952  0.00  0.00    +0.000 A 
ATOM      9  C   UNL     1       6.682   5.601  19.714  0.00  0.00    +0.000 A 
ATOM     10  C   UNL     1       5.545   4.996  19.162  0.00  0.00    +0.000 A 
ATOM     11  C   UNL     1       5.526   4.531  17.824  0.00  0.00    +0.000 A 
ENDBRANCH   1   2
BRANCH   1  12
ATOM     12  S   UNL     1       1.873   3.701  18.167  0.00  0.00    +0.000 S 
ATOM     13  O   UNL     1       1.105   2.789  18.980  0.00  0.00    +0.000 OA
ATOM     14  O   UNL     1       1.479   3.992  16.798  0.00  0.00    +0.000 OA
BRANCH  12  18
ATOM     15  C   UNL     1       1.807   7.730  20.389  0.00  0.00    +0.000 A 
ATOM     16  C   UNL     1       1.486   6.541  21.044  0.00  0.00    +0.000 A 
ATOM     17  C   UNL     1       1.523   5.321  20.366  0.00  0.00    +0.000 A 
ATOM     18  C   UNL     1       1.861   5.281  19.006  0.00  0.00    +0.000 A 
ATOM     19  C   UNL     1       2.244   6.456  18.363  0.00  0.00    +0.000 A 
ATOM     20  C   UNL     1       2.194   7.684  19.048  0.00  0.00    +0.000 A 
BRANCH  15  22
ATOM     21  C   UNL     1       0.765   9.842  20.737  0.00  0.00    +0.000 C 
ATOM     22  O   UNL     1       1.689   8.849  21.164  0.00  0.00    +0.000 OA
ENDBRANCH  15  22
ENDBRANCH  12  18
ENDBRANCH   1  12
BRANCH   1  23
ATOM     23  C   UNL     1       3.836   1.843  18.591  0.00  0.00    +0.000 C 
BRANCH  23  24
ATOM     24  C   UNL     1       4.263   1.887  20.038  0.00  0.00    +0.000 C 
ATOM     25  O   UNL     1       3.635   2.450  20.924  0.00  0.00    +0.000 OA
BRANCH  24  26
ATOM     26  O   UNL     1       5.440   1.263  20.281  0.00  0.00    +0.000 OA
ATOM     27  H   UNL     1       6.233   1.833  20.210  0.00  0.00    +0.000 HD
ENDBRANCH  24  26
ENDBRANCH  23  24
ENDBRANCH   1  23
TORSDOF 7
ENDMDL
MODEL 9
REMARK VINA RESULT:      -7.7      2.627      5.231
REMARK  Name = 
REMARK  8 active torsions:
REMARK  status: ('A' for Active; 'I' for Inactive)
REMARK    1  A    between atoms: C_1  and  O_2
REMARK    2  A    between atoms: O_2  and  C_3
REMARK    3  A    between atoms: C_6  and  S_7
REMARK    4  A    between atoms: S_7  and  N_10
REMARK    5  A    between atoms: N_10  and  C_11
REMARK    6  A    between atoms: N_10  and  C_15
REMARK    7  A    between atoms: C_11  and  C_12
REMARK    8  A    between atoms: C_12  and  O_14
REMARK                            x       y       z     vdW  Elec       q    Type
REMARK                         _______ _______ _______ _____ _____    ______ ____
ROOT
ATOM      1  N   UNL     1       5.470   5.200  18.267  0.00  0.00    +0.000 N 
ENDROOT
BRANCH   1   2
ATOM      2  C   UNL     1       4.552   4.116  18.503  0.00  0.00    +0.000 A 
ATOM      3  C   UNL     1       4.704   2.956  17.741  0.00  0.00    +0.000 A 
ATOM      4  C   UNL     1       3.691   2.010  17.676  0.00  0.00    +0.000 A 
ATOM      5  C   UNL     1       2.481   2.247  18.320  0.00  0.00    +0.000 A 
ATOM      6  C   UNL     1       2.285   3.409  19.077  0.00  0.00    +0.000 A 
ATOM      7  C   UNL     1       1.025   3.660  19.645  0.00  0.00    +0.000 A 
ATOM      8  C   UNL     1       0.803   4.791  20.425  0.00  0.00    +0.000 A 
ATOM      9  C   UNL     1       1.851   5.671  20.668  0.00  0.00    +0.000 A 
ATOM     10  C   UNL     1       3.101   5.458  20.073  0.00  0.00    +0.000 A 
ATOM     11  C   UNL     1       3.342   4.345  19.230  0.00  0.00    +0.000 A 
ENDBRANCH   1   2
BRANCH   1  12
ATOM     12  S   UNL     1       5.354   6.222  16.937  0.00  0.00    +0.000 S 
ATOM     13  O   UNL     1       6.349   7.264  17.029  0.00  0.00    +0.000 OA
ATOM     14  O   UNL     1       3.940   6.548  16.844  0.00  0.00    +0.000 OA
BRANCH  12  18
ATOM     15  C   UNL     1       6.365   3.847  13.127  0.00  0.00    +0.000 A 
ATOM     16  C   UNL     1       7.345   4.573  13.804  0.00  0.00    +0.000 A 
ATOM     17  C   UNL     1       7.032   5.279  14.968  0.00  0.00    +0.000 A 
ATOM     18  C   UNL     1       5.719   5.285  15.456  0.00  0.00    +0.000 A 
ATOM     19  C   UNL     1       4.750   4.511  14.821  0.00  0.00    +0.000 A 
ATOM     20  C   UNL     1       5.067   3.811  13.643  0.00  0.00    +0.000 A 
BRANCH  15  22
ATOM     21  C   UNL     1       5.998   2.197  11.452  0.00  0.00    +0.000 C 
ATOM     22  O   UNL     1       6.803   3.240  11.984  0.00  0.00    +0.000 OA
ENDBRANCH  15  22
ENDBRANCH  12  18
ENDBRANCH   1  12
BRANCH   1  23
ATOM     23  C   UNL     1       6.370   5.542  19.384  0.00  0.00    +0.000 C 
BRANCH  23  24
ATOM     24  C   UNL     1       7.783   5.049  19.191  0.00  0.00    +0.000 C 
ATOM     25  O   UNL     1       8.166   4.427  18.210  0.00  0.00    +0.000 OA
BRANCH  24  26
ATOM     26  O   UNL     1       8.608   5.332  20.227  0.00  0.00    +0.000 OA
ATOM     27  H   UNL     1       8.977   6.239  20.227  0.00  0.00    +0.000 HD
ENDBRANCH  24  26
ENDBRANCH  23  24
ENDBRANCH   1  23
TORSDOF 7
ENDMDL
