MODEL 1
REMARK VINA RESULT:      -8.7      0.000      0.000
REMARK  Name = 
REMARK  13 active torsions:
REMARK  status: ('A' for Active; 'I' for Inactive)
REMARK    1  A    between atoms: C_1  and  O_2
REMARK    2  A    between atoms: O_2  and  C_3
REMARK    3  A    between atoms: C_3  and  C_5
REMARK    4  A    between atoms: C_6  and  C_7
REMARK    5  A    between atoms: C_9  and  C_10
REMARK    6  A    between atoms: C_12  and  O_13
REMARK    7  A    between atoms: C_12  and  O_14
REMARK    8  A    between atoms: O_14  and  C_15
REMARK    9  A    between atoms: C_16  and  C_17
REMARK   10  A    between atoms: C_21  and  O_22
REMARK   11  A    between atoms: O_22  and  C_23
REMARK   12  A    between atoms: C_23  and  C_24
REMARK   13  A    between atoms: C_29  and  C_30
REMARK                            x       y       z     vdW  Elec       q    Type
REMARK                         _______ _______ _______ _____ _____    ______ ____
ROOT
ATOM      1  C   UNL     1       5.309   5.604  17.633  0.00  0.00    +0.000 C 
ATOM      2  C   UNL     1       6.126   4.940  18.472  0.00  0.00    +0.000 C 
ATOM      3  C   UNL     1       7.607   5.181  18.657  0.00  0.00    +0.000 C 
ATOM      4  N   UNL     1       5.686   3.930  19.292  0.00  0.00    +0.000 NA
ATOM      5  C   UNL     1       4.457   3.518  19.261  0.00  0.00    +0.000 C 
ATOM      6  C   UNL     1       4.180   2.340  20.180  0.00  0.00    +0.000 C 
ATOM      7  C   UNL     1       3.366   4.105  18.398  0.00  0.00    +0.000 C 
ATOM      8  C   UNL     1       2.122   3.570  18.302  0.00  0.00    +0.000 C 
ATOM      9  C   UNL     1       3.819   5.333  17.612  0.00  0.00    +0.000 C 
ENDROOT
BRANCH   9  10
ATOM     10  C   UNL     1       3.065   6.597  18.054  0.00  0.00    +0.000 A 
ATOM     11  C   UNL     1       2.886   7.658  17.151  0.00  0.00    +0.000 A 
ATOM     12  C   UNL     1       2.238   8.824  17.549  0.00  0.00    +0.000 A 
ATOM     13  C   UNL     1       1.803   8.965  18.864  0.00  0.00    +0.000 A 
ATOM     14  C   UNL     1       2.024   7.945  19.791  0.00  0.00    +0.000 A 
ATOM     15  C   UNL     1       2.615   6.750  19.377  0.00  0.00    +0.000 A 
BRANCH  14  16
ATOM     16  O   UNL     1       1.710   8.029  21.122  0.00  0.00    +0.000 OA
BRANCH  16  17
ATOM     17  C   UNL     1       0.307   8.167  21.393  0.00  0.00    +0.000 C 
BRANCH  17  18
ATOM     18  C   UNL     1      -0.034   9.522  21.921  0.00  0.00    +0.000 A 
ATOM     19  N   UNL     1       0.096   9.770  23.230  0.00  0.00    +0.000 NA
ATOM     20  O   UNL     1      -0.348  11.076  23.427  0.00  0.00    +0.000 OA
ATOM     21  N   UNL     1      -0.750  11.598  22.154  0.00  0.00    +0.000 N 
ATOM     22  O   UNL     1      -1.201  12.765  22.139  0.00  0.00    +0.000 OA
ATOM     23  C   UNL     1      -0.567  10.640  21.244  0.00  0.00    +0.000 A 
ATOM     24  C   UNL     1      -0.914  10.855  19.833  0.00  0.00    +0.000 C 
ENDBRANCH  17  18
ENDBRANCH  16  17
ENDBRANCH  14  16
ENDBRANCH   9  10
BRANCH   1  25
ATOM     25  C   UNL     1       5.793   6.697  16.742  0.00  0.00    +0.000 C 
ATOM     26  O   UNL     1       6.328   7.729  17.114  0.00  0.00    +0.000 OA
BRANCH  25  28
ATOM     27  C   UNL     1       6.259   5.294  14.926  0.00  0.00    +0.000 C 
ATOM     28  O   UNL     1       5.510   6.396  15.446  0.00  0.00    +0.000 OA
ENDBRANCH  25  28
ENDBRANCH   1  25
BRANCH   8  29
ATOM     29  O   UNL     1       1.154   4.080  17.456  0.00  0.00    +0.000 OA
ATOM     30  H   UNL     1       0.289   4.079  17.884  0.00  0.00    +0.000 HD
ENDBRANCH   8  29
BRANCH   8  31
ATOM     31  O   UNL     1       1.761   2.468  19.050  0.00  0.00    +0.000 OA
ATOM     32  C   UNL     1       0.733   2.708  20.006  0.00  0.00    +0.000 C 
ENDBRANCH   8  31
TORSDOF 8
ENDMDL
MODEL 2
REMARK VINA RESULT:      -8.2      3.214      8.962
REMARK  Name = 
REMARK  13 active torsions:
REMARK  status: ('A' for Active; 'I' for Inactive)
REMARK    1  A    between atoms: C_1  and  O_2
REMARK    2  A    between atoms: O_2  and  C_3
REMARK    3  A    between atoms: C_3  and  C_5
REMARK    4  A    between atoms: C_6  and  C_7
REMARK    5  A    between atoms: C_9  and  C_10
REMARK    6  A    between atoms: C_12  and  O_13
REMARK    7  A    between atoms: C_12  and  O_14
REMARK    8  A    between atoms: O_14  and  C_15
REMARK    9  A    between atoms: C_16  and  C_17
REMARK   10  A    between atoms: C_21  and  O_22
REMARK   11  A    between atoms: O_22  and  C_23
REMARK   12  A    between atoms: C_23  and  C_24
REMARK   13  A    between atoms: C_29  and  C_30
REMARK                            x       y       z     vdW  Elec       q    Type
REMARK                         _______ _______ _______ _____ _____    ______ ____
ROOT
ATOM      1  C   UNL     1      -1.433  11.319  18.375  0.00  0.00    +0.000 C 
ATOM      2  C   UNL     1      -2.064  12.223  19.147  0.00  0.00    +0.000 C 
ATOM      3  C   UNL     1      -3.538  12.239  19.486  0.00  0.00    +0.000 C 
ATOM      4  N   UNL     1      -1.412  13.275  19.742  0.00  0.00    +0.000 NA
ATOM      5  C   UNL     1      -0.149  13.489  19.545  0.00  0.00    +0.000 C 
ATOM      6  C   UNL     1       0.376  14.745  20.221  0.00  0.00    +0.000 C 
ATOM      7  C   UNL     1       0.760  12.615  18.714  0.00  0.00    +0.000 C 
ATOM      8  C   UNL     1       2.048  12.936  18.430  0.00  0.00    +0.000 C 
ATOM      9  C   UNL     1       0.069  11.358  18.191  0.00  0.00    +0.000 C 
ENDROOT
BRANCH   9  10
ATOM     10  C   UNL     1       0.688  10.083  18.786  0.00  0.00    +0.000 A 
ATOM     11  C   UNL     1       0.503   9.782  20.146  0.00  0.00    +0.000 A 
ATOM     12  C   UNL     1       1.089   8.651  20.706  0.00  0.00    +0.000 A 
ATOM     13  C   UNL     1       1.905   7.832  19.929  0.00  0.00    +0.000 A 
ATOM     14  C   UNL     1       2.147   8.146  18.591  0.00  0.00    +0.000 A 
ATOM     15  C   UNL     1       1.508   9.243  18.011  0.00  0.00    +0.000 A 
BRANCH  14  16
ATOM     16  O   UNL     1       3.000   7.450  17.776  0.00  0.00    +0.000 OA
BRANCH  16  17
ATOM     17  C   UNL     1       3.055   6.040  18.040  0.00  0.00    +0.000 C 
BRANCH  17  18
ATOM     18  C   UNL     1       4.458   5.538  18.136  0.00  0.00    +0.000 A 
ATOM     19  N   UNL     1       4.944   5.165  19.326  0.00  0.00    +0.000 NA
ATOM     20  O   UNL     1       6.273   4.809  19.112  0.00  0.00    +0.000 OA
ATOM     21  N   UNL     1       6.556   4.989  17.718  0.00  0.00    +0.000 N 
ATOM     22  O   UNL     1       7.721   4.736  17.341  0.00  0.00    +0.000 OA
ATOM     23  C   UNL     1       5.447   5.445  17.133  0.00  0.00    +0.000 A 
ATOM     24  C   UNL     1       5.419   5.759  15.699  0.00  0.00    +0.000 C 
ENDBRANCH  17  18
ENDBRANCH  16  17
ENDBRANCH  14  16
ENDBRANCH   9  10
BRANCH   1  25
ATOM     25  C   UNL     1      -2.147  10.181  17.728  0.00  0.00    +0.000 C 
ATOM     26  O   UNL     1      -2.791   9.325  18.312  0.00  0.00    +0.000 OA
BRANCH  25  28
ATOM     27  C   UNL     1      -2.990  10.839  15.645  0.00  0.00    +0.000 C 
ATOM     28  O   UNL     1      -1.939  10.209  16.384  0.00  0.00    +0.000 OA
ENDBRANCH  25  28
ENDBRANCH   1  25
BRANCH   8  29
ATOM     29  O   UNL     1       2.848  12.159  17.613  0.00  0.00    +0.000 OA
ATOM     30  H   UNL     1       2.319  11.715  16.937  0.00  0.00    +0.000 HD
ENDBRANCH   8  29
BRANCH   8  31
ATOM     31  O   UNL     1       2.628  14.078  18.945  0.00  0.00    +0.000 OA
ATOM     32  C   UNL     1       3.348  14.861  17.997  0.00  0.00    +0.000 C 
ENDBRANCH   8  31
TORSDOF 8
ENDMDL
MODEL 3
REMARK VINA RESULT:      -8.1      2.312      2.658
REMARK  Name = 
REMARK  13 active torsions:
REMARK  status: ('A' for Active; 'I' for Inactive)
REMARK    1  A    between atoms: C_1  and  O_2
REMARK    2  A    between atoms: O_2  and  C_3
REMARK    3  A    between atoms: C_3  and  C_5
REMARK    4  A    between atoms: C_6  and  C_7
REMARK    5  A    between atoms: C_9  and  C_10
REMARK    6  A    between atoms: C_12  and  O_13
REMARK    7  A    between atoms: C_12  and  O_14
REMARK    8  A    between atoms: O_14  and  C_15
REMARK    9  A    between atoms: C_16  and  C_17
REMARK   10  A    between atoms: C_21  and  O_22
REMARK   11  A    between atoms: O_22  and  C_23
REMARK   12  A    between atoms: C_23  and  C_24
REMARK   13  A    between atoms: C_29  and  C_30
REMARK                            x       y       z     vdW  Elec       q    Type
REMARK                         _______ _______ _______ _____ _____    ______ ____
ROOT
ATOM      1  C   UNL     1       5.149   5.640  17.611  0.00  0.00    +0.000 C 
ATOM      2  C   UNL     1       5.991   4.783  18.215  0.00  0.00    +0.000 C 
ATOM      3  C   UNL     1       7.485   4.955  18.372  0.00  0.00    +0.000 C 
ATOM      4  N   UNL     1       5.570   3.606  18.786  0.00  0.00    +0.000 NA
ATOM      5  C   UNL     1       4.332   3.228  18.723  0.00  0.00    +0.000 C 
ATOM      6  C   UNL     1       4.074   1.862  19.340  0.00  0.00    +0.000 C 
ATOM      7  C   UNL     1       3.212   4.020  18.092  0.00  0.00    +0.000 C 
ATOM      8  C   UNL     1       1.953   3.537  17.936  0.00  0.00    +0.000 C 
ATOM      9  C   UNL     1       3.654   5.398  17.606  0.00  0.00    +0.000 C 
ENDROOT
BRANCH   9  10
ATOM     10  C   UNL     1       2.954   6.523  18.385  0.00  0.00    +0.000 A 
ATOM     11  C   UNL     1       2.725   6.384  19.764  0.00  0.00    +0.000 A 
ATOM     12  C   UNL     1       2.058   7.378  20.474  0.00  0.00    +0.000 A 
ATOM     13  C   UNL     1       1.571   8.501  19.810  0.00  0.00    +0.000 A 
ATOM     14  C   UNL     1       1.738   8.630  18.430  0.00  0.00    +0.000 A 
ATOM     15  C   UNL     1       2.463   7.666  17.728  0.00  0.00    +0.000 A 
BRANCH  14  16
ATOM     16  O   UNL     1       1.220   9.654  17.681  0.00  0.00    +0.000 OA
BRANCH  16  17
ATOM     17  C   UNL     1       0.539  10.661  18.444  0.00  0.00    +0.000 C 
BRANCH  17  18
ATOM     18  C   UNL     1      -0.936  10.644  18.210  0.00  0.00    +0.000 A 
ATOM     19  N   UNL     1      -1.445   9.832  17.275  0.00  0.00    +0.000 NA
ATOM     20  O   UNL     1      -2.815  10.079  17.246  0.00  0.00    +0.000 OA
ATOM     21  N   UNL     1      -3.099  11.089  18.223  0.00  0.00    +0.000 N 
ATOM     22  O   UNL     1      -4.290  11.458  18.325  0.00  0.00    +0.000 OA
ATOM     23  C   UNL     1      -1.946  11.436  18.797  0.00  0.00    +0.000 A 
ATOM     24  C   UNL     1      -1.895  12.478  19.831  0.00  0.00    +0.000 C 
ENDBRANCH  17  18
ENDBRANCH  16  17
ENDBRANCH  14  16
ENDBRANCH   9  10
BRANCH   1  25
ATOM     25  C   UNL     1       5.612   6.914  16.989  0.00  0.00    +0.000 C 
ATOM     26  O   UNL     1       6.157   7.833  17.579  0.00  0.00    +0.000 OA
BRANCH  25  28
ATOM     27  C   UNL     1       5.683   5.735  14.967  0.00  0.00    +0.000 C 
ATOM     28  O   UNL     1       5.299   6.923  15.665  0.00  0.00    +0.000 OA
ENDBRANCH  25  28
ENDBRANCH   1  25
BRANCH   8  29
ATOM     29  O   UNL     1       0.956   4.250  17.295  0.00  0.00    +0.000 OA
ATOM     30  H   UNL     1       1.320   5.026  16.851  0.00  0.00    +0.000 HD
ENDBRANCH   8  29
BRANCH   8  31
ATOM     31  O   UNL     1       1.605   2.289  18.411  0.00  0.00    +0.000 OA
ATOM     32  C   UNL     1       0.570   2.291  19.390  0.00  0.00    +0.000 C 
ENDBRANCH   8  31
TORSDOF 8
ENDMDL
MODEL 4
REMARK VINA RESULT:      -8.1      2.740      8.156
REMARK  Name = 
REMARK  13 active torsions:
REMARK  status: ('A' for Active; 'I' for Inactive)
REMARK    1  A    between atoms: C_1  and  O_2
REMARK    2  A    between atoms: O_2  and  C_3
REMARK    3  A    between atoms: C_3  and  C_5
REMARK    4  A    between atoms: C_6  and  C_7
REMARK    5  A    between atoms: C_9  and  C_10
REMARK    6  A    between atoms: C_12  and  O_13
REMARK    7  A    between atoms: C_12  and  O_14
REMARK    8  A    between atoms: O_14  and  C_15
REMARK    9  A    between atoms: C_16  and  C_17
REMARK   10  A    between atoms: C_21  and  O_22
REMARK   11  A    between atoms: O_22  and  C_23
REMARK   12  A    between atoms: C_23  and  C_24
REMARK   13  A    between atoms: C_29  and  C_30
REMARK                            x       y       z     vdW  Elec       q    Type
REMARK                         _______ _______ _______ _____ _____    ______ ____
ROOT
ATOM      1  C   UNL     1       2.175   4.407  19.030  0.00  0.00    +0.000 C 
ATOM      2  C   UNL     1       1.596   4.420  20.245  0.00  0.00    +0.000 C 
ATOM      3  C   UNL     1       1.181   3.211  21.053  0.00  0.00    +0.000 C 
ATOM      4  N   UNL     1       1.309   5.582  20.918  0.00  0.00    +0.000 NA
ATOM      5  C   UNL     1       1.532   6.744  20.389  0.00  0.00    +0.000 C 
ATOM      6  C   UNL     1       1.074   7.910  21.250  0.00  0.00    +0.000 C 
ATOM      7  C   UNL     1       2.166   6.977  19.038  0.00  0.00    +0.000 C 
ATOM      8  C   UNL     1       2.271   8.202  18.464  0.00  0.00    +0.000 C 
ATOM      9  C   UNL     1       2.634   5.688  18.366  0.00  0.00    +0.000 C 
ENDROOT
BRANCH   9  10
ATOM     10  C   UNL     1       4.162   5.658  18.203  0.00  0.00    +0.000 A 
ATOM     11  C   UNL     1       4.983   5.455  19.324  0.00  0.00    +0.000 A 
ATOM     12  C   UNL     1       6.369   5.463  19.196  0.00  0.00    +0.000 A 
ATOM     13  C   UNL     1       6.953   5.720  17.958  0.00  0.00    +0.000 A 
ATOM     14  C   UNL     1       6.154   5.981  16.844  0.00  0.00    +0.000 A 
ATOM     15  C   UNL     1       4.764   5.909  16.957  0.00  0.00    +0.000 A 
BRANCH  14  16
ATOM     16  O   UNL     1       6.637   6.327  15.610  0.00  0.00    +0.000 OA
BRANCH  16  17
ATOM     17  C   UNL     1       7.643   5.440  15.096  0.00  0.00    +0.000 C 
BRANCH  17  18
ATOM     18  C   UNL     1       7.186   4.721  13.870  0.00  0.00    +0.000 A 
ATOM     19  N   UNL     1       7.798   4.954  12.702  0.00  0.00    +0.000 NA
ATOM     20  O   UNL     1       7.123   4.197  11.748  0.00  0.00    +0.000 OA
ATOM     21  N   UNL     1       6.068   3.491  12.415  0.00  0.00    +0.000 N 
ATOM     22  O   UNL     1       5.335   2.769  11.705  0.00  0.00    +0.000 OA
ATOM     23  C   UNL     1       6.106   3.826  13.706  0.00  0.00    +0.000 A 
ATOM     24  C   UNL     1       5.129   3.286  14.660  0.00  0.00    +0.000 C 
ENDBRANCH  17  18
ENDBRANCH  16  17
ENDBRANCH  14  16
ENDBRANCH   9  10
BRANCH   1  25
ATOM     25  C   UNL     1       2.481   3.141  18.303  0.00  0.00    +0.000 C 
ATOM     26  O   UNL     1       2.080   2.851  17.187  0.00  0.00    +0.000 OA
BRANCH  25  28
ATOM     27  C   UNL     1       3.848   1.241  18.383  0.00  0.00    +0.000 C 
ATOM     28  O   UNL     1       3.242   2.330  19.086  0.00  0.00    +0.000 OA
ENDBRANCH  25  28
ENDBRANCH   1  25
BRANCH   8  29
ATOM     29  O   UNL     1       2.794   8.391  17.198  0.00  0.00    +0.000 OA
ATOM     30  H   UNL     1       2.193   8.915  16.653  0.00  0.00    +0.000 HD
ENDBRANCH   8  29
BRANCH   8  31
ATOM     31  O   UNL     1       1.847   9.337  19.126  0.00  0.00    +0.000 OA
ATOM     32  C   UNL     1       1.636  10.471  18.289  0.00  0.00    +0.000 C 
ENDBRANCH   8  31
TORSDOF 8
ENDMDL
MODEL 5
REMARK VINA RESULT:      -8.1      1.934      2.424
REMARK  Name = 
REMARK  13 active torsions:
REMARK  status: ('A' for Active; 'I' for Inactive)
REMARK    1  A    between atoms: C_1  and  O_2
REMARK    2  A    between atoms: O_2  and  C_3
REMARK    3  A    between atoms: C_3  and  C_5
REMARK    4  A    between atoms: C_6  and  C_7
REMARK    5  A    between atoms: C_9  and  C_10
REMARK    6  A    between atoms: C_12  and  O_13
REMARK    7  A    between atoms: C_12  and  O_14
REMARK    8  A    between atoms: O_14  and  C_15
REMARK    9  A    between atoms: C_16  and  C_17
REMARK   10  A    between atoms: C_21  and  O_22
REMARK   11  A    between atoms: O_22  and  C_23
REMARK   12  A    between atoms: C_23  and  C_24
REMARK   13  A    between atoms: C_29  and  C_30
REMARK                            x       y       z     vdW  Elec       q    Type
REMARK                         _______ _______ _______ _____ _____    ______ ____
ROOT
ATOM      1  C   UNL     1       5.237   5.545  17.546  0.00  0.00    +0.000 C 
ATOM      2  C   UNL     1       6.061   4.687  18.175  0.00  0.00    +0.000 C 
ATOM      3  C   UNL     1       7.557   4.831  18.331  0.00  0.00    +0.000 C 
ATOM      4  N   UNL     1       5.613   3.536  18.777  0.00  0.00    +0.000 NA
ATOM      5  C   UNL     1       4.368   3.182  18.722  0.00  0.00    +0.000 C 
ATOM      6  C   UNL     1       4.080   1.840  19.375  0.00  0.00    +0.000 C 
ATOM      7  C   UNL     1       3.266   3.980  18.066  0.00  0.00    +0.000 C 
ATOM      8  C   UNL     1       1.997   3.520  17.921  0.00  0.00    +0.000 C 
ATOM      9  C   UNL     1       3.738   5.335  17.544  0.00  0.00    +0.000 C 
ENDROOT
BRANCH   9  10
ATOM     10  C   UNL     1       3.060   6.495  18.290  0.00  0.00    +0.000 A 
ATOM     11  C   UNL     1       2.669   6.334  19.630  0.00  0.00    +0.000 A 
ATOM     12  C   UNL     1       2.021   7.364  20.306  0.00  0.00    +0.000 A 
ATOM     13  C   UNL     1       1.713   8.549  19.641  0.00  0.00    +0.000 A 
ATOM     14  C   UNL     1       2.042   8.705  18.294  0.00  0.00    +0.000 A 
ATOM     15  C   UNL     1       2.751   7.699  17.633  0.00  0.00    +0.000 A 
BRANCH  14  16
ATOM     16  O   UNL     1       1.705   9.796  17.537  0.00  0.00    +0.000 OA
BRANCH  16  17
ATOM     17  C   UNL     1       0.734  10.662  18.144  0.00  0.00    +0.000 C 
BRANCH  17  18
ATOM     18  C   UNL     1       1.372  11.760  18.931  0.00  0.00    +0.000 A 
ATOM     19  N   UNL     1       2.352  12.485  18.377  0.00  0.00    +0.000 NA
ATOM     20  O   UNL     1       2.782  13.375  19.357  0.00  0.00    +0.000 OA
ATOM     21  N   UNL     1       1.999  13.142  20.535  0.00  0.00    +0.000 N 
ATOM     22  O   UNL     1       2.263  13.844  21.537  0.00  0.00    +0.000 OA
ATOM     23  C   UNL     1       1.151  12.148  20.271  0.00  0.00    +0.000 A 
ATOM     24  C   UNL     1       0.221  11.649  21.293  0.00  0.00    +0.000 C 
ENDBRANCH  17  18
ENDBRANCH  16  17
ENDBRANCH  14  16
ENDBRANCH   9  10
BRANCH   1  25
ATOM     25  C   UNL     1       5.729   6.791  16.890  0.00  0.00    +0.000 C 
ATOM     26  O   UNL     1       6.291   7.715  17.456  0.00  0.00    +0.000 OA
BRANCH  25  28
ATOM     27  C   UNL     1       5.910   5.619  14.871  0.00  0.00    +0.000 C 
ATOM     28  O   UNL     1       5.419   6.769  15.566  0.00  0.00    +0.000 OA
ENDBRANCH  25  28
ENDBRANCH   1  25
BRANCH   8  29
ATOM     29  O   UNL     1       1.016   4.236  17.259  0.00  0.00    +0.000 OA
ATOM     30  H   UNL     1       0.652   4.926  17.827  0.00  0.00    +0.000 HD
ENDBRANCH   8  29
BRANCH   8  31
ATOM     31  O   UNL     1       1.622   2.293  18.429  0.00  0.00    +0.000 OA
ATOM     32  C   UNL     1       0.602   2.347  19.423  0.00  0.00    +0.000 C 
ENDBRANCH   8  31
TORSDOF 8
ENDMDL
MODEL 6
REMARK VINA RESULT:      -8.0      3.189      8.774
REMARK  Name = 
REMARK  13 active torsions:
REMARK  status: ('A' for Active; 'I' for Inactive)
REMARK    1  A    between atoms: C_1  and  O_2
REMARK    2  A    between atoms: O_2  and  C_3
REMARK    3  A    between atoms: C_3  and  C_5
REMARK    4  A    between atoms: C_6  and  C_7
REMARK    5  A    between atoms: C_9  and  C_10
REMARK    6  A    between atoms: C_12  and  O_13
REMARK    7  A    between atoms: C_12  and  O_14
REMARK    8  A    between atoms: O_14  and  C_15
REMARK    9  A    between atoms: C_16  and  C_17
REMARK   10  A    between atoms: C_21  and  O_22
REMARK   11  A    between atoms: O_22  and  C_23
REMARK   12  A    between atoms: C_23  and  C_24
REMARK   13  A    between atoms: C_29  and  C_30
REMARK                            x       y       z     vdW  Elec       q    Type
REMARK                         _______ _______ _______ _____ _____    ______ ____
ROOT
ATOM      1  C   UNL     1      -1.659  11.255  18.441  0.00  0.00    +0.000 C 
ATOM      2  C   UNL     1      -2.403  12.156  19.108  0.00  0.00    +0.000 C 
ATOM      3  C   UNL     1      -3.906  12.129  19.275  0.00  0.00    +0.000 C 
ATOM      4  N   UNL     1      -1.858  13.245  19.743  0.00  0.00    +0.000 NA
ATOM      5  C   UNL     1      -0.588  13.497  19.686  0.00  0.00    +0.000 C 
ATOM      6  C   UNL     1      -0.185  14.788  20.380  0.00  0.00    +0.000 C 
ATOM      7  C   UNL     1       0.439  12.634  18.992  0.00  0.00    +0.000 C 
ATOM      8  C   UNL     1       1.740  12.993  18.848  0.00  0.00    +0.000 C 
ATOM      9  C   UNL     1      -0.147  11.341  18.430  0.00  0.00    +0.000 C 
ENDROOT
BRANCH   9  10
ATOM     10  C   UNL     1       0.439  10.104  19.130  0.00  0.00    +0.000 A 
ATOM     11  C   UNL     1       0.226   9.910  20.505  0.00  0.00    +0.000 A 
ATOM     12  C   UNL     1       0.782   8.814  21.159  0.00  0.00    +0.000 A 
ATOM     13  C   UNL     1       1.595   7.925  20.460  0.00  0.00    +0.000 A 
ATOM     14  C   UNL     1       1.864   8.133  19.107  0.00  0.00    +0.000 A 
ATOM     15  C   UNL     1       1.254   9.194  18.435  0.00  0.00    +0.000 A 
BRANCH  14  16
ATOM     16  O   UNL     1       2.716   7.362  18.361  0.00  0.00    +0.000 OA
BRANCH  16  17
ATOM     17  C   UNL     1       3.192   6.185  19.031  0.00  0.00    +0.000 C 
BRANCH  17  18
ATOM     18  C   UNL     1       2.481   4.952  18.578  0.00  0.00    +0.000 A 
ATOM     19  N   UNL     1       2.613   4.544  17.310  0.00  0.00    +0.000 NA
ATOM     20  O   UNL     1       1.798   3.423  17.173  0.00  0.00    +0.000 OA
ATOM     21  N   UNL     1       1.169   3.181  18.438  0.00  0.00    +0.000 N 
ATOM     22  O   UNL     1       0.377   2.215  18.500  0.00  0.00    +0.000 OA
ATOM     23  C   UNL     1       1.582   4.125  19.285  0.00  0.00    +0.000 A 
ATOM     24  C   UNL     1       1.093   4.171  20.669  0.00  0.00    +0.000 C 
ENDBRANCH  17  18
ENDBRANCH  16  17
ENDBRANCH  14  16
ENDBRANCH   9  10
BRANCH   1  25
ATOM     25  C   UNL     1      -2.257  10.076  17.750  0.00  0.00    +0.000 C 
ATOM     26  O   UNL     1      -2.956   9.226  18.277  0.00  0.00    +0.000 OA
BRANCH  25  28
ATOM     27  C   UNL     1      -2.952  10.174  15.516  0.00  0.00    +0.000 C 
ATOM     28  O   UNL     1      -1.871  10.060  16.446  0.00  0.00    +0.000 OA
ENDBRANCH  25  28
ENDBRANCH   1  25
BRANCH   8  29
ATOM     29  O   UNL     1       2.653  12.222  18.152  0.00  0.00    +0.000 OA
ATOM     30  H   UNL     1       2.267  11.888  17.332  0.00  0.00    +0.000 HD
ENDBRANCH   8  29
BRANCH   8  31
ATOM     31  O   UNL     1       2.220  14.167  19.393  0.00  0.00    +0.000 OA
ATOM     32  C   UNL     1       2.990  14.966  18.499  0.00  0.00    +0.000 C 
ENDBRANCH   8  31
TORSDOF 8
ENDMDL
MODEL 7
REMARK VINA RESULT:      -8.0      1.773      2.220
REMARK  Name = 
REMARK  13 active torsions:
REMARK  status: ('A' for Active; 'I' for Inactive)
REMARK    1  A    between atoms: C_1  and  O_2
REMARK    2  A    between atoms: O_2  and  C_3
REMARK    3  A    between atoms: C_3  and  C_5
REMARK    4  A    between atoms: C_6  and  C_7
REMARK    5  A    between atoms: C_9  and  C_10
REMARK    6  A    between atoms: C_12  and  O_13
REMARK    7  A    between atoms: C_12  and  O_14
REMARK    8  A    between atoms: O_14  and  C_15
REMARK    9  A    between atoms: C_16  and  C_17
REMARK   10  A    between atoms: C_21  and  O_22
REMARK   11  A    between atoms: O_22  and  C_23
REMARK   12  A    between atoms: C_23  and  C_24
REMARK   13  A    between atoms: C_29  and  C_30
REMARK                            x       y       z     vdW  Elec       q    Type
REMARK                         _______ _______ _______ _____ _____    ______ ____
ROOT
ATOM      1  C   UNL     1       5.230   5.571  17.567  0.00  0.00    +0.000 C 
ATOM      2  C   UNL     1       6.056   4.717  18.198  0.00  0.00    +0.000 C 
ATOM      3  C   UNL     1       7.551   4.869  18.358  0.00  0.00    +0.000 C 
ATOM      4  N   UNL     1       5.613   3.563  18.799  0.00  0.00    +0.000 NA
ATOM      5  C   UNL     1       4.369   3.203  18.740  0.00  0.00    +0.000 C 
ATOM      6  C   UNL     1       4.086   1.860  19.392  0.00  0.00    +0.000 C 
ATOM      7  C   UNL     1       3.265   3.996  18.081  0.00  0.00    +0.000 C 
ATOM      8  C   UNL     1       1.999   3.530  17.932  0.00  0.00    +0.000 C 
ATOM      9  C   UNL     1       3.732   5.353  17.561  0.00  0.00    +0.000 C 
ENDROOT
BRANCH   9  10
ATOM     10  C   UNL     1       3.046   6.510  18.305  0.00  0.00    +0.000 A 
ATOM     11  C   UNL     1       2.670   6.354  19.650  0.00  0.00    +0.000 A 
ATOM     12  C   UNL     1       2.015   7.380  20.325  0.00  0.00    +0.000 A 
ATOM     13  C   UNL     1       1.685   8.555  19.655  0.00  0.00    +0.000 A 
ATOM     14  C   UNL     1       1.998   8.706  18.303  0.00  0.00    +0.000 A 
ATOM     15  C   UNL     1       2.713   7.705  17.642  0.00  0.00    +0.000 A 
BRANCH  14  16
ATOM     16  O   UNL     1       1.639   9.787  17.542  0.00  0.00    +0.000 OA
BRANCH  16  17
ATOM     17  C   UNL     1       1.814  11.055  18.192  0.00  0.00    +0.000 C 
BRANCH  17  18
ATOM     18  C   UNL     1       0.526  11.609  18.705  0.00  0.00    +0.000 A 
ATOM     19  N   UNL     1       0.546  12.612  19.591  0.00  0.00    +0.000 NA
ATOM     20  O   UNL     1      -0.782  12.868  19.923  0.00  0.00    +0.000 OA
ATOM     21  N   UNL     1      -1.603  11.957  19.180  0.00  0.00    +0.000 N 
ATOM     22  O   UNL     1      -2.837  12.027  19.368  0.00  0.00    +0.000 OA
ATOM     23  C   UNL     1      -0.797  11.185  18.449  0.00  0.00    +0.000 A 
ATOM     24  C   UNL     1      -1.335  10.123  17.590  0.00  0.00    +0.000 C 
ENDBRANCH  17  18
ENDBRANCH  16  17
ENDBRANCH  14  16
ENDBRANCH   9  10
BRANCH   1  25
ATOM     25  C   UNL     1       5.717   6.820  16.913  0.00  0.00    +0.000 C 
ATOM     26  O   UNL     1       6.278   7.743  17.480  0.00  0.00    +0.000 OA
BRANCH  25  28
ATOM     27  C   UNL     1       5.849   5.628  14.901  0.00  0.00    +0.000 C 
ATOM     28  O   UNL     1       5.404   6.801  15.589  0.00  0.00    +0.000 OA
ENDBRANCH  25  28
ENDBRANCH   1  25
BRANCH   8  29
ATOM     29  O   UNL     1       1.017   4.240  17.267  0.00  0.00    +0.000 OA
ATOM     30  H   UNL     1       0.685   4.964  17.815  0.00  0.00    +0.000 HD
ENDBRANCH   8  29
BRANCH   8  31
ATOM     31  O   UNL     1       1.628   2.301  18.439  0.00  0.00    +0.000 OA
ATOM     32  C   UNL     1       0.612   2.349  19.437  0.00  0.00    +0.000 C 
ENDBRANCH   8  31
TORSDOF 8
ENDMDL
MODEL 8
REMARK VINA RESULT:      -7.9      1.659      2.212
REMARK  Name = 
REMARK  13 active torsions:
REMARK  status: ('A' for Active; 'I' for Inactive)
REMARK    1  A    between atoms: C_1  and  O_2
REMARK    2  A    between atoms: O_2  and  C_3
REMARK    3  A    between atoms: C_3  and  C_5
REMARK    4  A    between atoms: C_6  and  C_7
REMARK    5  A    between atoms: C_9  and  C_10
REMARK    6  A    between atoms: C_12  and  O_13
REMARK    7  A    between atoms: C_12  and  O_14
REMARK    8  A    between atoms: O_14  and  C_15
REMARK    9  A    between atoms: C_16  and  C_17
REMARK   10  A    between atoms: C_21  and  O_22
REMARK   11  A    between atoms: O_22  and  C_23
REMARK   12  A    between atoms: C_23  and  C_24
REMARK   13  A    between atoms: C_29  and  C_30
REMARK                            x       y       z     vdW  Elec       q    Type
REMARK                         _______ _______ _______ _____ _____    ______ ____
ROOT
ATOM      1  C   UNL     1       5.215   5.558  17.560  0.00  0.00    +0.000 C 
ATOM      2  C   UNL     1       6.040   4.695  18.181  0.00  0.00    +0.000 C 
ATOM      3  C   UNL     1       7.537   4.839  18.336  0.00  0.00    +0.000 C 
ATOM      4  N   UNL     1       5.594   3.538  18.772  0.00  0.00    +0.000 NA
ATOM      5  C   UNL     1       4.349   3.184  18.715  0.00  0.00    +0.000 C 
ATOM      6  C   UNL     1       4.062   1.835  19.356  0.00  0.00    +0.000 C 
ATOM      7  C   UNL     1       3.246   3.987  18.068  0.00  0.00    +0.000 C 
ATOM      8  C   UNL     1       1.977   3.528  17.920  0.00  0.00    +0.000 C 
ATOM      9  C   UNL     1       3.716   5.347  17.558  0.00  0.00    +0.000 C 
ENDROOT
BRANCH   9  10
ATOM     10  C   UNL     1       3.039   6.500  18.316  0.00  0.00    +0.000 A 
ATOM     11  C   UNL     1       2.678   6.338  19.664  0.00  0.00    +0.000 A 
ATOM     12  C   UNL     1       2.031   7.360  20.351  0.00  0.00    +0.000 A 
ATOM     13  C   UNL     1       1.692   8.539  19.690  0.00  0.00    +0.000 A 
ATOM     14  C   UNL     1       1.991   8.696  18.336  0.00  0.00    +0.000 A 
ATOM     15  C   UNL     1       2.699   7.698  17.663  0.00  0.00    +0.000 A 
BRANCH  14  16
ATOM     16  O   UNL     1       1.623   9.780  17.584  0.00  0.00    +0.000 OA
BRANCH  16  17
ATOM     17  C   UNL     1       1.501  11.003  18.327  0.00  0.00    +0.000 C 
BRANCH  17  18
ATOM     18  C   UNL     1       0.103  11.242  18.795  0.00  0.00    +0.000 A 
ATOM     19  N   UNL     1      -0.923  10.805  18.054  0.00  0.00    +0.000 NA
ATOM     20  O   UNL     1      -2.081  11.222  18.706  0.00  0.00    +0.000 OA
ATOM     21  N   UNL     1      -1.687  11.935  19.886  0.00  0.00    +0.000 N 
ATOM     22  O   UNL     1      -2.605  12.407  20.593  0.00  0.00    +0.000 OA
ATOM     23  C   UNL     1      -0.354  11.953  19.926  0.00  0.00    +0.000 A 
ATOM     24  C   UNL     1       0.365  12.637  21.008  0.00  0.00    +0.000 C 
ENDBRANCH  17  18
ENDBRANCH  16  17
ENDBRANCH  14  16
ENDBRANCH   9  10
BRANCH   1  25
ATOM     25  C   UNL     1       5.706   6.811  16.916  0.00  0.00    +0.000 C 
ATOM     26  O   UNL     1       6.269   7.729  17.490  0.00  0.00    +0.000 OA
BRANCH  25  28
ATOM     27  C   UNL     1       5.810   5.622  14.901  0.00  0.00    +0.000 C 
ATOM     28  O   UNL     1       5.393   6.803  15.592  0.00  0.00    +0.000 OA
ENDBRANCH  25  28
ENDBRANCH   1  25
BRANCH   8  29
ATOM     29  O   UNL     1       0.995   4.249  17.265  0.00  0.00    +0.000 OA
ATOM     30  H   UNL     1       1.387   4.909  16.679  0.00  0.00    +0.000 HD
ENDBRANCH   8  29
BRANCH   8  31
ATOM     31  O   UNL     1       1.603   2.296  18.417  0.00  0.00    +0.000 OA
ATOM     32  C   UNL     1       0.582   2.339  19.410  0.00  0.00    +0.000 C 
ENDBRANCH   8  31
TORSDOF 8
ENDMDL
MODEL 9
REMARK VINA RESULT:      -7.9      2.823      8.219
REMARK  Name = 
REMARK  13 active torsions:
REMARK  status: ('A' for Active; 'I' for Inactive)
REMARK    1  A    between atoms: C_1  and  O_2
REMARK    2  A    between atoms: O_2  and  C_3
REMARK    3  A    between atoms: C_3  and  C_5
REMARK    4  A    between atoms: C_6  and  C_7
REMARK    5  A    between atoms: C_9  and  C_10
REMARK    6  A    between atoms: C_12  and  O_13
REMARK    7  A    between atoms: C_12  and  O_14
REMARK    8  A    between atoms: O_14  and  C_15
REMARK    9  A    between atoms: C_16  and  C_17
REMARK   10  A    between atoms: C_21  and  O_22
REMARK   11  A    between atoms: O_22  and  C_23
REMARK   12  A    between atoms: C_23  and  C_24
REMARK   13  A    between atoms: C_29  and  C_30
REMARK                            x       y       z     vdW  Elec       q    Type
REMARK                         _______ _______ _______ _____ _____    ______ ____
ROOT
ATOM      1  C   UNL     1       2.408   4.342  18.890  0.00  0.00    +0.000 C 
ATOM      2  C   UNL     1       1.888   4.365  20.131  0.00  0.00    +0.000 C 
ATOM      3  C   UNL     1       1.529   3.163  20.974  0.00  0.00    +0.000 C 
ATOM      4  N   UNL     1       1.619   5.534  20.801  0.00  0.00    +0.000 NA
ATOM      5  C   UNL     1       1.801   6.691  20.245  0.00  0.00    +0.000 C 
ATOM      6  C   UNL     1       1.370   7.863  21.111  0.00  0.00    +0.000 C 
ATOM      7  C   UNL     1       2.366   6.911  18.862  0.00  0.00    +0.000 C 
ATOM      8  C   UNL     1       2.427   8.130  18.268  0.00  0.00    +0.000 C 
ATOM      9  C   UNL     1       2.817   5.619  18.187  0.00  0.00    +0.000 C 
ENDROOT
BRANCH   9  10
ATOM     10  C   UNL     1       4.336   5.605  17.950  0.00  0.00    +0.000 A 
ATOM     11  C   UNL     1       5.216   5.611  19.044  0.00  0.00    +0.000 A 
ATOM     12  C   UNL     1       6.594   5.637  18.843  0.00  0.00    +0.000 A 
ATOM     13  C   UNL     1       7.108   5.705  17.551  0.00  0.00    +0.000 A 
ATOM     14  C   UNL     1       6.248   5.758  16.453  0.00  0.00    +0.000 A 
ATOM     15  C   UNL     1       4.869   5.666  16.650  0.00  0.00    +0.000 A 
BRANCH  14  16
ATOM     16  O   UNL     1       6.659   5.911  15.156  0.00  0.00    +0.000 OA
BRANCH  16  17
ATOM     17  C   UNL     1       7.176   4.716  14.552  0.00  0.00    +0.000 C 
BRANCH  17  18
ATOM     18  C   UNL     1       6.213   4.111  13.584  0.00  0.00    +0.000 A 
ATOM     19  N   UNL     1       4.901   4.146  13.851  0.00  0.00    +0.000 NA
ATOM     20  O   UNL     1       4.272   3.462  12.815  0.00  0.00    +0.000 OA
ATOM     21  N   UNL     1       5.286   3.014  11.906  0.00  0.00    +0.000 N 
ATOM     22  O   UNL     1       4.905   2.356  10.913  0.00  0.00    +0.000 OA
ATOM     23  C   UNL     1       6.467   3.404  12.389  0.00  0.00    +0.000 A 
ATOM     24  C   UNL     1       7.718   3.073  11.696  0.00  0.00    +0.000 C 
ENDBRANCH  17  18
ENDBRANCH  16  17
ENDBRANCH  14  16
ENDBRANCH   9  10
BRANCH   1  25
ATOM     25  C   UNL     1       2.694   3.070  18.166  0.00  0.00    +0.000 C 
ATOM     26  O   UNL     1       1.992   2.574  17.300  0.00  0.00    +0.000 OA
BRANCH  25  28
ATOM     27  C   UNL     1       3.841   1.084  18.638  0.00  0.00    +0.000 C 
ATOM     28  O   UNL     1       3.841   2.514  18.644  0.00  0.00    +0.000 OA
ENDBRANCH  25  28
ENDBRANCH   1  25
BRANCH   8  29
ATOM     29  O   UNL     1       2.886   8.306  16.975  0.00  0.00    +0.000 OA
ATOM     30  H   UNL     1       2.285   8.871  16.472  0.00  0.00    +0.000 HD
ENDBRANCH   8  29
BRANCH   8  31
ATOM     31  O   UNL     1       2.021   9.269  18.933  0.00  0.00    +0.000 OA
ATOM     32  C   UNL     1       0.987  10.002  18.282  0.00  0.00    +0.000 C 
ENDBRANCH   8  31
TORSDOF 8
ENDMDL
