MODEL 1
REMARK VINA RESULT:      -7.7      0.000      0.000
REMARK  Name = 
REMARK  9 active torsions:
REMARK  status: ('A' for Active; 'I' for Inactive)
REMARK    1  A    between atoms: C_1  and  O_2
REMARK    2  A    between atoms: O_2  and  C_3
REMARK    3  A    between atoms: C_6  and  C_7
REMARK    4  A    between atoms: C_11  and  C_12
REMARK    5  A    between atoms: C_12  and  N_13
REMARK    6  A    between atoms: N_13  and  C_14
REMARK    7  A    between atoms: C_14  and  C_15
REMARK    8  A    between atoms: C_15  and  C_16
REMARK    9  A    between atoms: C_21  and  C_22
REMARK                            x       y       z     vdW  Elec       q    Type
REMARK                         _______ _______ _______ _____ _____    ______ ____
ROOT
ATOM      1  C   UNL     1       7.114   4.956  16.978  0.00  0.00    +0.000 A 
ATOM      2  N   UNL     1       7.936   4.272  17.843  0.00  0.00    +0.000 N 
ATOM      3  N   UNL     1       8.165   4.896  19.006  0.00  0.00    +0.000 NA
ATOM      4  C   UNL     1       7.433   6.004  18.906  0.00  0.00    +0.000 A 
ATOM      5  C   UNL     1       6.706   6.078  17.692  0.00  0.00    +0.000 A 
ATOM      6  H   UNL     1       8.393   3.379  17.688  0.00  0.00    +0.000 HD
ENDROOT
BRANCH   1  10
ATOM      7  C   UNL     1       6.226   3.889  12.919  0.00  0.00    +0.000 A 
ATOM      8  C   UNL     1       5.533   3.295  13.971  0.00  0.00    +0.000 A 
ATOM      9  C   UNL     1       5.853   3.596  15.298  0.00  0.00    +0.000 A 
ATOM     10  C   UNL     1       6.862   4.517  15.605  0.00  0.00    +0.000 A 
ATOM     11  C   UNL     1       7.583   5.080  14.548  0.00  0.00    +0.000 A 
ATOM     12  C   UNL     1       7.265   4.770  13.224  0.00  0.00    +0.000 A 
ATOM     13  F   UNL     1       7.983   5.369  12.265  0.00  0.00    +0.000 F 
BRANCH   7  15
ATOM     14  C   UNL     1       4.396   3.228  11.557  0.00  0.00    +0.000 C 
ATOM     15  O   UNL     1       5.780   3.531  11.678  0.00  0.00    +0.000 OA
ENDBRANCH   7  15
ENDBRANCH   1  10
BRANCH   5  16
ATOM     16  C   UNL     1       5.772   7.177  17.310  0.00  0.00    +0.000 C 
BRANCH  16  17
ATOM     17  N   UNL     1       4.412   6.656  17.117  0.00  0.00    +0.000 NA
ATOM     18  H   UNL     1       4.453   5.803  16.564  0.00  0.00    +0.000 HD
BRANCH  17  19
ATOM     19  C   UNL     1       3.726   6.374  18.383  0.00  0.00    +0.000 C 
BRANCH  19  20
ATOM     20  C   UNL     1       2.312   5.836  18.152  0.00  0.00    +0.000 C 
BRANCH  20  21
ATOM     21  C   UNL     1       2.075   4.623  19.018  0.00  0.00    +0.000 A 
ATOM     22  N   UNL     1       1.739   4.900  20.304  0.00  0.00    +0.000 NA
ATOM     23  C   UNL     1       1.531   3.866  21.143  0.00  0.00    +0.000 A 
ATOM     24  C   UNL     1       1.637   2.541  20.761  0.00  0.00    +0.000 A 
ATOM     25  C   UNL     1       1.998   2.264  19.450  0.00  0.00    +0.000 A 
ATOM     26  C   UNL     1       2.244   3.310  18.550  0.00  0.00    +0.000 A 
ATOM     27  C   UNL     1       2.638   2.987  17.140  0.00  0.00    +0.000 C 
ENDBRANCH  20  21
ENDBRANCH  19  20
ENDBRANCH  17  19
ENDBRANCH  16  17
ENDBRANCH   5  16
TORSDOF 7
ENDMDL
MODEL 2
REMARK VINA RESULT:      -7.7      3.435      6.903
REMARK  Name = 
REMARK  9 active torsions:
REMARK  status: ('A' for Active; 'I' for Inactive)
REMARK    1  A    between atoms: C_1  and  O_2
REMARK    2  A    between atoms: O_2  and  C_3
REMARK    3  A    between atoms: C_6  and  C_7
REMARK    4  A    between atoms: C_11  and  C_12
REMARK    5  A    between atoms: C_12  and  N_13
REMARK    6  A    between atoms: N_13  and  C_14
REMARK    7  A    between atoms: C_14  and  C_15
REMARK    8  A    between atoms: C_15  and  C_16
REMARK    9  A    between atoms: C_21  and  C_22
REMARK                            x       y       z     vdW  Elec       q    Type
REMARK                         _______ _______ _______ _____ _____    ______ ____
ROOT
ATOM      1  C   UNL     1       1.988   4.771  20.500  0.00  0.00    +0.000 A 
ATOM      2  N   UNL     1       2.480   4.456  21.745  0.00  0.00    +0.000 N 
ATOM      3  N   UNL     1       2.434   3.152  22.049  0.00  0.00    +0.000 NA
ATOM      4  C   UNL     1       1.932   2.599  20.947  0.00  0.00    +0.000 A 
ATOM      5  C   UNL     1       1.686   3.544  19.919  0.00  0.00    +0.000 A 
ATOM      6  H   UNL     1       2.843   5.092  22.447  0.00  0.00    +0.000 HD
ENDROOT
BRANCH   1  10
ATOM      7  C   UNL     1       1.727   8.858  19.223  0.00  0.00    +0.000 A 
ATOM      8  C   UNL     1       1.175   8.464  20.441  0.00  0.00    +0.000 A 
ATOM      9  C   UNL     1       1.208   7.124  20.839  0.00  0.00    +0.000 A 
ATOM     10  C   UNL     1       1.813   6.148  20.039  0.00  0.00    +0.000 A 
ATOM     11  C   UNL     1       2.328   6.541  18.799  0.00  0.00    +0.000 A 
ATOM     12  C   UNL     1       2.286   7.879  18.402  0.00  0.00    +0.000 A 
ATOM     13  F   UNL     1       2.823   8.182  17.213  0.00  0.00    +0.000 F 
BRANCH   7  15
ATOM     14  C   UNL     1       0.955  10.988  19.938  0.00  0.00    +0.000 C 
ATOM     15  O   UNL     1       1.657  10.202  18.984  0.00  0.00    +0.000 OA
ENDBRANCH   7  15
ENDBRANCH   1  10
BRANCH   5  16
ATOM     16  C   UNL     1       1.163   3.222  18.558  0.00  0.00    +0.000 C 
BRANCH  16  17
ATOM     17  N   UNL     1       1.943   2.138  17.948  0.00  0.00    +0.000 NA
ATOM     18  H   UNL     1       1.621   1.984  16.996  0.00  0.00    +0.000 HD
BRANCH  17  19
ATOM     19  C   UNL     1       3.384   2.418  17.925  0.00  0.00    +0.000 C 
BRANCH  19  20
ATOM     20  C   UNL     1       3.713   3.616  17.031  0.00  0.00    +0.000 C 
BRANCH  20  21
ATOM     21  C   UNL     1       5.058   4.186  17.410  0.00  0.00    +0.000 A 
ATOM     22  N   UNL     1       5.155   4.603  18.699  0.00  0.00    +0.000 NA
ATOM     23  C   UNL     1       6.322   5.142  19.105  0.00  0.00    +0.000 A 
ATOM     24  C   UNL     1       7.423   5.290  18.280  0.00  0.00    +0.000 A 
ATOM     25  C   UNL     1       7.311   4.878  16.959  0.00  0.00    +0.000 A 
ATOM     26  C   UNL     1       6.109   4.331  16.490  0.00  0.00    +0.000 A 
ATOM     27  C   UNL     1       6.011   3.898  15.058  0.00  0.00    +0.000 C 
ENDBRANCH  20  21
ENDBRANCH  19  20
ENDBRANCH  17  19
ENDBRANCH  16  17
ENDBRANCH   5  16
TORSDOF 7
ENDMDL
MODEL 3
REMARK VINA RESULT:      -7.6      0.900      1.496
REMARK  Name = 
REMARK  9 active torsions:
REMARK  status: ('A' for Active; 'I' for Inactive)
REMARK    1  A    between atoms: C_1  and  O_2
REMARK    2  A    between atoms: O_2  and  C_3
REMARK    3  A    between atoms: C_6  and  C_7
REMARK    4  A    between atoms: C_11  and  C_12
REMARK    5  A    between atoms: C_12  and  N_13
REMARK    6  A    between atoms: N_13  and  C_14
REMARK    7  A    between atoms: C_14  and  C_15
REMARK    8  A    between atoms: C_15  and  C_16
REMARK    9  A    between atoms: C_21  and  C_22
REMARK                            x       y       z     vdW  Elec       q    Type
REMARK                         _______ _______ _______ _____ _____    ______ ____
ROOT
ATOM      1  C   UNL     1       7.116   4.967  16.961  0.00  0.00    +0.000 A 
ATOM      2  N   UNL     1       7.950   4.296  17.824  0.00  0.00    +0.000 N 
ATOM      3  N   UNL     1       8.200   4.941  18.971  0.00  0.00    +0.000 NA
ATOM      4  C   UNL     1       7.471   6.049  18.863  0.00  0.00    +0.000 A 
ATOM      5  C   UNL     1       6.723   6.103  17.660  0.00  0.00    +0.000 A 
ATOM      6  H   UNL     1       8.401   3.399  17.678  0.00  0.00    +0.000 HD
ENDROOT
BRANCH   1  10
ATOM      7  C   UNL     1       6.154   3.829  12.937  0.00  0.00    +0.000 A 
ATOM      8  C   UNL     1       5.483   3.250  14.013  0.00  0.00    +0.000 A 
ATOM      9  C   UNL     1       5.827   3.575  15.329  0.00  0.00    +0.000 A 
ATOM     10  C   UNL     1       6.839   4.504  15.600  0.00  0.00    +0.000 A 
ATOM     11  C   UNL     1       7.538   5.051  14.520  0.00  0.00    +0.000 A 
ATOM     12  C   UNL     1       7.196   4.717  13.208  0.00  0.00    +0.000 A 
ATOM     13  F   UNL     1       7.894   5.301  12.226  0.00  0.00    +0.000 F 
BRANCH   7  15
ATOM     14  C   UNL     1       5.731   2.059  11.411  0.00  0.00    +0.000 C 
ATOM     15  O   UNL     1       5.685   3.448  11.712  0.00  0.00    +0.000 OA
ENDBRANCH   7  15
ENDBRANCH   1  10
BRANCH   5  16
ATOM     16  C   UNL     1       5.786   7.199  17.275  0.00  0.00    +0.000 C 
BRANCH  16  17
ATOM     17  N   UNL     1       4.424   6.677  17.106  0.00  0.00    +0.000 NA
ATOM     18  H   UNL     1       4.461   5.780  16.629  0.00  0.00    +0.000 HD
BRANCH  17  19
ATOM     19  C   UNL     1       3.716   6.511  18.382  0.00  0.00    +0.000 C 
BRANCH  19  20
ATOM     20  C   UNL     1       2.362   5.824  18.192  0.00  0.00    +0.000 C 
BRANCH  20  21
ATOM     21  C   UNL     1       2.492   4.346  18.469  0.00  0.00    +0.000 A 
ATOM     22  N   UNL     1       3.292   3.674  17.601  0.00  0.00    +0.000 NA
ATOM     23  C   UNL     1       3.440   2.346  17.773  0.00  0.00    +0.000 A 
ATOM     24  C   UNL     1       2.825   1.634  18.787  0.00  0.00    +0.000 A 
ATOM     25  C   UNL     1       1.994   2.324  19.660  0.00  0.00    +0.000 A 
ATOM     26  C   UNL     1       1.796   3.702  19.504  0.00  0.00    +0.000 A 
ATOM     27  C   UNL     1       0.890   4.424  20.456  0.00  0.00    +0.000 C 
ENDBRANCH  20  21
ENDBRANCH  19  20
ENDBRANCH  17  19
ENDBRANCH  16  17
ENDBRANCH   5  16
TORSDOF 7
ENDMDL
MODEL 4
REMARK VINA RESULT:      -7.6      3.927      7.273
REMARK  Name = 
REMARK  9 active torsions:
REMARK  status: ('A' for Active; 'I' for Inactive)
REMARK    1  A    between atoms: C_1  and  O_2
REMARK    2  A    between atoms: O_2  and  C_3
REMARK    3  A    between atoms: C_6  and  C_7
REMARK    4  A    between atoms: C_11  and  C_12
REMARK    5  A    between atoms: C_12  and  N_13
REMARK    6  A    between atoms: N_13  and  C_14
REMARK    7  A    between atoms: C_14  and  C_15
REMARK    8  A    between atoms: C_15  and  C_16
REMARK    9  A    between atoms: C_21  and  C_22
REMARK                            x       y       z     vdW  Elec       q    Type
REMARK                         _______ _______ _______ _____ _____    ______ ____
ROOT
ATOM      1  C   UNL     1       2.129   5.002  20.364  0.00  0.00    +0.000 A 
ATOM      2  N   UNL     1       2.435   4.581  21.637  0.00  0.00    +0.000 N 
ATOM      3  N   UNL     1       2.345   3.257  21.823  0.00  0.00    +0.000 NA
ATOM      4  C   UNL     1       2.007   2.803  20.618  0.00  0.00    +0.000 A 
ATOM      5  C   UNL     1       1.913   3.830  19.646  0.00  0.00    +0.000 A 
ATOM      6  H   UNL     1       2.694   5.153  22.434  0.00  0.00    +0.000 HD
ENDROOT
BRANCH   1  10
ATOM      7  C   UNL     1       1.568   9.098  19.215  0.00  0.00    +0.000 A 
ATOM      8  C   UNL     1       2.234   8.213  18.369  0.00  0.00    +0.000 A 
ATOM      9  C   UNL     1       2.469   6.891  18.759  0.00  0.00    +0.000 A 
ATOM     10  C   UNL     1       2.024   6.415  19.997  0.00  0.00    +0.000 A 
ATOM     11  C   UNL     1       1.393   7.316  20.861  0.00  0.00    +0.000 A 
ATOM     12  C   UNL     1       1.167   8.638  20.470  0.00  0.00    +0.000 A 
ATOM     13  F   UNL     1       0.534   9.434  21.342  0.00  0.00    +0.000 F 
BRANCH   7  15
ATOM     14  C   UNL     1       0.028  10.750  18.481  0.00  0.00    +0.000 C 
ATOM     15  O   UNL     1       1.375  10.343  18.687  0.00  0.00    +0.000 OA
ENDBRANCH   7  15
ENDBRANCH   1  10
BRANCH   5  16
ATOM     16  C   UNL     1       1.592   3.628  18.203  0.00  0.00    +0.000 C 
BRANCH  16  17
ATOM     17  N   UNL     1       2.716   4.054  17.359  0.00  0.00    +0.000 NA
ATOM     18  H   UNL     1       2.742   5.069  17.317  0.00  0.00    +0.000 HD
BRANCH  17  19
ATOM     19  C   UNL     1       4.011   3.562  17.846  0.00  0.00    +0.000 C 
BRANCH  19  20
ATOM     20  C   UNL     1       5.127   3.805  16.828  0.00  0.00    +0.000 C 
BRANCH  20  21
ATOM     21  C   UNL     1       6.049   4.891  17.325  0.00  0.00    +0.000 A 
ATOM     22  N   UNL     1       6.918   4.498  18.293  0.00  0.00    +0.000 NA
ATOM     23  C   UNL     1       7.761   5.420  18.800  0.00  0.00    +0.000 A 
ATOM     24  C   UNL     1       7.789   6.739  18.385  0.00  0.00    +0.000 A 
ATOM     25  C   UNL     1       6.886   7.138  17.409  0.00  0.00    +0.000 A 
ATOM     26  C   UNL     1       5.978   6.216  16.869  0.00  0.00    +0.000 A 
ATOM     27  C   UNL     1       5.009   6.672  15.820  0.00  0.00    +0.000 C 
ENDBRANCH  20  21
ENDBRANCH  19  20
ENDBRANCH  17  19
ENDBRANCH  16  17
ENDBRANCH   5  16
TORSDOF 7
ENDMDL
MODEL 5
REMARK VINA RESULT:      -7.5      3.836      7.187
REMARK  Name = 
REMARK  9 active torsions:
REMARK  status: ('A' for Active; 'I' for Inactive)
REMARK    1  A    between atoms: C_1  and  O_2
REMARK    2  A    between atoms: O_2  and  C_3
REMARK    3  A    between atoms: C_6  and  C_7
REMARK    4  A    between atoms: C_11  and  C_12
REMARK    5  A    between atoms: C_12  and  N_13
REMARK    6  A    between atoms: N_13  and  C_14
REMARK    7  A    between atoms: C_14  and  C_15
REMARK    8  A    between atoms: C_15  and  C_16
REMARK    9  A    between atoms: C_21  and  C_22
REMARK                            x       y       z     vdW  Elec       q    Type
REMARK                         _______ _______ _______ _____ _____    ______ ____
ROOT
ATOM      1  C   UNL     1       2.817   4.958  18.573  0.00  0.00    +0.000 A 
ATOM      2  N   UNL     1       2.169   4.194  17.631  0.00  0.00    +0.000 N 
ATOM      3  N   UNL     1       2.904   3.198  17.119  0.00  0.00    +0.000 NA
ATOM      4  C   UNL     1       4.054   3.296  17.782  0.00  0.00    +0.000 A 
ATOM      5  C   UNL     1       4.049   4.335  18.746  0.00  0.00    +0.000 A 
ATOM      6  H   UNL     1       1.226   4.316  17.276  0.00  0.00    +0.000 HD
ENDROOT
BRANCH   1  10
ATOM      7  C   UNL     1       1.381   8.617  20.291  0.00  0.00    +0.000 A 
ATOM      8  C   UNL     1       1.355   7.435  21.029  0.00  0.00    +0.000 A 
ATOM      9  C   UNL     1       1.770   6.228  20.458  0.00  0.00    +0.000 A 
ATOM     10  C   UNL     1       2.242   6.178  19.141  0.00  0.00    +0.000 A 
ATOM     11  C   UNL     1       2.227   7.358  18.391  0.00  0.00    +0.000 A 
ATOM     12  C   UNL     1       1.804   8.560  18.963  0.00  0.00    +0.000 A 
ATOM     13  F   UNL     1       1.843   9.653  18.190  0.00  0.00    +0.000 F 
BRANCH   7  15
ATOM     14  C   UNL     1       0.709   9.544  22.372  0.00  0.00    +0.000 C 
ATOM     15  O   UNL     1       0.984   9.723  20.989  0.00  0.00    +0.000 OA
ENDBRANCH   7  15
ENDBRANCH   1  10
BRANCH   5  16
ATOM     16  C   UNL     1       5.176   4.664  19.668  0.00  0.00    +0.000 C 
BRANCH  16  17
ATOM     17  N   UNL     1       6.466   4.483  18.991  0.00  0.00    +0.000 NA
ATOM     18  H   UNL     1       6.315   4.406  17.989  0.00  0.00    +0.000 HD
BRANCH  17  19
ATOM     19  C   UNL     1       7.403   5.584  19.250  0.00  0.00    +0.000 C 
BRANCH  19  20
ATOM     20  C   UNL     1       7.632   6.437  18.001  0.00  0.00    +0.000 C 
BRANCH  20  21
ATOM     21  C   UNL     1       6.920   5.822  16.821  0.00  0.00    +0.000 A 
ATOM     22  N   UNL     1       7.562   4.765  16.259  0.00  0.00    +0.000 NA
ATOM     23  C   UNL     1       6.996   4.176  15.188  0.00  0.00    +0.000 A 
ATOM     24  C   UNL     1       5.798   4.589  14.633  0.00  0.00    +0.000 A 
ATOM     25  C   UNL     1       5.156   5.681  15.201  0.00  0.00    +0.000 A 
ATOM     26  C   UNL     1       5.720   6.336  16.304  0.00  0.00    +0.000 A 
ATOM     27  C   UNL     1       5.011   7.517  16.896  0.00  0.00    +0.000 C 
ENDBRANCH  20  21
ENDBRANCH  19  20
ENDBRANCH  17  19
ENDBRANCH  16  17
ENDBRANCH   5  16
TORSDOF 7
ENDMDL
MODEL 6
REMARK VINA RESULT:      -7.5      1.044      1.713
REMARK  Name = 
REMARK  9 active torsions:
REMARK  status: ('A' for Active; 'I' for Inactive)
REMARK    1  A    between atoms: C_1  and  O_2
REMARK    2  A    between atoms: O_2  and  C_3
REMARK    3  A    between atoms: C_6  and  C_7
REMARK    4  A    between atoms: C_11  and  C_12
REMARK    5  A    between atoms: C_12  and  N_13
REMARK    6  A    between atoms: N_13  and  C_14
REMARK    7  A    between atoms: C_14  and  C_15
REMARK    8  A    between atoms: C_15  and  C_16
REMARK    9  A    between atoms: C_21  and  C_22
REMARK                            x       y       z     vdW  Elec       q    Type
REMARK                         _______ _______ _______ _____ _____    ______ ____
ROOT
ATOM      1  C   UNL     1       7.000   4.854  17.462  0.00  0.00    +0.000 A 
ATOM      2  N   UNL     1       8.163   4.569  18.138  0.00  0.00    +0.000 N 
ATOM      3  N   UNL     1       8.232   5.087  19.372  0.00  0.00    +0.000 NA
ATOM      4  C   UNL     1       7.056   5.696  19.513  0.00  0.00    +0.000 A 
ATOM      5  C   UNL     1       6.215   5.541  18.382  0.00  0.00    +0.000 A 
ATOM      6  H   UNL     1       8.961   4.040  17.803  0.00  0.00    +0.000 HD
ENDROOT
BRANCH   1  10
ATOM      7  C   UNL     1       6.259   4.070  13.309  0.00  0.00    +0.000 A 
ATOM      8  C   UNL     1       5.480   3.460  14.292  0.00  0.00    +0.000 A 
ATOM      9  C   UNL     1       5.750   3.668  15.648  0.00  0.00    +0.000 A 
ATOM     10  C   UNL     1       6.793   4.508  16.055  0.00  0.00    +0.000 A 
ATOM     11  C   UNL     1       7.597   5.086  15.067  0.00  0.00    +0.000 A 
ATOM     12  C   UNL     1       7.328   4.869  13.714  0.00  0.00    +0.000 A 
ATOM     13  F   UNL     1       8.127   5.477  12.827  0.00  0.00    +0.000 F 
BRANCH   7  15
ATOM     14  C   UNL     1       4.559   3.249  11.868  0.00  0.00    +0.000 C 
ATOM     15  O   UNL     1       5.855   3.809  12.030  0.00  0.00    +0.000 OA
ENDBRANCH   7  15
ENDBRANCH   1  10
BRANCH   5  16
ATOM     16  C   UNL     1       4.827   6.074  18.259  0.00  0.00    +0.000 C 
BRANCH  16  17
ATOM     17  N   UNL     1       4.102   5.927  19.528  0.00  0.00    +0.000 NA
ATOM     18  H   UNL     1       4.644   6.347  20.278  0.00  0.00    +0.000 HD
BRANCH  17  19
ATOM     19  C   UNL     1       2.770   6.543  19.496  0.00  0.00    +0.000 C 
BRANCH  19  20
ATOM     20  C   UNL     1       1.682   5.562  19.937  0.00  0.00    +0.000 C 
BRANCH  20  21
ATOM     21  C   UNL     1       1.903   4.221  19.281  0.00  0.00    +0.000 A 
ATOM     22  N   UNL     1       2.172   4.278  17.951  0.00  0.00    +0.000 NA
ATOM     23  C   UNL     1       2.362   3.118  17.291  0.00  0.00    +0.000 A 
ATOM     24  C   UNL     1       2.299   1.876  17.898  0.00  0.00    +0.000 A 
ATOM     25  C   UNL     1       2.006   1.824  19.254  0.00  0.00    +0.000 A 
ATOM     26  C   UNL     1       1.782   3.006  19.973  0.00  0.00    +0.000 A 
ATOM     27  C   UNL     1       1.461   2.924  21.435  0.00  0.00    +0.000 C 
ENDBRANCH  20  21
ENDBRANCH  19  20
ENDBRANCH  17  19
ENDBRANCH  16  17
ENDBRANCH   5  16
TORSDOF 7
ENDMDL
MODEL 7
REMARK VINA RESULT:      -7.4      3.908      5.893
REMARK  Name = 
REMARK  9 active torsions:
REMARK  status: ('A' for Active; 'I' for Inactive)
REMARK    1  A    between atoms: C_1  and  O_2
REMARK    2  A    between atoms: O_2  and  C_3
REMARK    3  A    between atoms: C_6  and  C_7
REMARK    4  A    between atoms: C_11  and  C_12
REMARK    5  A    between atoms: C_12  and  N_13
REMARK    6  A    between atoms: N_13  and  C_14
REMARK    7  A    between atoms: C_14  and  C_15
REMARK    8  A    between atoms: C_15  and  C_16
REMARK    9  A    between atoms: C_21  and  C_22
REMARK                            x       y       z     vdW  Elec       q    Type
REMARK                         _______ _______ _______ _____ _____    ______ ____
ROOT
ATOM      1  C   UNL     1       4.591   6.597  17.276  0.00  0.00    +0.000 A 
ATOM      2  N   UNL     1       4.830   6.775  15.933  0.00  0.00    +0.000 N 
ATOM      3  N   UNL     1       5.891   6.105  15.464  0.00  0.00    +0.000 NA
ATOM      4  C   UNL     1       6.329   5.440  16.531  0.00  0.00    +0.000 A 
ATOM      5  C   UNL     1       5.530   5.655  17.681  0.00  0.00    +0.000 A 
ATOM      6  H   UNL     1       4.316   7.360  15.284  0.00  0.00    +0.000 HD
ENDROOT
BRANCH   1  10
ATOM      7  C   UNL     1       1.428   8.646  19.327  0.00  0.00    +0.000 A 
ATOM      8  C   UNL     1       1.952   9.164  18.143  0.00  0.00    +0.000 A 
ATOM      9  C   UNL     1       3.019   8.531  17.498  0.00  0.00    +0.000 A 
ATOM     10  C   UNL     1       3.575   7.353  18.009  0.00  0.00    +0.000 A 
ATOM     11  C   UNL     1       3.074   6.860  19.219  0.00  0.00    +0.000 A 
ATOM     12  C   UNL     1       2.013   7.499  19.863  0.00  0.00    +0.000 A 
ATOM     13  F   UNL     1       1.572   6.953  21.004  0.00  0.00    +0.000 F 
BRANCH   7  15
ATOM     14  C   UNL     1       0.625  10.228  20.906  0.00  0.00    +0.000 C 
ATOM     15  O   UNL     1       0.364   9.345  19.823  0.00  0.00    +0.000 OA
ENDBRANCH   7  15
ENDBRANCH   1  10
BRANCH   5  16
ATOM     16  C   UNL     1       5.746   5.018  19.014  0.00  0.00    +0.000 C 
BRANCH  16  17
ATOM     17  N   UNL     1       5.437   3.584  18.957  0.00  0.00    +0.000 NA
ATOM     18  H   UNL     1       4.834   3.336  19.737  0.00  0.00    +0.000 HD
BRANCH  17  19
ATOM     19  C   UNL     1       4.782   3.192  17.703  0.00  0.00    +0.000 C 
BRANCH  19  20
ATOM     20  C   UNL     1       3.606   2.246  17.951  0.00  0.00    +0.000 C 
BRANCH  20  21
ATOM     21  C   UNL     1       2.809   2.717  19.143  0.00  0.00    +0.000 A 
ATOM     22  N   UNL     1       3.229   2.224  20.337  0.00  0.00    +0.000 NA
ATOM     23  C   UNL     1       2.553   2.584  21.445  0.00  0.00    +0.000 A 
ATOM     24  C   UNL     1       1.460   3.432  21.431  0.00  0.00    +0.000 A 
ATOM     25  C   UNL     1       1.025   3.918  20.205  0.00  0.00    +0.000 A 
ATOM     26  C   UNL     1       1.687   3.551  19.026  0.00  0.00    +0.000 A 
ATOM     27  C   UNL     1       1.195   4.085  17.714  0.00  0.00    +0.000 C 
ENDBRANCH  20  21
ENDBRANCH  19  20
ENDBRANCH  17  19
ENDBRANCH  16  17
ENDBRANCH   5  16
TORSDOF 7
ENDMDL
MODEL 8
REMARK VINA RESULT:      -7.4      4.174      6.059
REMARK  Name = 
REMARK  9 active torsions:
REMARK  status: ('A' for Active; 'I' for Inactive)
REMARK    1  A    between atoms: C_1  and  O_2
REMARK    2  A    between atoms: O_2  and  C_3
REMARK    3  A    between atoms: C_6  and  C_7
REMARK    4  A    between atoms: C_11  and  C_12
REMARK    5  A    between atoms: C_12  and  N_13
REMARK    6  A    between atoms: N_13  and  C_14
REMARK    7  A    between atoms: C_14  and  C_15
REMARK    8  A    between atoms: C_15  and  C_16
REMARK    9  A    between atoms: C_21  and  C_22
REMARK                            x       y       z     vdW  Elec       q    Type
REMARK                         _______ _______ _______ _____ _____    ______ ____
ROOT
ATOM      1  C   UNL     1       4.556   3.990  18.977  0.00  0.00    +0.000 A 
ATOM      2  N   UNL     1       4.937   2.699  19.259  0.00  0.00    +0.000 N 
ATOM      3  N   UNL     1       4.014   1.973  19.903  0.00  0.00    +0.000 NA
ATOM      4  C   UNL     1       2.985   2.812  20.007  0.00  0.00    +0.000 A 
ATOM      5  C   UNL     1       3.232   4.067  19.398  0.00  0.00    +0.000 A 
ATOM      6  H   UNL     1       5.827   2.257  19.056  0.00  0.00    +0.000 HD
ENDROOT
BRANCH   1  10
ATOM      7  C   UNL     1       7.148   7.078  17.510  0.00  0.00    +0.000 A 
ATOM      8  C   UNL     1       5.946   6.801  16.862  0.00  0.00    +0.000 A 
ATOM      9  C   UNL     1       5.121   5.760  17.301  0.00  0.00    +0.000 A 
ATOM     10  C   UNL     1       5.469   4.984  18.413  0.00  0.00    +0.000 A 
ATOM     11  C   UNL     1       6.696   5.238  19.035  0.00  0.00    +0.000 A 
ATOM     12  C   UNL     1       7.520   6.273  18.588  0.00  0.00    +0.000 A 
ATOM     13  F   UNL     1       8.667   6.472  19.250  0.00  0.00    +0.000 F 
BRANCH   7  15
ATOM     14  C   UNL     1       8.106   9.218  17.888  0.00  0.00    +0.000 C 
ATOM     15  O   UNL     1       7.830   8.145  16.997  0.00  0.00    +0.000 OA
ENDBRANCH   7  15
ENDBRANCH   1  10
BRANCH   5  16
ATOM     16  C   UNL     1       2.258   5.195  19.317  0.00  0.00    +0.000 C 
BRANCH  16  17
ATOM     17  N   UNL     1       2.578   6.227  20.311  0.00  0.00    +0.000 NA
ATOM     18  H   UNL     1       3.588   6.303  20.407  0.00  0.00    +0.000 HD
BRANCH  17  19
ATOM     19  C   UNL     1       2.030   7.543  19.961  0.00  0.00    +0.000 C 
BRANCH  19  20
ATOM     20  C   UNL     1       1.404   8.235  21.174  0.00  0.00    +0.000 C 
BRANCH  20  21
ATOM     21  C   UNL     1       0.572   9.411  20.723  0.00  0.00    +0.000 A 
ATOM     22  N   UNL     1       0.712   9.735  19.411  0.00  0.00    +0.000 NA
ATOM     23  C   UNL     1       0.014  10.787  18.940  0.00  0.00    +0.000 A 
ATOM     24  C   UNL     1      -0.837  11.550  19.720  0.00  0.00    +0.000 A 
ATOM     25  C   UNL     1      -0.961  11.224  21.063  0.00  0.00    +0.000 A 
ATOM     26  C   UNL     1      -0.238  10.150  21.599  0.00  0.00    +0.000 A 
ATOM     27  C   UNL     1      -0.385   9.822  23.054  0.00  0.00    +0.000 C 
ENDBRANCH  20  21
ENDBRANCH  19  20
ENDBRANCH  17  19
ENDBRANCH  16  17
ENDBRANCH   5  16
TORSDOF 7
ENDMDL
MODEL 9
REMARK VINA RESULT:      -7.4      3.658      7.077
REMARK  Name = 
REMARK  9 active torsions:
REMARK  status: ('A' for Active; 'I' for Inactive)
REMARK    1  A    between atoms: C_1  and  O_2
REMARK    2  A    between atoms: O_2  and  C_3
REMARK    3  A    between atoms: C_6  and  C_7
REMARK    4  A    between atoms: C_11  and  C_12
REMARK    5  A    between atoms: C_12  and  N_13
REMARK    6  A    between atoms: N_13  and  C_14
REMARK    7  A    between atoms: C_14  and  C_15
REMARK    8  A    between atoms: C_15  and  C_16
REMARK    9  A    between atoms: C_21  and  C_22
REMARK                            x       y       z     vdW  Elec       q    Type
REMARK                         _______ _______ _______ _____ _____    ______ ____
ROOT
ATOM      1  C   UNL     1       2.171   4.703  20.150  0.00  0.00    +0.000 A 
ATOM      2  N   UNL     1       1.072   4.167  20.778  0.00  0.00    +0.000 N 
ATOM      3  N   UNL     1       1.160   2.854  21.031  0.00  0.00    +0.000 NA
ATOM      4  C   UNL     1       2.375   2.539  20.586  0.00  0.00    +0.000 A 
ATOM      5  C   UNL     1       3.083   3.656  20.077  0.00  0.00    +0.000 A 
ATOM      6  H   UNL     1       0.216   4.642  21.043  0.00  0.00    +0.000 HD
ENDROOT
BRANCH   1  10
ATOM      7  C   UNL     1       2.031   8.718  18.643  0.00  0.00    +0.000 A 
ATOM      8  C   UNL     1       2.550   7.689  17.859  0.00  0.00    +0.000 A 
ATOM      9  C   UNL     1       2.650   6.388  18.363  0.00  0.00    +0.000 A 
ATOM     10  C   UNL     1       2.212   6.080  19.656  0.00  0.00    +0.000 A 
ATOM     11  C   UNL     1       1.730   7.123  20.454  0.00  0.00    +0.000 A 
ATOM     12  C   UNL     1       1.639   8.422  19.949  0.00  0.00    +0.000 A 
ATOM     13  F   UNL     1       1.143   9.362  20.764  0.00  0.00    +0.000 F 
BRANCH   7  15
ATOM     14  C   UNL     1       1.358  10.994  18.729  0.00  0.00    +0.000 C 
ATOM     15  O   UNL     1       1.957   9.926  18.008  0.00  0.00    +0.000 OA
ENDBRANCH   7  15
ENDBRANCH   1  10
BRANCH   5  16
ATOM     16  C   UNL     1       4.478   3.625  19.546  0.00  0.00    +0.000 C 
BRANCH  16  17
ATOM     17  N   UNL     1       4.563   2.750  18.370  0.00  0.00    +0.000 NA
ATOM     18  H   UNL     1       3.873   2.008  18.449  0.00  0.00    +0.000 HD
BRANCH  17  19
ATOM     19  C   UNL     1       4.348   3.471  17.109  0.00  0.00    +0.000 C 
BRANCH  19  20
ATOM     20  C   UNL     1       5.665   3.727  16.372  0.00  0.00    +0.000 C 
BRANCH  20  21
ATOM     21  C   UNL     1       6.398   4.879  17.014  0.00  0.00    +0.000 A 
ATOM     22  N   UNL     1       7.259   4.524  18.003  0.00  0.00    +0.000 NA
ATOM     23  C   UNL     1       7.935   5.501  18.637  0.00  0.00    +0.000 A 
ATOM     24  C   UNL     1       7.802   6.844  18.331  0.00  0.00    +0.000 A 
ATOM     25  C   UNL     1       6.908   7.202  17.331  0.00  0.00    +0.000 A 
ATOM     26  C   UNL     1       6.169   6.218  16.661  0.00  0.00    +0.000 A 
ATOM     27  C   UNL     1       5.205   6.630  15.589  0.00  0.00    +0.000 C 
ENDBRANCH  20  21
ENDBRANCH  19  20
ENDBRANCH  17  19
ENDBRANCH  16  17
ENDBRANCH   5  16
TORSDOF 7
ENDMDL
