MODEL 1
REMARK VINA RESULT:      -8.2      0.000      0.000
REMARK  Name = 
REMARK  5 active torsions:
REMARK  status: ('A' for Active; 'I' for Inactive)
REMARK    1  A    between atoms: N_1  and  S_2
REMARK    2  A    between atoms: S_2  and  C_5
REMARK    3  A    between atoms: C_8  and  N_9
REMARK    4  A    between atoms: C_11  and  C_12
REMARK    5  A    between atoms: C_21  and  C_22
REMARK                            x       y       z     vdW  Elec       q    Type
REMARK                         _______ _______ _______ _____ _____    ______ ____
ROOT
ATOM      1  N   UNL     1       1.497   8.201  20.231  0.00  0.00    +0.000 N 
ATOM      2  C   UNL     1       2.355   8.051  19.183  0.00  0.00    +0.000 A 
ATOM      3  C   UNL     1       2.702   6.725  19.125  0.00  0.00    +0.000 A 
ATOM      4  C   UNL     1       1.929   6.087  20.129  0.00  0.00    +0.000 A 
ATOM      5  N   UNL     1       1.232   7.008  20.829  0.00  0.00    +0.000 NA
ENDROOT
BRANCH   3   6
ATOM      6  C   UNL     1       3.688   6.273  18.114  0.00  0.00    +0.000 A 
ATOM      7  N   UNL     1       3.481   5.170  17.416  0.00  0.00    +0.000 NA
ATOM      8  C   UNL     1       4.603   4.996  16.664  0.00  0.00    +0.000 A 
ATOM      9  C   UNL     1       4.926   3.937  15.805  0.00  0.00    +0.000 A 
ATOM     10  C   UNL     1       6.149   3.976  15.136  0.00  0.00    +0.000 A 
ATOM     11  C   UNL     1       7.028   5.051  15.317  0.00  0.00    +0.000 A 
ATOM     12  C   UNL     1       6.717   6.119  16.171  0.00  0.00    +0.000 A 
ATOM     13  C   UNL     1       5.491   6.049  16.836  0.00  0.00    +0.000 A 
ATOM     14  N   UNL     1       4.862   6.873  17.740  0.00  0.00    +0.000 N 
ATOM     15  H   UNL     1       5.201   7.767  18.067  0.00  0.00    +0.000 HD
ENDBRANCH   3   6
BRANCH   1  19
ATOM     16  C   UNL     1      -0.173  11.837  21.582  0.00  0.00    +0.000 A 
ATOM     17  C   UNL     1      -0.230  10.714  22.401  0.00  0.00    +0.000 A 
ATOM     18  C   UNL     1       0.323   9.509  21.955  0.00  0.00    +0.000 A 
ATOM     19  C   UNL     1       0.931   9.427  20.687  0.00  0.00    +0.000 A 
ATOM     20  C   UNL     1       0.967  10.562  19.866  0.00  0.00    +0.000 A 
ATOM     21  C   UNL     1       0.411  11.764  20.309  0.00  0.00    +0.000 A 
BRANCH  16  22
ATOM     22  S   UNL     1      -0.885  13.363  22.126  0.00  0.00    +0.000 S 
ATOM     23  O   UNL     1      -1.645  13.948  21.049  0.00  0.00    +0.000 OA
ATOM     24  O   UNL     1       0.103  14.107  22.872  0.00  0.00    +0.000 OA
BRANCH  22  25
ATOM     25  N   UNL     1      -2.006  12.830  23.256  0.00  0.00    +0.000 NA
ATOM     26  H   UNL     1      -2.115  13.533  23.989  0.00  0.00    +0.000 HD
ATOM     27  H   UNL     1      -1.745  11.907  23.605  0.00  0.00    +0.000 HD
ENDBRANCH  22  25
ENDBRANCH  16  22
ENDBRANCH   1  19
BRANCH   4  28
ATOM     28  C   UNL     1       1.796   4.654  20.435  0.00  0.00    +0.000 A 
ATOM     29  C   UNL     1       2.381   4.113  21.588  0.00  0.00    +0.000 A 
ATOM     30  C   UNL     1       2.314   2.740  21.849  0.00  0.00    +0.000 A 
ATOM     31  C   UNL     1       1.662   1.890  20.957  0.00  0.00    +0.000 A 
ATOM     32  C   UNL     1       1.030   2.417  19.836  0.00  0.00    +0.000 A 
ATOM     33  C   UNL     1       1.071   3.794  19.595  0.00  0.00    +0.000 A 
ENDBRANCH   4  28
TORSDOF 5
ENDMDL
MODEL 2
REMARK VINA RESULT:      -8.1      1.239      1.779
REMARK  Name = 
REMARK  5 active torsions:
REMARK  status: ('A' for Active; 'I' for Inactive)
REMARK    1  A    between atoms: N_1  and  S_2
REMARK    2  A    between atoms: S_2  and  C_5
REMARK    3  A    between atoms: C_8  and  N_9
REMARK    4  A    between atoms: C_11  and  C_12
REMARK    5  A    between atoms: C_21  and  C_22
REMARK                            x       y       z     vdW  Elec       q    Type
REMARK                         _______ _______ _______ _____ _____    ______ ____
ROOT
ATOM      1  N   UNL     1       1.654   8.395  19.382  0.00  0.00    +0.000 N 
ATOM      2  C   UNL     1       2.540   8.038  18.410  0.00  0.00    +0.000 A 
ATOM      3  C   UNL     1       2.845   6.715  18.601  0.00  0.00    +0.000 A 
ATOM      4  C   UNL     1       2.020   6.286  19.673  0.00  0.00    +0.000 A 
ATOM      5  N   UNL     1       1.332   7.336  20.173  0.00  0.00    +0.000 NA
ENDROOT
BRANCH   3   6
ATOM      6  C   UNL     1       3.847   6.064  17.723  0.00  0.00    +0.000 A 
ATOM      7  N   UNL     1       5.030   6.618  17.523  0.00  0.00    +0.000 NA
ATOM      8  C   UNL     1       5.656   5.828  16.608  0.00  0.00    +0.000 A 
ATOM      9  C   UNL     1       6.903   6.013  15.997  0.00  0.00    +0.000 A 
ATOM     10  C   UNL     1       7.339   5.059  15.077  0.00  0.00    +0.000 A 
ATOM     11  C   UNL     1       6.549   3.943  14.777  0.00  0.00    +0.000 A 
ATOM     12  C   UNL     1       5.299   3.743  15.381  0.00  0.00    +0.000 A 
ATOM     13  C   UNL     1       4.883   4.719  16.291  0.00  0.00    +0.000 A 
ATOM     14  N   UNL     1       3.747   4.874  17.049  0.00  0.00    +0.000 N 
ATOM     15  H   UNL     1       2.975   4.224  17.108  0.00  0.00    +0.000 HD
ENDBRANCH   3   6
BRANCH   1  19
ATOM     16  C   UNL     1       0.061  12.256  20.005  0.00  0.00    +0.000 A 
ATOM     17  C   UNL     1      -0.167  11.263  20.953  0.00  0.00    +0.000 A 
ATOM     18  C   UNL     1       0.360   9.984  20.748  0.00  0.00    +0.000 A 
ATOM     19  C   UNL     1       1.113   9.697  19.592  0.00  0.00    +0.000 A 
ATOM     20  C   UNL     1       1.321  10.703  18.639  0.00  0.00    +0.000 A 
ATOM     21  C   UNL     1       0.791  11.979  18.841  0.00  0.00    +0.000 A 
BRANCH  16  22
ATOM     22  S   UNL     1      -0.617  13.873  20.243  0.00  0.00    +0.000 S 
ATOM     23  O   UNL     1       0.311  14.673  21.005  0.00  0.00    +0.000 OA
ATOM     24  O   UNL     1      -2.011  13.756  20.598  0.00  0.00    +0.000 OA
BRANCH  22  25
ATOM     25  N   UNL     1      -0.592  14.486  18.680  0.00  0.00    +0.000 NA
ATOM     26  H   UNL     1      -1.313  14.027  18.121  0.00  0.00    +0.000 HD
ATOM     27  H   UNL     1       0.346  14.410  18.286  0.00  0.00    +0.000 HD
ENDBRANCH  22  25
ENDBRANCH  16  22
ENDBRANCH   1  19
BRANCH   4  28
ATOM     28  C   UNL     1       1.832   4.935  20.223  0.00  0.00    +0.000 A 
ATOM     29  C   UNL     1       2.367   4.591  21.473  0.00  0.00    +0.000 A 
ATOM     30  C   UNL     1       2.247   3.289  21.969  0.00  0.00    +0.000 A 
ATOM     31  C   UNL     1       1.592   2.312  21.222  0.00  0.00    +0.000 A 
ATOM     32  C   UNL     1       1.008   2.649  20.005  0.00  0.00    +0.000 A 
ATOM     33  C   UNL     1       1.102   3.960  19.526  0.00  0.00    +0.000 A 
ENDBRANCH   4  28
TORSDOF 5
ENDMDL
MODEL 3
REMARK VINA RESULT:      -8.1      0.952      1.428
REMARK  Name = 
REMARK  5 active torsions:
REMARK  status: ('A' for Active; 'I' for Inactive)
REMARK    1  A    between atoms: N_1  and  S_2
REMARK    2  A    between atoms: S_2  and  C_5
REMARK    3  A    between atoms: C_8  and  N_9
REMARK    4  A    between atoms: C_11  and  C_12
REMARK    5  A    between atoms: C_21  and  C_22
REMARK                            x       y       z     vdW  Elec       q    Type
REMARK                         _______ _______ _______ _____ _____    ______ ____
ROOT
ATOM      1  N   UNL     1       1.517   8.155  20.291  0.00  0.00    +0.000 N 
ATOM      2  C   UNL     1       2.491   8.033  19.346  0.00  0.00    +0.000 A 
ATOM      3  C   UNL     1       2.829   6.706  19.275  0.00  0.00    +0.000 A 
ATOM      4  C   UNL     1       1.937   6.040  20.155  0.00  0.00    +0.000 A 
ATOM      5  N   UNL     1       1.172   6.944  20.806  0.00  0.00    +0.000 NA
ENDROOT
BRANCH   3   6
ATOM      6  C   UNL     1       3.922   6.280  18.369  0.00  0.00    +0.000 A 
ATOM      7  N   UNL     1       3.867   6.541  17.074  0.00  0.00    +0.000 NA
ATOM      8  C   UNL     1       4.959   5.937  16.530  0.00  0.00    +0.000 A 
ATOM      9  C   UNL     1       5.330   5.847  15.182  0.00  0.00    +0.000 A 
ATOM     10  C   UNL     1       6.506   5.166  14.862  0.00  0.00    +0.000 A 
ATOM     11  C   UNL     1       7.295   4.594  15.867  0.00  0.00    +0.000 A 
ATOM     12  C   UNL     1       6.939   4.679  17.220  0.00  0.00    +0.000 A 
ATOM     13  C   UNL     1       5.752   5.356  17.511  0.00  0.00    +0.000 A 
ATOM     14  N   UNL     1       5.085   5.625  18.683  0.00  0.00    +0.000 N 
ATOM     15  H   UNL     1       5.398   5.389  19.615  0.00  0.00    +0.000 HD
ENDBRANCH   3   6
BRANCH   1  19
ATOM     16  C   UNL     1      -0.282  11.752  21.579  0.00  0.00    +0.000 A 
ATOM     17  C   UNL     1       0.286  11.689  20.310  0.00  0.00    +0.000 A 
ATOM     18  C   UNL     1       0.881  10.498  19.883  0.00  0.00    +0.000 A 
ATOM     19  C   UNL     1       0.913   9.371  20.726  0.00  0.00    +0.000 A 
ATOM     20  C   UNL     1       0.351   9.454  22.007  0.00  0.00    +0.000 A 
ATOM     21  C   UNL     1      -0.240  10.644  22.437  0.00  0.00    +0.000 A 
BRANCH  16  22
ATOM     22  S   UNL     1      -1.022  13.258  22.140  0.00  0.00    +0.000 S 
ATOM     23  O   UNL     1      -1.690  13.024  23.397  0.00  0.00    +0.000 OA
ATOM     24  O   UNL     1      -1.672  13.909  21.027  0.00  0.00    +0.000 OA
BRANCH  22  25
ATOM     25  N   UNL     1       0.328  14.190  22.492  0.00  0.00    +0.000 NA
ATOM     26  H   UNL     1       0.126  14.799  23.287  0.00  0.00    +0.000 HD
ATOM     27  H   UNL     1       0.640  14.689  21.659  0.00  0.00    +0.000 HD
ENDBRANCH  22  25
ENDBRANCH  16  22
ENDBRANCH   1  19
BRANCH   4  28
ATOM     28  C   UNL     1       1.756   4.599  20.386  0.00  0.00    +0.000 A 
ATOM     29  C   UNL     1       2.226   3.999  21.562  0.00  0.00    +0.000 A 
ATOM     30  C   UNL     1       2.115   2.618  21.755  0.00  0.00    +0.000 A 
ATOM     31  C   UNL     1       1.533   1.818  20.773  0.00  0.00    +0.000 A 
ATOM     32  C   UNL     1       1.013   2.404  19.624  0.00  0.00    +0.000 A 
ATOM     33  C   UNL     1       1.096   3.789  19.448  0.00  0.00    +0.000 A 
ENDBRANCH   4  28
TORSDOF 5
ENDMDL
MODEL 4
REMARK VINA RESULT:      -8.1      1.182      2.122
REMARK  Name = 
REMARK  5 active torsions:
REMARK  status: ('A' for Active; 'I' for Inactive)
REMARK    1  A    between atoms: N_1  and  S_2
REMARK    2  A    between atoms: S_2  and  C_5
REMARK    3  A    between atoms: C_8  and  N_9
REMARK    4  A    between atoms: C_11  and  C_12
REMARK    5  A    between atoms: C_21  and  C_22
REMARK                            x       y       z     vdW  Elec       q    Type
REMARK                         _______ _______ _______ _____ _____    ______ ____
ROOT
ATOM      1  N   UNL     1       1.708   8.395  19.440  0.00  0.00    +0.000 N 
ATOM      2  C   UNL     1       2.585   8.052  18.454  0.00  0.00    +0.000 A 
ATOM      3  C   UNL     1       2.889   6.725  18.621  0.00  0.00    +0.000 A 
ATOM      4  C   UNL     1       2.073   6.281  19.694  0.00  0.00    +0.000 A 
ATOM      5  N   UNL     1       1.391   7.324  20.216  0.00  0.00    +0.000 NA
ENDROOT
BRANCH   3   6
ATOM      6  C   UNL     1       3.883   6.087  17.725  0.00  0.00    +0.000 A 
ATOM      7  N   UNL     1       5.071   6.634  17.535  0.00  0.00    +0.000 NA
ATOM      8  C   UNL     1       5.686   5.861  16.599  0.00  0.00    +0.000 A 
ATOM      9  C   UNL     1       6.934   6.048  15.990  0.00  0.00    +0.000 A 
ATOM     10  C   UNL     1       7.358   5.115  15.044  0.00  0.00    +0.000 A 
ATOM     11  C   UNL     1       6.555   4.015  14.718  0.00  0.00    +0.000 A 
ATOM     12  C   UNL     1       5.305   3.812  15.320  0.00  0.00    +0.000 A 
ATOM     13  C   UNL     1       4.902   4.768  16.255  0.00  0.00    +0.000 A 
ATOM     14  N   UNL     1       3.769   4.916  17.021  0.00  0.00    +0.000 N 
ATOM     15  H   UNL     1       2.990   4.272  17.064  0.00  0.00    +0.000 HD
ENDBRANCH   3   6
BRANCH   1  19
ATOM     16  C   UNL     1       0.108  12.241  20.136  0.00  0.00    +0.000 A 
ATOM     17  C   UNL     1       0.532  11.899  18.855  0.00  0.00    +0.000 A 
ATOM     18  C   UNL     1       1.061  10.626  18.623  0.00  0.00    +0.000 A 
ATOM     19  C   UNL     1       1.171   9.694  19.674  0.00  0.00    +0.000 A 
ATOM     20  C   UNL     1       0.755  10.058  20.962  0.00  0.00    +0.000 A 
ATOM     21  C   UNL     1       0.231  11.331  21.195  0.00  0.00    +0.000 A 
BRANCH  16  22
ATOM     22  S   UNL     1      -0.546  13.855  20.447  0.00  0.00    +0.000 S 
ATOM     23  O   UNL     1       0.455  14.659  21.104  0.00  0.00    +0.000 OA
ATOM     24  O   UNL     1      -1.894  13.731  20.951  0.00  0.00    +0.000 OA
BRANCH  22  25
ATOM     25  N   UNL     1      -0.693  14.467  18.891  0.00  0.00    +0.000 NA
ATOM     26  H   UNL     1      -0.192  15.355  18.824  0.00  0.00    +0.000 HD
ATOM     27  H   UNL     1      -1.676  14.527  18.626  0.00  0.00    +0.000 HD
ENDBRANCH  22  25
ENDBRANCH  16  22
ENDBRANCH   1  19
BRANCH   4  28
ATOM     28  C   UNL     1       1.888   4.922  20.224  0.00  0.00    +0.000 A 
ATOM     29  C   UNL     1       1.143   3.972  19.511  0.00  0.00    +0.000 A 
ATOM     30  C   UNL     1       0.909   2.699  20.042  0.00  0.00    +0.000 A 
ATOM     31  C   UNL     1       1.414   2.360  21.296  0.00  0.00    +0.000 A 
ATOM     32  C   UNL     1       2.200   3.272  21.993  0.00  0.00    +0.000 A 
ATOM     33  C   UNL     1       2.460   4.531  21.445  0.00  0.00    +0.000 A 
ENDBRANCH   4  28
TORSDOF 5
ENDMDL
MODEL 5
REMARK VINA RESULT:      -8.1      0.803      1.216
REMARK  Name = 
REMARK  5 active torsions:
REMARK  status: ('A' for Active; 'I' for Inactive)
REMARK    1  A    between atoms: N_1  and  S_2
REMARK    2  A    between atoms: S_2  and  C_5
REMARK    3  A    between atoms: C_8  and  N_9
REMARK    4  A    between atoms: C_11  and  C_12
REMARK    5  A    between atoms: C_21  and  C_22
REMARK                            x       y       z     vdW  Elec       q    Type
REMARK                         _______ _______ _______ _____ _____    ______ ____
ROOT
ATOM      1  N   UNL     1       1.562   8.412  19.876  0.00  0.00    +0.000 N 
ATOM      2  C   UNL     1       2.429   8.187  18.849  0.00  0.00    +0.000 A 
ATOM      3  C   UNL     1       2.772   6.860  18.887  0.00  0.00    +0.000 A 
ATOM      4  C   UNL     1       1.988   6.295  19.926  0.00  0.00    +0.000 A 
ATOM      5  N   UNL     1       1.288   7.265  20.554  0.00  0.00    +0.000 NA
ENDROOT
BRANCH   3   6
ATOM      6  C   UNL     1       3.765   6.336  17.919  0.00  0.00    +0.000 A 
ATOM      7  N   UNL     1       3.559   5.190  17.294  0.00  0.00    +0.000 NA
ATOM      8  C   UNL     1       4.687   4.959  16.567  0.00  0.00    +0.000 A 
ATOM      9  C   UNL     1       5.013   3.843  15.785  0.00  0.00    +0.000 A 
ATOM     10  C   UNL     1       6.243   3.831  15.128  0.00  0.00    +0.000 A 
ATOM     11  C   UNL     1       7.126   4.911  15.245  0.00  0.00    +0.000 A 
ATOM     12  C   UNL     1       6.814   6.035  16.023  0.00  0.00    +0.000 A 
ATOM     13  C   UNL     1       5.580   6.016  16.678  0.00  0.00    +0.000 A 
ATOM     14  N   UNL     1       4.947   6.902  17.518  0.00  0.00    +0.000 N 
ATOM     15  H   UNL     1       5.288   7.815  17.788  0.00  0.00    +0.000 HD
ENDBRANCH   3   6
BRANCH   1  19
ATOM     16  C   UNL     1      -0.110  12.138  20.953  0.00  0.00    +0.000 A 
ATOM     17  C   UNL     1      -0.162  11.080  21.855  0.00  0.00    +0.000 A 
ATOM     18  C   UNL     1       0.391   9.846  21.499  0.00  0.00    +0.000 A 
ATOM     19  C   UNL     1       0.994   9.669  20.239  0.00  0.00    +0.000 A 
ATOM     20  C   UNL     1       1.027  10.739  19.335  0.00  0.00    +0.000 A 
ATOM     21  C   UNL     1       0.470  11.970  19.688  0.00  0.00    +0.000 A 
BRANCH  16  22
ATOM     22  S   UNL     1      -0.822  13.699  21.383  0.00  0.00    +0.000 S 
ATOM     23  O   UNL     1      -2.075  13.482  22.064  0.00  0.00    +0.000 OA
ATOM     24  O   UNL     1      -0.695  14.603  20.264  0.00  0.00    +0.000 OA
BRANCH  22  25
ATOM     25  N   UNL     1       0.254  14.255  22.545  0.00  0.00    +0.000 NA
ATOM     26  H   UNL     1       0.921  13.517  22.775  0.00  0.00    +0.000 HD
ATOM     27  H   UNL     1      -0.254  14.618  23.352  0.00  0.00    +0.000 HD
ENDBRANCH  22  25
ENDBRANCH  16  22
ENDBRANCH   1  19
BRANCH   4  28
ATOM     28  C   UNL     1       1.848   4.888  20.330  0.00  0.00    +0.000 A 
ATOM     29  C   UNL     1       1.138   3.982  19.531  0.00  0.00    +0.000 A 
ATOM     30  C   UNL     1       0.947   2.659  19.944  0.00  0.00    +0.000 A 
ATOM     31  C   UNL     1       1.463   2.225  21.164  0.00  0.00    +0.000 A 
ATOM     32  C   UNL     1       2.216   3.096  21.945  0.00  0.00    +0.000 A 
ATOM     33  C   UNL     1       2.433   4.408  21.513  0.00  0.00    +0.000 A 
ENDBRANCH   4  28
TORSDOF 5
ENDMDL
MODEL 6
REMARK VINA RESULT:      -8.1      1.271      1.950
REMARK  Name = 
REMARK  5 active torsions:
REMARK  status: ('A' for Active; 'I' for Inactive)
REMARK    1  A    between atoms: N_1  and  S_2
REMARK    2  A    between atoms: S_2  and  C_5
REMARK    3  A    between atoms: C_8  and  N_9
REMARK    4  A    between atoms: C_11  and  C_12
REMARK    5  A    between atoms: C_21  and  C_22
REMARK                            x       y       z     vdW  Elec       q    Type
REMARK                         _______ _______ _______ _____ _____    ______ ____
ROOT
ATOM      1  N   UNL     1       1.741   8.466  19.129  0.00  0.00    +0.000 N 
ATOM      2  C   UNL     1       2.600   8.078  18.145  0.00  0.00    +0.000 A 
ATOM      3  C   UNL     1       2.903   6.758  18.363  0.00  0.00    +0.000 A 
ATOM      4  C   UNL     1       2.102   6.362  19.466  0.00  0.00    +0.000 A 
ATOM      5  N   UNL     1       1.432   7.429  19.954  0.00  0.00    +0.000 NA
ENDROOT
BRANCH   3   6
ATOM      6  C   UNL     1       3.880   6.079  17.478  0.00  0.00    +0.000 A 
ATOM      7  N   UNL     1       4.908   6.739  16.975  0.00  0.00    +0.000 NA
ATOM      8  C   UNL     1       5.537   5.863  16.145  0.00  0.00    +0.000 A 
ATOM      9  C   UNL     1       6.640   6.084  15.309  0.00  0.00    +0.000 A 
ATOM     10  C   UNL     1       7.113   5.021  14.540  0.00  0.00    +0.000 A 
ATOM     11  C   UNL     1       6.502   3.763  14.608  0.00  0.00    +0.000 A 
ATOM     12  C   UNL     1       5.399   3.525  15.441  0.00  0.00    +0.000 A 
ATOM     13  C   UNL     1       4.940   4.610  16.193  0.00  0.00    +0.000 A 
ATOM     14  N   UNL     1       3.905   4.766  17.084  0.00  0.00    +0.000 N 
ATOM     15  H   UNL     1       3.277   4.040  17.401  0.00  0.00    +0.000 HD
ENDBRANCH   3   6
BRANCH   1  19
ATOM     16  C   UNL     1       0.183  12.350  19.692  0.00  0.00    +0.000 A 
ATOM     17  C   UNL     1      -0.300  11.302  20.469  0.00  0.00    +0.000 A 
ATOM     18  C   UNL     1       0.215  10.015  20.284  0.00  0.00    +0.000 A 
ATOM     19  C   UNL     1       1.212   9.776  19.317  0.00  0.00    +0.000 A 
ATOM     20  C   UNL     1       1.677  10.838  18.531  0.00  0.00    +0.000 A 
ATOM     21  C   UNL     1       1.160  12.123  18.712  0.00  0.00    +0.000 A 
BRANCH  16  22
ATOM     22  S   UNL     1      -0.474  13.980  19.903  0.00  0.00    +0.000 S 
ATOM     23  O   UNL     1      -0.209  14.760  18.719  0.00  0.00    +0.000 OA
ATOM     24  O   UNL     1      -0.153  14.451  21.229  0.00  0.00    +0.000 OA
BRANCH  22  25
ATOM     25  N   UNL     1      -2.126  13.682  19.909  0.00  0.00    +0.000 NA
ATOM     26  H   UNL     1      -2.632  14.564  20.002  0.00  0.00    +0.000 HD
ATOM     27  H   UNL     1      -2.358  12.995  20.627  0.00  0.00    +0.000 HD
ENDBRANCH  22  25
ENDBRANCH  16  22
ENDBRANCH   1  19
BRANCH   4  28
ATOM     28  C   UNL     1       1.920   5.028  20.055  0.00  0.00    +0.000 A 
ATOM     29  C   UNL     1       1.189   4.041  19.378  0.00  0.00    +0.000 A 
ATOM     30  C   UNL     1       0.958   2.792  19.964  0.00  0.00    +0.000 A 
ATOM     31  C   UNL     1       1.453   2.514  21.237  0.00  0.00    +0.000 A 
ATOM     32  C   UNL     1       2.225   3.461  21.900  0.00  0.00    +0.000 A 
ATOM     33  C   UNL     1       2.482   4.697  21.298  0.00  0.00    +0.000 A 
ENDBRANCH   4  28
TORSDOF 5
ENDMDL
MODEL 7
REMARK VINA RESULT:      -8.1      0.955      1.110
REMARK  Name = 
REMARK  5 active torsions:
REMARK  status: ('A' for Active; 'I' for Inactive)
REMARK    1  A    between atoms: N_1  and  S_2
REMARK    2  A    between atoms: S_2  and  C_5
REMARK    3  A    between atoms: C_8  and  N_9
REMARK    4  A    between atoms: C_11  and  C_12
REMARK    5  A    between atoms: C_21  and  C_22
REMARK                            x       y       z     vdW  Elec       q    Type
REMARK                         _______ _______ _______ _____ _____    ______ ____
ROOT
ATOM      1  N   UNL     1       1.479   8.461  19.750  0.00  0.00    +0.000 N 
ATOM      2  C   UNL     1       2.372   8.210  18.752  0.00  0.00    +0.000 A 
ATOM      3  C   UNL     1       2.724   6.888  18.841  0.00  0.00    +0.000 A 
ATOM      4  C   UNL     1       1.919   6.350  19.880  0.00  0.00    +0.000 A 
ATOM      5  N   UNL     1       1.197   7.334  20.458  0.00  0.00    +0.000 NA
ENDROOT
BRANCH   3   6
ATOM      6  C   UNL     1       3.745   6.341  17.916  0.00  0.00    +0.000 A 
ATOM      7  N   UNL     1       3.553   5.185  17.305  0.00  0.00    +0.000 NA
ATOM      8  C   UNL     1       4.702   4.935  16.620  0.00  0.00    +0.000 A 
ATOM      9  C   UNL     1       5.047   3.804  15.868  0.00  0.00    +0.000 A 
ATOM     10  C   UNL     1       6.298   3.773  15.251  0.00  0.00    +0.000 A 
ATOM     11  C   UNL     1       7.183   4.851  15.378  0.00  0.00    +0.000 A 
ATOM     12  C   UNL     1       6.851   5.991  16.125  0.00  0.00    +0.000 A 
ATOM     13  C   UNL     1       5.597   5.990  16.740  0.00  0.00    +0.000 A 
ATOM     14  N   UNL     1       4.943   6.894  17.543  0.00  0.00    +0.000 N 
ATOM     15  H   UNL     1       5.280   7.810  17.807  0.00  0.00    +0.000 HD
ENDBRANCH   3   6
BRANCH   1  19
ATOM     16  C   UNL     1      -0.247  12.206  20.663  0.00  0.00    +0.000 A 
ATOM     17  C   UNL     1      -0.096  11.259  21.672  0.00  0.00    +0.000 A 
ATOM     18  C   UNL     1       0.476  10.019  21.371  0.00  0.00    +0.000 A 
ATOM     19  C   UNL     1       0.893   9.724  20.058  0.00  0.00    +0.000 A 
ATOM     20  C   UNL     1       0.721  10.680  19.050  0.00  0.00    +0.000 A 
ATOM     21  C   UNL     1       0.146  11.917  19.348  0.00  0.00    +0.000 A 
BRANCH  16  22
ATOM     22  S   UNL     1      -0.986  13.772  21.026  0.00  0.00    +0.000 S 
ATOM     23  O   UNL     1      -0.017  14.617  21.682  0.00  0.00    +0.000 OA
ATOM     24  O   UNL     1      -2.312  13.559  21.555  0.00  0.00    +0.000 OA
BRANCH  22  25
ATOM     25  N   UNL     1      -1.202  14.411  19.489  0.00  0.00    +0.000 NA
ATOM     26  H   UNL     1      -0.310  14.418  18.993  0.00  0.00    +0.000 HD
ATOM     27  H   UNL     1      -1.649  15.326  19.547  0.00  0.00    +0.000 HD
ENDBRANCH  22  25
ENDBRANCH  16  22
ENDBRANCH   1  19
BRANCH   4  28
ATOM     28  C   UNL     1       1.781   4.956  20.326  0.00  0.00    +0.000 A 
ATOM     29  C   UNL     1       2.431   4.508  21.484  0.00  0.00    +0.000 A 
ATOM     30  C   UNL     1       2.356   3.167  21.875  0.00  0.00    +0.000 A 
ATOM     31  C   UNL     1       1.630   2.255  21.111  0.00  0.00    +0.000 A 
ATOM     32  C   UNL     1       0.935   2.693  19.989  0.00  0.00    +0.000 A 
ATOM     33  C   UNL     1       0.986   4.040  19.619  0.00  0.00    +0.000 A 
ENDBRANCH   4  28
TORSDOF 5
ENDMDL
MODEL 8
REMARK VINA RESULT:      -8.1      1.036      1.756
REMARK  Name = 
REMARK  5 active torsions:
REMARK  status: ('A' for Active; 'I' for Inactive)
REMARK    1  A    between atoms: N_1  and  S_2
REMARK    2  A    between atoms: S_2  and  C_5
REMARK    3  A    between atoms: C_8  and  N_9
REMARK    4  A    between atoms: C_11  and  C_12
REMARK    5  A    between atoms: C_21  and  C_22
REMARK                            x       y       z     vdW  Elec       q    Type
REMARK                         _______ _______ _______ _____ _____    ______ ____
ROOT
ATOM      1  N   UNL     1       1.682   8.317  19.496  0.00  0.00    +0.000 N 
ATOM      2  C   UNL     1       2.553   7.975  18.505  0.00  0.00    +0.000 A 
ATOM      3  C   UNL     1       2.848   6.645  18.662  0.00  0.00    +0.000 A 
ATOM      4  C   UNL     1       2.032   6.199  19.734  0.00  0.00    +0.000 A 
ATOM      5  N   UNL     1       1.359   7.243  20.265  0.00  0.00    +0.000 NA
ENDROOT
BRANCH   3   6
ATOM      6  C   UNL     1       3.834   6.006  17.757  0.00  0.00    +0.000 A 
ATOM      7  N   UNL     1       5.024   6.549  17.564  0.00  0.00    +0.000 NA
ATOM      8  C   UNL     1       5.631   5.777  16.621  0.00  0.00    +0.000 A 
ATOM      9  C   UNL     1       6.877   5.962  16.007  0.00  0.00    +0.000 A 
ATOM     10  C   UNL     1       7.291   5.030  15.055  0.00  0.00    +0.000 A 
ATOM     11  C   UNL     1       6.482   3.935  14.728  0.00  0.00    +0.000 A 
ATOM     12  C   UNL     1       5.235   3.735  15.336  0.00  0.00    +0.000 A 
ATOM     13  C   UNL     1       4.840   4.689  16.278  0.00  0.00    +0.000 A 
ATOM     14  N   UNL     1       3.712   4.839  17.049  0.00  0.00    +0.000 N 
ATOM     15  H   UNL     1       2.931   4.198  17.094  0.00  0.00    +0.000 HD
ENDBRANCH   3   6
BRANCH   1  19
ATOM     16  C   UNL     1       0.112  12.169  20.225  0.00  0.00    +0.000 A 
ATOM     17  C   UNL     1       0.585  11.854  18.955  0.00  0.00    +0.000 A 
ATOM     18  C   UNL     1       1.104  10.579  18.712  0.00  0.00    +0.000 A 
ATOM     19  C   UNL     1       1.155   9.619  19.742  0.00  0.00    +0.000 A 
ATOM     20  C   UNL     1       0.689   9.955  21.020  0.00  0.00    +0.000 A 
ATOM     21  C   UNL     1       0.174  11.230  21.264  0.00  0.00    +0.000 A 
BRANCH  16  22
ATOM     22  S   UNL     1      -0.531  13.785  20.550  0.00  0.00    +0.000 S 
ATOM     23  O   UNL     1       0.199  14.756  19.772  0.00  0.00    +0.000 OA
ATOM     24  O   UNL     1      -0.746  13.933  21.970  0.00  0.00    +0.000 OA
BRANCH  22  25
ATOM     25  N   UNL     1      -2.060  13.687  19.864  0.00  0.00    +0.000 NA
ATOM     26  H   UNL     1      -2.749  14.085  20.504  0.00  0.00    +0.000 HD
ATOM     27  H   UNL     1      -2.262  12.726  19.586  0.00  0.00    +0.000 HD
ENDBRANCH  22  25
ENDBRANCH  16  22
ENDBRANCH   1  19
BRANCH   4  28
ATOM     28  C   UNL     1       1.838   4.837  20.254  0.00  0.00    +0.000 A 
ATOM     29  C   UNL     1       2.355   4.470  21.505  0.00  0.00    +0.000 A 
ATOM     30  C   UNL     1       2.230   3.158  21.974  0.00  0.00    +0.000 A 
ATOM     31  C   UNL     1       1.589   2.195  21.198  0.00  0.00    +0.000 A 
ATOM     32  C   UNL     1       1.023   2.555  19.979  0.00  0.00    +0.000 A 
ATOM     33  C   UNL     1       1.121   3.874  19.528  0.00  0.00    +0.000 A 
ENDBRANCH   4  28
TORSDOF 5
ENDMDL
MODEL 9
REMARK VINA RESULT:      -8.1      0.263      1.275
REMARK  Name = 
REMARK  5 active torsions:
REMARK  status: ('A' for Active; 'I' for Inactive)
REMARK    1  A    between atoms: N_1  and  S_2
REMARK    2  A    between atoms: S_2  and  C_5
REMARK    3  A    between atoms: C_8  and  N_9
REMARK    4  A    between atoms: C_11  and  C_12
REMARK    5  A    between atoms: C_21  and  C_22
REMARK                            x       y       z     vdW  Elec       q    Type
REMARK                         _______ _______ _______ _____ _____    ______ ____
ROOT
ATOM      1  N   UNL     1       1.469   8.359  20.076  0.00  0.00    +0.000 N 
ATOM      2  C   UNL     1       2.309   8.170  19.020  0.00  0.00    +0.000 A 
ATOM      3  C   UNL     1       2.664   6.846  19.011  0.00  0.00    +0.000 A 
ATOM      4  C   UNL     1       1.913   6.245  20.055  0.00  0.00    +0.000 A 
ATOM      5  N   UNL     1       1.223   7.191  20.728  0.00  0.00    +0.000 NA
ENDROOT
BRANCH   3   6
ATOM      6  C   UNL     1       3.634   6.358  18.002  0.00  0.00    +0.000 A 
ATOM      7  N   UNL     1       3.492   5.166  17.449  0.00  0.00    +0.000 NA
ATOM      8  C   UNL     1       4.586   4.995  16.657  0.00  0.00    +0.000 A 
ATOM      9  C   UNL     1       4.958   3.871  15.907  0.00  0.00    +0.000 A 
ATOM     10  C   UNL     1       6.139   3.930  15.167  0.00  0.00    +0.000 A 
ATOM     11  C   UNL     1       6.927   5.087  15.170  0.00  0.00    +0.000 A 
ATOM     12  C   UNL     1       6.566   6.220  15.913  0.00  0.00    +0.000 A 
ATOM     13  C   UNL     1       5.385   6.130  16.653  0.00  0.00    +0.000 A 
ATOM     14  N   UNL     1       4.732   7.002  17.492  0.00  0.00    +0.000 N 
ATOM     15  H   UNL     1       5.006   7.955  17.693  0.00  0.00    +0.000 HD
ENDBRANCH   3   6
BRANCH   1  19
ATOM     16  C   UNL     1      -0.220  12.030  21.302  0.00  0.00    +0.000 A 
ATOM     17  C   UNL     1       0.451  11.960  20.085  0.00  0.00    +0.000 A 
ATOM     18  C   UNL     1       1.011  10.745  19.678  0.00  0.00    +0.000 A 
ATOM     19  C   UNL     1       0.901   9.599  20.490  0.00  0.00    +0.000 A 
ATOM     20  C   UNL     1       0.236   9.689  21.720  0.00  0.00    +0.000 A 
ATOM     21  C   UNL     1      -0.319  10.903  22.129  0.00  0.00    +0.000 A 
BRANCH  16  22
ATOM     22  S   UNL     1      -0.917  13.566  21.837  0.00  0.00    +0.000 S 
ATOM     23  O   UNL     1      -1.574  14.207  20.724  0.00  0.00    +0.000 OA
ATOM     24  O   UNL     1       0.038  14.254  22.672  0.00  0.00    +0.000 OA
BRANCH  22  25
ATOM     25  N   UNL     1      -2.136  13.046  22.866  0.00  0.00    +0.000 NA
ATOM     26  H   UNL     1      -1.731  12.753  23.756  0.00  0.00    +0.000 HD
ATOM     27  H   UNL     1      -2.699  12.327  22.412  0.00  0.00    +0.000 HD
ENDBRANCH  22  25
ENDBRANCH  16  22
ENDBRANCH   1  19
BRANCH   4  28
ATOM     28  C   UNL     1       1.796   4.826  20.422  0.00  0.00    +0.000 A 
ATOM     29  C   UNL     1       1.067   3.937  19.620  0.00  0.00    +0.000 A 
ATOM     30  C   UNL     1       0.898   2.602  20.000  0.00  0.00    +0.000 A 
ATOM     31  C   UNL     1       1.455   2.137  21.191  0.00  0.00    +0.000 A 
ATOM     32  C   UNL     1       2.227   2.991  21.972  0.00  0.00    +0.000 A 
ATOM     33  C   UNL     1       2.421   4.317  21.572  0.00  0.00    +0.000 A 
ENDBRANCH   4  28
TORSDOF 5
ENDMDL
