MODEL 1
REMARK VINA RESULT:      -8.1      0.000      0.000
REMARK  Name = 
REMARK  10 active torsions:
REMARK  status: ('A' for Active; 'I' for Inactive)
REMARK    1  A    between atoms: C_1  and  C_2
REMARK    2  A    between atoms: C_2  and  C_3
REMARK    3  A    between atoms: C_2  and  C_4
REMARK    4  A    between atoms: C_7  and  N_8
REMARK    5  A    between atoms: C_9  and  C_11
REMARK    6  A    between atoms: C_11  and  N_12
REMARK    7  A    between atoms: N_12  and  C_13
REMARK    8  A    between atoms: N_12  and  S_20
REMARK    9  A    between atoms: C_13  and  C_14
REMARK   10  A    between atoms: S_20  and  C_21
REMARK                            x       y       z     vdW  Elec       q    Type
REMARK                         _______ _______ _______ _____ _____    ______ ____
ROOT
ATOM      1  N   UNL     1       3.784   5.914  18.475  0.00  0.00    +0.000 N 
ATOM      2  C   UNL     1       3.446   4.713  17.872  0.00  0.00    +0.000 C 
ATOM      3  O   UNL     1       2.351   4.429  17.388  0.00  0.00    +0.000 OA
ATOM      4  H   UNL     1       4.730   5.996  18.831  0.00  0.00    +0.000 HD
ENDROOT
BRANCH   1   8
ATOM      5  C   UNL     1       1.193   9.219  19.137  0.00  0.00    +0.000 A 
ATOM      6  C   UNL     1       1.854   9.077  17.915  0.00  0.00    +0.000 A 
ATOM      7  C   UNL     1       2.712   7.997  17.686  0.00  0.00    +0.000 A 
ATOM      8  C   UNL     1       2.933   7.028  18.666  0.00  0.00    +0.000 A 
ATOM      9  C   UNL     1       2.275   7.166  19.894  0.00  0.00    +0.000 A 
ATOM     10  C   UNL     1       1.416   8.249  20.125  0.00  0.00    +0.000 A 
BRANCH   5  12
ATOM     11  C   UNL     1      -0.901  10.401  18.378  0.00  0.00    +0.000 C 
ATOM     12  C   UNL     1       0.278  10.410  19.352  0.00  0.00    +0.000 C 
ATOM     13  C   UNL     1      -0.196  10.487  20.804  0.00  0.00    +0.000 C 
ENDBRANCH   5  12
ENDBRANCH   1   8
BRANCH   2  14
ATOM     14  C   UNL     1       4.587   3.716  17.778  0.00  0.00    +0.000 C 
BRANCH  14  15
ATOM     15  N   UNL     1       5.733   4.170  16.942  0.00  0.00    +0.000 NA
BRANCH  15  16
ATOM     16  S   UNL     1       7.032   4.812  17.836  0.00  0.00    +0.000 S 
ATOM     17  C   UNL     1       7.032   6.511  17.299  0.00  0.00    +0.000 C 
ATOM     18  O   UNL     1       6.661   4.810  19.235  0.00  0.00    +0.000 OA
ATOM     19  O   UNL     1       8.255   4.195  17.374  0.00  0.00    +0.000 OA
ENDBRANCH  15  16
BRANCH  15  20
ATOM     20  C   UNL     1       5.333   4.990  15.749  0.00  0.00    +0.000 C 
BRANCH  20  21
ATOM     21  C   UNL     1       5.922   4.618  14.405  0.00  0.00    +0.000 A 
ATOM     22  C   UNL     1       7.153   5.143  13.984  0.00  0.00    +0.000 A 
ATOM     23  C   UNL     1       7.704   4.776  12.753  0.00  0.00    +0.000 A 
ATOM     24  C   UNL     1       7.032   3.881  11.922  0.00  0.00    +0.000 A 
ATOM     25  C   UNL     1       5.812   3.347  12.327  0.00  0.00    +0.000 A 
ATOM     26  C   UNL     1       5.266   3.706  13.562  0.00  0.00    +0.000 A 
ENDBRANCH  20  21
ENDBRANCH  15  20
ENDBRANCH  14  15
ENDBRANCH   2  14
TORSDOF 7
ENDMDL
MODEL 2
REMARK VINA RESULT:      -8.0      0.370      1.229
REMARK  Name = 
REMARK  10 active torsions:
REMARK  status: ('A' for Active; 'I' for Inactive)
REMARK    1  A    between atoms: C_1  and  C_2
REMARK    2  A    between atoms: C_2  and  C_3
REMARK    3  A    between atoms: C_2  and  C_4
REMARK    4  A    between atoms: C_7  and  N_8
REMARK    5  A    between atoms: C_9  and  C_11
REMARK    6  A    between atoms: C_11  and  N_12
REMARK    7  A    between atoms: N_12  and  C_13
REMARK    8  A    between atoms: N_12  and  S_20
REMARK    9  A    between atoms: C_13  and  C_14
REMARK   10  A    between atoms: S_20  and  C_21
REMARK                            x       y       z     vdW  Elec       q    Type
REMARK                         _______ _______ _______ _____ _____    ______ ____
ROOT
ATOM      1  N   UNL     1       3.677   5.850  18.756  0.00  0.00    +0.000 N 
ATOM      2  C   UNL     1       3.387   4.720  18.007  0.00  0.00    +0.000 C 
ATOM      3  O   UNL     1       2.335   4.499  17.408  0.00  0.00    +0.000 OA
ATOM      4  H   UNL     1       4.590   5.886  19.194  0.00  0.00    +0.000 HD
ENDROOT
BRANCH   1   8
ATOM      5  C   UNL     1       1.117   9.190  19.363  0.00  0.00    +0.000 A 
ATOM      6  C   UNL     1       1.313   8.259  20.386  0.00  0.00    +0.000 A 
ATOM      7  C   UNL     1       2.149   7.154  20.198  0.00  0.00    +0.000 A 
ATOM      8  C   UNL     1       2.814   6.948  18.989  0.00  0.00    +0.000 A 
ATOM      9  C   UNL     1       2.619   7.876  17.959  0.00  0.00    +0.000 A 
ATOM     10  C   UNL     1       1.780   8.983  18.146  0.00  0.00    +0.000 A 
BRANCH   5  12
ATOM     11  C   UNL     1       0.970  11.623  20.008  0.00  0.00    +0.000 C 
ATOM     12  C   UNL     1       0.194  10.370  19.602  0.00  0.00    +0.000 C 
ATOM     13  C   UNL     1      -0.693  10.632  18.383  0.00  0.00    +0.000 C 
ENDBRANCH   5  12
ENDBRANCH   1   8
BRANCH   2  14
ATOM     14  C   UNL     1       4.530   3.727  17.905  0.00  0.00    +0.000 C 
BRANCH  14  15
ATOM     15  N   UNL     1       5.662   4.178  17.050  0.00  0.00    +0.000 NA
BRANCH  15  16
ATOM     16  S   UNL     1       6.972   4.829  17.920  0.00  0.00    +0.000 S 
ATOM     17  C   UNL     1       6.919   6.539  17.421  0.00  0.00    +0.000 C 
ATOM     18  O   UNL     1       6.642   4.789  19.329  0.00  0.00    +0.000 OA
ATOM     19  O   UNL     1       8.194   4.249  17.411  0.00  0.00    +0.000 OA
ENDBRANCH  15  16
BRANCH  15  20
ATOM     20  C   UNL     1       5.243   4.987  15.857  0.00  0.00    +0.000 C 
BRANCH  20  21
ATOM     21  C   UNL     1       5.843   4.630  14.513  0.00  0.00    +0.000 A 
ATOM     22  C   UNL     1       7.086   5.145  14.116  0.00  0.00    +0.000 A 
ATOM     23  C   UNL     1       7.647   4.792  12.885  0.00  0.00    +0.000 A 
ATOM     24  C   UNL     1       6.973   3.921  12.031  0.00  0.00    +0.000 A 
ATOM     25  C   UNL     1       5.741   3.398  12.412  0.00  0.00    +0.000 A 
ATOM     26  C   UNL     1       5.185   3.743  13.646  0.00  0.00    +0.000 A 
ENDBRANCH  20  21
ENDBRANCH  15  20
ENDBRANCH  14  15
ENDBRANCH   2  14
TORSDOF 7
ENDMDL
MODEL 3
REMARK VINA RESULT:      -7.8      3.119      4.064
REMARK  Name = 
REMARK  10 active torsions:
REMARK  status: ('A' for Active; 'I' for Inactive)
REMARK    1  A    between atoms: C_1  and  C_2
REMARK    2  A    between atoms: C_2  and  C_3
REMARK    3  A    between atoms: C_2  and  C_4
REMARK    4  A    between atoms: C_7  and  N_8
REMARK    5  A    between atoms: C_9  and  C_11
REMARK    6  A    between atoms: C_11  and  N_12
REMARK    7  A    between atoms: N_12  and  C_13
REMARK    8  A    between atoms: N_12  and  S_20
REMARK    9  A    between atoms: C_13  and  C_14
REMARK   10  A    between atoms: S_20  and  C_21
REMARK                            x       y       z     vdW  Elec       q    Type
REMARK                         _______ _______ _______ _____ _____    ______ ____
ROOT
ATOM      1  N   UNL     1       2.637   6.503  19.835  0.00  0.00    +0.000 N 
ATOM      2  C   UNL     1       2.052   5.329  20.284  0.00  0.00    +0.000 C 
ATOM      3  O   UNL     1       0.879   5.191  20.629  0.00  0.00    +0.000 OA
ATOM      4  H   UNL     1       3.620   6.460  19.590  0.00  0.00    +0.000 HD
ENDROOT
BRANCH   1   8
ATOM      5  C   UNL     1       0.776  10.296  19.359  0.00  0.00    +0.000 A 
ATOM      6  C   UNL     1       0.758   9.655  20.599  0.00  0.00    +0.000 A 
ATOM      7  C   UNL     1       1.363   8.406  20.769  0.00  0.00    +0.000 A 
ATOM      8  C   UNL     1       2.004   7.763  19.709  0.00  0.00    +0.000 A 
ATOM      9  C   UNL     1       2.022   8.399  18.462  0.00  0.00    +0.000 A 
ATOM     10  C   UNL     1       1.415   9.651  18.291  0.00  0.00    +0.000 A 
BRANCH   5  12
ATOM     11  C   UNL     1       1.061  12.706  18.674  0.00  0.00    +0.000 C 
ATOM     12  C   UNL     1       0.099  11.646  19.212  0.00  0.00    +0.000 C 
ATOM     13  C   UNL     1      -1.158  11.542  18.348  0.00  0.00    +0.000 C 
ENDBRANCH   5  12
ENDBRANCH   1   8
BRANCH   2  14
ATOM     14  C   UNL     1       2.976   4.126  20.273  0.00  0.00    +0.000 C 
BRANCH  14  15
ATOM     15  N   UNL     1       3.608   3.848  18.954  0.00  0.00    +0.000 NA
BRANCH  15  16
ATOM     16  S   UNL     1       2.891   2.562  18.098  0.00  0.00    +0.000 S 
ATOM     17  C   UNL     1       1.639   2.023  19.246  0.00  0.00    +0.000 C 
ATOM     18  O   UNL     1       2.204   3.112  16.949  0.00  0.00    +0.000 OA
ATOM     19  O   UNL     1       3.865   1.502  17.964  0.00  0.00    +0.000 OA
ENDBRANCH  15  16
BRANCH  15  20
ATOM     20  C   UNL     1       5.109   3.812  18.989  0.00  0.00    +0.000 C 
BRANCH  20  21
ATOM     21  C   UNL     1       5.858   5.032  18.494  0.00  0.00    +0.000 A 
ATOM     22  C   UNL     1       7.114   5.372  19.020  0.00  0.00    +0.000 A 
ATOM     23  C   UNL     1       7.813   6.484  18.541  0.00  0.00    +0.000 A 
ATOM     24  C   UNL     1       7.266   7.275  17.531  0.00  0.00    +0.000 A 
ATOM     25  C   UNL     1       6.024   6.948  16.996  0.00  0.00    +0.000 A 
ATOM     26  C   UNL     1       5.330   5.831  17.468  0.00  0.00    +0.000 A 
ENDBRANCH  20  21
ENDBRANCH  15  20
ENDBRANCH  14  15
ENDBRANCH   2  14
TORSDOF 7
ENDMDL
MODEL 4
REMARK VINA RESULT:      -7.8      0.521      1.595
REMARK  Name = 
REMARK  10 active torsions:
REMARK  status: ('A' for Active; 'I' for Inactive)
REMARK    1  A    between atoms: C_1  and  C_2
REMARK    2  A    between atoms: C_2  and  C_3
REMARK    3  A    between atoms: C_2  and  C_4
REMARK    4  A    between atoms: C_7  and  N_8
REMARK    5  A    between atoms: C_9  and  C_11
REMARK    6  A    between atoms: C_11  and  N_12
REMARK    7  A    between atoms: N_12  and  C_13
REMARK    8  A    between atoms: N_12  and  S_20
REMARK    9  A    between atoms: C_13  and  C_14
REMARK   10  A    between atoms: S_20  and  C_21
REMARK                            x       y       z     vdW  Elec       q    Type
REMARK                         _______ _______ _______ _____ _____    ______ ____
ROOT
ATOM      1  N   UNL     1       3.568   6.085  18.870  0.00  0.00    +0.000 N 
ATOM      2  C   UNL     1       3.297   4.927  18.157  0.00  0.00    +0.000 C 
ATOM      3  O   UNL     1       2.263   4.686  17.535  0.00  0.00    +0.000 OA
ATOM      4  H   UNL     1       4.468   6.135  19.335  0.00  0.00    +0.000 HD
ENDROOT
BRANCH   1   8
ATOM      5  C   UNL     1       1.004   9.453  19.270  0.00  0.00    +0.000 A 
ATOM      6  C   UNL     1       1.161   8.558  20.331  0.00  0.00    +0.000 A 
ATOM      7  C   UNL     1       1.998   7.445  20.211  0.00  0.00    +0.000 A 
ATOM      8  C   UNL     1       2.703   7.193  19.034  0.00  0.00    +0.000 A 
ATOM      9  C   UNL     1       2.547   8.084  17.965  0.00  0.00    +0.000 A 
ATOM     10  C   UNL     1       1.707   9.200  18.084  0.00  0.00    +0.000 A 
BRANCH   5  12
ATOM     11  C   UNL     1      -0.334  10.843  20.893  0.00  0.00    +0.000 C 
ATOM     12  C   UNL     1       0.079  10.643  19.434  0.00  0.00    +0.000 C 
ATOM     13  C   UNL     1       0.703  11.912  18.850  0.00  0.00    +0.000 C 
ENDBRANCH   5  12
ENDBRANCH   1   8
BRANCH   2  14
ATOM     14  C   UNL     1       4.439   3.928  18.129  0.00  0.00    +0.000 C 
BRANCH  14  15
ATOM     15  N   UNL     1       5.614   4.359  17.322  0.00  0.00    +0.000 NA
BRANCH  15  16
ATOM     16  S   UNL     1       6.890   5.005  18.246  0.00  0.00    +0.000 S 
ATOM     17  C   UNL     1       6.945   6.685  17.655  0.00  0.00    +0.000 C 
ATOM     18  O   UNL     1       6.464   5.056  19.629  0.00  0.00    +0.000 OA
ATOM     19  O   UNL     1       8.117   4.349  17.854  0.00  0.00    +0.000 OA
ENDBRANCH  15  16
BRANCH  15  20
ATOM     20  C   UNL     1       5.259   5.161  16.104  0.00  0.00    +0.000 C 
BRANCH  20  21
ATOM     21  C   UNL     1       5.860   4.742  14.780  0.00  0.00    +0.000 A 
ATOM     22  C   UNL     1       5.175   3.872  13.917  0.00  0.00    +0.000 A 
ATOM     23  C   UNL     1       5.724   3.508  12.684  0.00  0.00    +0.000 A 
ATOM     24  C   UNL     1       6.967   4.006  12.295  0.00  0.00    +0.000 A 
ATOM     25  C   UNL     1       7.656   4.874  13.136  0.00  0.00    +0.000 A 
ATOM     26  C   UNL     1       7.104   5.245  14.365  0.00  0.00    +0.000 A 
ENDBRANCH  20  21
ENDBRANCH  15  20
ENDBRANCH  14  15
ENDBRANCH   2  14
TORSDOF 7
ENDMDL
MODEL 5
REMARK VINA RESULT:      -7.5      3.291      4.058
REMARK  Name = 
REMARK  10 active torsions:
REMARK  status: ('A' for Active; 'I' for Inactive)
REMARK    1  A    between atoms: C_1  and  C_2
REMARK    2  A    between atoms: C_2  and  C_3
REMARK    3  A    between atoms: C_2  and  C_4
REMARK    4  A    between atoms: C_7  and  N_8
REMARK    5  A    between atoms: C_9  and  C_11
REMARK    6  A    between atoms: C_11  and  N_12
REMARK    7  A    between atoms: N_12  and  C_13
REMARK    8  A    between atoms: N_12  and  S_20
REMARK    9  A    between atoms: C_13  and  C_14
REMARK   10  A    between atoms: S_20  and  C_21
REMARK                            x       y       z     vdW  Elec       q    Type
REMARK                         _______ _______ _______ _____ _____    ______ ____
ROOT
ATOM      1  N   UNL     1       2.467   6.666  20.301  0.00  0.00    +0.000 N 
ATOM      2  C   UNL     1       1.920   5.403  20.466  0.00  0.00    +0.000 C 
ATOM      3  O   UNL     1       0.721   5.139  20.549  0.00  0.00    +0.000 OA
ATOM      4  H   UNL     1       3.478   6.724  20.253  0.00  0.00    +0.000 HD
ENDROOT
BRANCH   1   8
ATOM      5  C   UNL     1       0.290  10.315  20.143  0.00  0.00    +0.000 A 
ATOM      6  C   UNL     1       0.912   9.816  18.996  0.00  0.00    +0.000 A 
ATOM      7  C   UNL     1       1.634   8.620  19.035  0.00  0.00    +0.000 A 
ATOM      8  C   UNL     1       1.754   7.886  20.216  0.00  0.00    +0.000 A 
ATOM      9  C   UNL     1       1.136   8.382  21.370  0.00  0.00    +0.000 A 
ATOM     10  C   UNL     1       0.412   9.582  21.332  0.00  0.00    +0.000 A 
BRANCH   5  12
ATOM     11  C   UNL     1      -1.372  11.679  18.825  0.00  0.00    +0.000 C 
ATOM     12  C   UNL     1      -0.476  11.622  20.063  0.00  0.00    +0.000 C 
ATOM     13  C   UNL     1      -1.275  11.873  21.343  0.00  0.00    +0.000 C 
ENDBRANCH   5  12
ENDBRANCH   1   8
BRANCH   2  14
ATOM     14  C   UNL     1       2.939   4.278  20.484  0.00  0.00    +0.000 C 
BRANCH  14  15
ATOM     15  N   UNL     1       3.437   3.880  19.139  0.00  0.00    +0.000 NA
BRANCH  15  16
ATOM     16  S   UNL     1       2.588   2.579  18.441  0.00  0.00    +0.000 S 
ATOM     17  C   UNL     1       3.857   1.332  18.347  0.00  0.00    +0.000 C 
ATOM     18  O   UNL     1       1.608   2.115  19.400  0.00  0.00    +0.000 OA
ATOM     19  O   UNL     1       2.216   2.946  17.094  0.00  0.00    +0.000 OA
ENDBRANCH  15  16
BRANCH  15  20
ATOM     20  C   UNL     1       4.932   3.766  19.049  0.00  0.00    +0.000 C 
BRANCH  20  21
ATOM     21  C   UNL     1       5.698   4.942  18.482  0.00  0.00    +0.000 A 
ATOM     22  C   UNL     1       5.145   5.749  17.476  0.00  0.00    +0.000 A 
ATOM     23  C   UNL     1       5.847   6.849  16.974  0.00  0.00    +0.000 A 
ATOM     24  C   UNL     1       7.113   7.158  17.467  0.00  0.00    +0.000 A 
ATOM     25  C   UNL     1       7.674   6.371  18.468  0.00  0.00    +0.000 A 
ATOM     26  C   UNL     1       6.969   5.277  18.977  0.00  0.00    +0.000 A 
ENDBRANCH  20  21
ENDBRANCH  15  20
ENDBRANCH  14  15
ENDBRANCH   2  14
TORSDOF 7
ENDMDL
MODEL 6
REMARK VINA RESULT:      -7.5      2.683      4.281
REMARK  Name = 
REMARK  10 active torsions:
REMARK  status: ('A' for Active; 'I' for Inactive)
REMARK    1  A    between atoms: C_1  and  C_2
REMARK    2  A    between atoms: C_2  and  C_3
REMARK    3  A    between atoms: C_2  and  C_4
REMARK    4  A    between atoms: C_7  and  N_8
REMARK    5  A    between atoms: C_9  and  C_11
REMARK    6  A    between atoms: C_11  and  N_12
REMARK    7  A    between atoms: N_12  and  C_13
REMARK    8  A    between atoms: N_12  and  S_20
REMARK    9  A    between atoms: C_13  and  C_14
REMARK   10  A    between atoms: S_20  and  C_21
REMARK                            x       y       z     vdW  Elec       q    Type
REMARK                         _______ _______ _______ _____ _____    ______ ____
ROOT
ATOM      1  N   UNL     1       3.142   6.705  18.461  0.00  0.00    +0.000 N 
ATOM      2  C   UNL     1       4.069   6.682  17.430  0.00  0.00    +0.000 C 
ATOM      3  O   UNL     1       4.283   7.592  16.629  0.00  0.00    +0.000 OA
ATOM      4  H   UNL     1       3.079   5.873  19.038  0.00  0.00    +0.000 HD
ENDROOT
BRANCH   1   8
ATOM      5  C   UNL     1       0.478   9.851  19.499  0.00  0.00    +0.000 A 
ATOM      6  C   UNL     1       0.893   9.689  18.175  0.00  0.00    +0.000 A 
ATOM      7  C   UNL     1       1.772   8.660  17.821  0.00  0.00    +0.000 A 
ATOM      8  C   UNL     1       2.259   7.765  18.774  0.00  0.00    +0.000 A 
ATOM      9  C   UNL     1       1.849   7.925  20.103  0.00  0.00    +0.000 A 
ATOM     10  C   UNL     1       0.969   8.956  20.459  0.00  0.00    +0.000 A 
BRANCH   5  12
ATOM     11  C   UNL     1       0.279  12.193  20.414  0.00  0.00    +0.000 C 
ATOM     12  C   UNL     1      -0.468  10.986  19.845  0.00  0.00    +0.000 C 
ATOM     13  C   UNL     1      -1.326  11.376  18.641  0.00  0.00    +0.000 C 
ENDBRANCH   5  12
ENDBRANCH   1   8
BRANCH   2  14
ATOM     14  C   UNL     1       4.904   5.417  17.367  0.00  0.00    +0.000 C 
BRANCH  14  15
ATOM     15  N   UNL     1       5.494   5.004  18.671  0.00  0.00    +0.000 NA
BRANCH  15  16
ATOM     16  S   UNL     1       7.175   5.251  18.780  0.00  0.00    +0.000 S 
ATOM     17  C   UNL     1       7.363   6.815  17.948  0.00  0.00    +0.000 C 
ATOM     18  O   UNL     1       7.510   5.469  20.171  0.00  0.00    +0.000 OA
ATOM     19  O   UNL     1       7.839   4.239  17.990  0.00  0.00    +0.000 OA
ENDBRANCH  15  16
BRANCH  15  20
ATOM     20  C   UNL     1       5.029   3.662  19.156  0.00  0.00    +0.000 C 
BRANCH  20  21
ATOM     21  C   UNL     1       3.547   3.473  19.404  0.00  0.00    +0.000 A 
ATOM     22  C   UNL     1       2.914   4.081  20.499  0.00  0.00    +0.000 A 
ATOM     23  C   UNL     1       1.540   3.924  20.709  0.00  0.00    +0.000 A 
ATOM     24  C   UNL     1       0.779   3.155  19.830  0.00  0.00    +0.000 A 
ATOM     25  C   UNL     1       1.392   2.551  18.736  0.00  0.00    +0.000 A 
ATOM     26  C   UNL     1       2.762   2.715  18.521  0.00  0.00    +0.000 A 
ENDBRANCH  20  21
ENDBRANCH  15  20
ENDBRANCH  14  15
ENDBRANCH   2  14
TORSDOF 7
ENDMDL
MODEL 7
REMARK VINA RESULT:      -7.4      2.141      3.102
REMARK  Name = 
REMARK  10 active torsions:
REMARK  status: ('A' for Active; 'I' for Inactive)
REMARK    1  A    between atoms: C_1  and  C_2
REMARK    2  A    between atoms: C_2  and  C_3
REMARK    3  A    between atoms: C_2  and  C_4
REMARK    4  A    between atoms: C_7  and  N_8
REMARK    5  A    between atoms: C_9  and  C_11
REMARK    6  A    between atoms: C_11  and  N_12
REMARK    7  A    between atoms: N_12  and  C_13
REMARK    8  A    between atoms: N_12  and  S_20
REMARK    9  A    between atoms: C_13  and  C_14
REMARK   10  A    between atoms: S_20  and  C_21
REMARK                            x       y       z     vdW  Elec       q    Type
REMARK                         _______ _______ _______ _____ _____    ______ ____
ROOT
ATOM      1  N   UNL     1       2.388   7.186  20.092  0.00  0.00    +0.000 N 
ATOM      2  C   UNL     1       2.577   6.022  19.363  0.00  0.00    +0.000 C 
ATOM      3  O   UNL     1       2.149   5.800  18.231  0.00  0.00    +0.000 OA
ATOM      4  H   UNL     1       2.802   7.219  21.017  0.00  0.00    +0.000 HD
ENDROOT
BRANCH   1   8
ATOM      5  C   UNL     1       0.128  10.601  18.949  0.00  0.00    +0.000 A 
ATOM      6  C   UNL     1       1.026  10.018  18.051  0.00  0.00    +0.000 A 
ATOM      7  C   UNL     1       1.778   8.898  18.415  0.00  0.00    +0.000 A 
ATOM      8  C   UNL     1       1.655   8.325  19.682  0.00  0.00    +0.000 A 
ATOM      9  C   UNL     1       0.760   8.907  20.588  0.00  0.00    +0.000 A 
ATOM     10  C   UNL     1       0.006  10.031  20.223  0.00  0.00    +0.000 A 
BRANCH   5  12
ATOM     11  C   UNL     1      -2.111  11.760  19.005  0.00  0.00    +0.000 C 
ATOM     12  C   UNL     1      -0.662  11.823  18.520  0.00  0.00    +0.000 C 
ATOM     13  C   UNL     1       0.025  13.112  18.974  0.00  0.00    +0.000 C 
ENDBRANCH   5  12
ENDBRANCH   1   8
BRANCH   2  14
ATOM     14  C   UNL     1       3.446   4.986  20.053  0.00  0.00    +0.000 C 
BRANCH  14  15
ATOM     15  N   UNL     1       4.083   4.006  19.130  0.00  0.00    +0.000 NA
BRANCH  15  16
ATOM     16  S   UNL     1       3.839   2.380  19.571  0.00  0.00    +0.000 S 
ATOM     17  C   UNL     1       2.399   2.504  20.614  0.00  0.00    +0.000 C 
ATOM     18  O   UNL     1       3.442   1.647  18.387  0.00  0.00    +0.000 OA
ATOM     19  O   UNL     1       4.952   1.955  20.388  0.00  0.00    +0.000 OA
ENDBRANCH  15  16
BRANCH  15  20
ATOM     20  C   UNL     1       5.498   4.345  18.759  0.00  0.00    +0.000 C 
BRANCH  20  21
ATOM     21  C   UNL     1       5.833   4.470  17.287  0.00  0.00    +0.000 A 
ATOM     22  C   UNL     1       7.136   4.776  16.866  0.00  0.00    +0.000 A 
ATOM     23  C   UNL     1       7.445   4.865  15.505  0.00  0.00    +0.000 A 
ATOM     24  C   UNL     1       6.458   4.651  14.545  0.00  0.00    +0.000 A 
ATOM     25  C   UNL     1       5.162   4.340  14.947  0.00  0.00    +0.000 A 
ATOM     26  C   UNL     1       4.854   4.243  16.306  0.00  0.00    +0.000 A 
ENDBRANCH  20  21
ENDBRANCH  15  20
ENDBRANCH  14  15
ENDBRANCH   2  14
TORSDOF 7
ENDMDL
MODEL 8
REMARK VINA RESULT:      -7.4      3.838      8.798
REMARK  Name = 
REMARK  10 active torsions:
REMARK  status: ('A' for Active; 'I' for Inactive)
REMARK    1  A    between atoms: C_1  and  C_2
REMARK    2  A    between atoms: C_2  and  C_3
REMARK    3  A    between atoms: C_2  and  C_4
REMARK    4  A    between atoms: C_7  and  N_8
REMARK    5  A    between atoms: C_9  and  C_11
REMARK    6  A    between atoms: C_11  and  N_12
REMARK    7  A    between atoms: N_12  and  C_13
REMARK    8  A    between atoms: N_12  and  S_20
REMARK    9  A    between atoms: C_13  and  C_14
REMARK   10  A    between atoms: S_20  and  C_21
REMARK                            x       y       z     vdW  Elec       q    Type
REMARK                         _______ _______ _______ _____ _____    ______ ____
ROOT
ATOM      1  N   UNL     1       2.307   7.595  18.978  0.00  0.00    +0.000 N 
ATOM      2  C   UNL     1       1.756   8.796  18.559  0.00  0.00    +0.000 C 
ATOM      3  O   UNL     1       1.869   9.293  17.439  0.00  0.00    +0.000 OA
ATOM      4  H   UNL     1       2.127   7.319  19.937  0.00  0.00    +0.000 HD
ENDROOT
BRANCH   1   8
ATOM      5  C   UNL     1       4.784   5.069  16.620  0.00  0.00    +0.000 A 
ATOM      6  C   UNL     1       3.686   4.540  17.303  0.00  0.00    +0.000 A 
ATOM      7  C   UNL     1       2.866   5.359  18.084  0.00  0.00    +0.000 A 
ATOM      8  C   UNL     1       3.114   6.726  18.206  0.00  0.00    +0.000 A 
ATOM      9  C   UNL     1       4.215   7.262  17.526  0.00  0.00    +0.000 A 
ATOM     10  C   UNL     1       5.038   6.442  16.743  0.00  0.00    +0.000 A 
BRANCH   5  12
ATOM     11  C   UNL     1       5.422   4.342  14.291  0.00  0.00    +0.000 C 
ATOM     12  C   UNL     1       5.656   4.146  15.790  0.00  0.00    +0.000 C 
ATOM     13  C   UNL     1       7.133   4.311  16.151  0.00  0.00    +0.000 C 
ENDBRANCH   5  12
ENDBRANCH   1   8
BRANCH   2  14
ATOM     14  C   UNL     1       0.900   9.490  19.604  0.00  0.00    +0.000 C 
BRANCH  14  15
ATOM     15  N   UNL     1       0.280  10.763  19.143  0.00  0.00    +0.000 NA
BRANCH  15  16
ATOM     16  S   UNL     1       1.139  12.159  19.602  0.00  0.00    +0.000 S 
ATOM     17  C   UNL     1      -0.064  13.437  19.293  0.00  0.00    +0.000 C 
ATOM     18  O   UNL     1       1.347  12.111  21.033  0.00  0.00    +0.000 OA
ATOM     19  O   UNL     1       2.238  12.344  18.682  0.00  0.00    +0.000 OA
ENDBRANCH  15  16
BRANCH  15  20
ATOM     20  C   UNL     1      -1.202  10.840  19.373  0.00  0.00    +0.000 C 
BRANCH  20  21
ATOM     21  C   UNL     1      -2.111  10.761  18.165  0.00  0.00    +0.000 A 
ATOM     22  C   UNL     1      -3.294  11.513  18.100  0.00  0.00    +0.000 A 
ATOM     23  C   UNL     1      -4.117  11.456  16.971  0.00  0.00    +0.000 A 
ATOM     24  C   UNL     1      -3.772  10.644  15.892  0.00  0.00    +0.000 A 
ATOM     25  C   UNL     1      -2.600   9.896  15.939  0.00  0.00    +0.000 A 
ATOM     26  C   UNL     1      -1.773   9.960  17.063  0.00  0.00    +0.000 A 
ENDBRANCH  20  21
ENDBRANCH  15  20
ENDBRANCH  14  15
ENDBRANCH   2  14
TORSDOF 7
ENDMDL
MODEL 9
REMARK VINA RESULT:      -7.4      1.911      4.423
REMARK  Name = 
REMARK  10 active torsions:
REMARK  status: ('A' for Active; 'I' for Inactive)
REMARK    1  A    between atoms: C_1  and  C_2
REMARK    2  A    between atoms: C_2  and  C_3
REMARK    3  A    between atoms: C_2  and  C_4
REMARK    4  A    between atoms: C_7  and  N_8
REMARK    5  A    between atoms: C_9  and  C_11
REMARK    6  A    between atoms: C_11  and  N_12
REMARK    7  A    between atoms: N_12  and  C_13
REMARK    8  A    between atoms: N_12  and  S_20
REMARK    9  A    between atoms: C_13  and  C_14
REMARK   10  A    between atoms: S_20  and  C_21
REMARK                            x       y       z     vdW  Elec       q    Type
REMARK                         _______ _______ _______ _____ _____    ______ ____
ROOT
ATOM      1  N   UNL     1       3.193   7.097  18.240  0.00  0.00    +0.000 N 
ATOM      2  C   UNL     1       2.924   5.835  17.734  0.00  0.00    +0.000 C 
ATOM      3  O   UNL     1       1.811   5.321  17.623  0.00  0.00    +0.000 OA
ATOM      4  H   UNL     1       4.166   7.379  18.271  0.00  0.00    +0.000 HD
ENDROOT
BRANCH   1   8
ATOM      5  C   UNL     1       0.341   9.818  19.835  0.00  0.00    +0.000 A 
ATOM      6  C   UNL     1       0.717   9.899  18.492  0.00  0.00    +0.000 A 
ATOM      7  C   UNL     1       1.656   9.013  17.956  0.00  0.00    +0.000 A 
ATOM      8  C   UNL     1       2.245   8.021  18.741  0.00  0.00    +0.000 A 
ATOM      9  C   UNL     1       1.875   7.937  20.089  0.00  0.00    +0.000 A 
ATOM     10  C   UNL     1       0.934   8.825  20.628  0.00  0.00    +0.000 A 
BRANCH   5  12
ATOM     11  C   UNL     1      -0.019  11.843  21.294  0.00  0.00    +0.000 C 
ATOM     12  C   UNL     1      -0.673  10.804  20.382  0.00  0.00    +0.000 C 
ATOM     13  C   UNL     1      -1.461  11.469  19.252  0.00  0.00    +0.000 C 
ENDBRANCH   5  12
ENDBRANCH   1   8
BRANCH   2  14
ATOM     14  C   UNL     1       4.147   5.088  17.234  0.00  0.00    +0.000 C 
BRANCH  14  15
ATOM     15  N   UNL     1       5.230   4.938  18.244  0.00  0.00    +0.000 NA
BRANCH  15  16
ATOM     16  S   UNL     1       6.797   5.181  17.621  0.00  0.00    +0.000 S 
ATOM     17  C   UNL     1       6.670   4.407  16.021  0.00  0.00    +0.000 C 
ATOM     18  O   UNL     1       6.976   6.599  17.393  0.00  0.00    +0.000 OA
ATOM     19  O   UNL     1       7.730   4.417  18.418  0.00  0.00    +0.000 OA
ENDBRANCH  15  16
BRANCH  15  20
ATOM     20  C   UNL     1       5.090   3.726  19.118  0.00  0.00    +0.000 C 
BRANCH  20  21
ATOM     21  C   UNL     1       3.716   3.407  19.671  0.00  0.00    +0.000 A 
ATOM     22  C   UNL     1       3.153   4.178  20.699  0.00  0.00    +0.000 A 
ATOM     23  C   UNL     1       1.874   3.894  21.188  0.00  0.00    +0.000 A 
ATOM     24  C   UNL     1       1.139   2.835  20.658  0.00  0.00    +0.000 A 
ATOM     25  C   UNL     1       1.682   2.065  19.634  0.00  0.00    +0.000 A 
ATOM     26  C   UNL     1       2.956   2.353  19.139  0.00  0.00    +0.000 A 
ENDBRANCH  20  21
ENDBRANCH  15  20
ENDBRANCH  14  15
ENDBRANCH   2  14
TORSDOF 7
ENDMDL
