MODEL 1
REMARK VINA RESULT:      -8.2      0.000      0.000
REMARK  Name = 
REMARK  4 active torsions:
REMARK  status: ('A' for Active; 'I' for Inactive)
REMARK    1  A    between atoms: C_1  and  C_2
REMARK    2  A    between atoms: C_5  and  N_6
REMARK    3  A    between atoms: C_7  and  C_9
REMARK    4  A    between atoms: C_9  and  C_10
REMARK                            x       y       z     vdW  Elec       q    Type
REMARK                         _______ _______ _______ _____ _____    ______ ____
ROOT
ATOM      1  C   UNL     1       5.388   3.595  13.458  0.00  0.00    +0.000 C 
ATOM      2  C   UNL     1       5.882   4.246  14.719  0.00  0.00    +0.000 A 
ATOM      3  N   UNL     1       5.333   4.015  15.889  0.00  0.00    +0.000 NA
ATOM      4  N   UNL     1       5.929   4.715  16.927  0.00  0.00    +0.000 N 
ATOM      5  C   UNL     1       5.520   4.646  18.294  0.00  0.00    +0.000 A 
ATOM      6  C   UNL     1       6.279   5.451  19.072  0.00  0.00    +0.000 A 
ATOM      7  S   UNL     1       7.518   6.323  18.218  0.00  0.00    +0.000 S 
ATOM      8  C   UNL     1       7.004   5.584  16.710  0.00  0.00    +0.000 A 
ATOM      9  N   UNL     1       7.608   5.874  15.613  0.00  0.00    +0.000 NA
ATOM     10  C   UNL     1       7.074   5.205  14.544  0.00  0.00    +0.000 A 
ATOM     11  O   UNL     1       7.510   5.334  13.407  0.00  0.00    +0.000 OA
ENDROOT
BRANCH   5  12
ATOM     12  N   UNL     1       4.489   3.862  18.803  0.00  0.00    +0.000 N 
ATOM     13  C   UNL     1       3.125   4.157  18.724  0.00  0.00    +0.000 C 
ATOM     14  O   UNL     1       2.662   5.145  18.151  0.00  0.00    +0.000 OA
ATOM     15  H   UNL     1       4.761   3.042  19.343  0.00  0.00    +0.000 HD
BRANCH  13  16
ATOM     16  C   UNL     1       2.154   3.118  19.351  0.00  0.00    +0.000 C 
ATOM     17  C   UNL     1       1.398   2.410  18.229  0.00  0.00    +0.000 C 
ATOM     18  C   UNL     1       1.166   3.807  20.304  0.00  0.00    +0.000 C 
ATOM     19  C   UNL     1       1.918   3.787  21.610  0.00  0.00    +0.000 C 
ATOM     20  C   UNL     1       2.645   2.463  21.537  0.00  0.00    +0.000 C 
ATOM     21  O   UNL     1       2.869   2.160  20.147  0.00  0.00    +0.000 OA
ENDBRANCH  13  16
ENDBRANCH   5  12
TORSDOF 2
ENDMDL
MODEL 2
REMARK VINA RESULT:      -8.0      1.056      1.081
REMARK  Name = 
REMARK  4 active torsions:
REMARK  status: ('A' for Active; 'I' for Inactive)
REMARK    1  A    between atoms: C_1  and  C_2
REMARK    2  A    between atoms: C_5  and  N_6
REMARK    3  A    between atoms: C_7  and  C_9
REMARK    4  A    between atoms: C_9  and  C_10
REMARK                            x       y       z     vdW  Elec       q    Type
REMARK                         _______ _______ _______ _____ _____    ______ ____
ROOT
ATOM      1  C   UNL     1       5.394   3.678  13.055  0.00  0.00    +0.000 C 
ATOM      2  C   UNL     1       5.821   4.328  14.341  0.00  0.00    +0.000 A 
ATOM      3  N   UNL     1       5.123   4.221  15.447  0.00  0.00    +0.000 NA
ATOM      4  N   UNL     1       5.681   4.897  16.521  0.00  0.00    +0.000 N 
ATOM      5  C   UNL     1       5.119   4.943  17.834  0.00  0.00    +0.000 A 
ATOM      6  C   UNL     1       5.880   5.692  18.664  0.00  0.00    +0.000 A 
ATOM      7  S   UNL     1       7.302   6.371  17.928  0.00  0.00    +0.000 S 
ATOM      8  C   UNL     1       6.871   5.623  16.399  0.00  0.00    +0.000 A 
ATOM      9  N   UNL     1       7.623   5.786  15.369  0.00  0.00    +0.000 NA
ATOM     10  C   UNL     1       7.133   5.132  14.269  0.00  0.00    +0.000 A 
ATOM     11  O   UNL     1       7.704   5.153  13.187  0.00  0.00    +0.000 OA
ENDROOT
BRANCH   5  12
ATOM     12  N   UNL     1       3.951   4.311  18.249  0.00  0.00    +0.000 N 
ATOM     13  C   UNL     1       3.873   3.271  19.178  0.00  0.00    +0.000 C 
ATOM     14  O   UNL     1       4.842   2.804  19.779  0.00  0.00    +0.000 OA
ATOM     15  H   UNL     1       3.091   4.585  17.776  0.00  0.00    +0.000 HD
BRANCH  13  16
ATOM     16  C   UNL     1       2.450   2.734  19.498  0.00  0.00    +0.000 C 
ATOM     17  C   UNL     1       2.110   1.620  18.510  0.00  0.00    +0.000 C 
ATOM     18  C   UNL     1       1.411   3.862  19.404  0.00  0.00    +0.000 C 
ATOM     19  C   UNL     1       1.434   4.431  20.798  0.00  0.00    +0.000 C 
ATOM     20  C   UNL     1       1.651   3.195  21.642  0.00  0.00    +0.000 C 
ATOM     21  O   UNL     1       2.376   2.241  20.844  0.00  0.00    +0.000 OA
ENDBRANCH  13  16
ENDBRANCH   5  12
TORSDOF 2
ENDMDL
MODEL 3
REMARK VINA RESULT:      -7.7      0.878      1.708
REMARK  Name = 
REMARK  4 active torsions:
REMARK  status: ('A' for Active; 'I' for Inactive)
REMARK    1  A    between atoms: C_1  and  C_2
REMARK    2  A    between atoms: C_5  and  N_6
REMARK    3  A    between atoms: C_7  and  C_9
REMARK    4  A    between atoms: C_9  and  C_10
REMARK                            x       y       z     vdW  Elec       q    Type
REMARK                         _______ _______ _______ _____ _____    ______ ____
ROOT
ATOM      1  C   UNL     1       5.217   3.705  13.731  0.00  0.00    +0.000 C 
ATOM      2  C   UNL     1       5.774   4.308  14.989  0.00  0.00    +0.000 A 
ATOM      3  N   UNL     1       5.247   4.083  16.169  0.00  0.00    +0.000 NA
ATOM      4  N   UNL     1       5.902   4.734  17.202  0.00  0.00    +0.000 N 
ATOM      5  C   UNL     1       5.527   4.660  18.578  0.00  0.00    +0.000 A 
ATOM      6  C   UNL     1       6.344   5.414  19.348  0.00  0.00    +0.000 A 
ATOM      7  S   UNL     1       7.600   6.243  18.476  0.00  0.00    +0.000 S 
ATOM      8  C   UNL     1       7.012   5.556  16.971  0.00  0.00    +0.000 A 
ATOM      9  N   UNL     1       7.600   5.836  15.863  0.00  0.00    +0.000 NA
ATOM     10  C   UNL     1       7.006   5.213  14.797  0.00  0.00    +0.000 A 
ATOM     11  O   UNL     1       7.418   5.342  13.651  0.00  0.00    +0.000 OA
ENDROOT
BRANCH   5  12
ATOM     12  N   UNL     1       4.473   3.917  19.102  0.00  0.00    +0.000 N 
ATOM     13  C   UNL     1       3.313   4.441  19.677  0.00  0.00    +0.000 C 
ATOM     14  O   UNL     1       3.062   5.645  19.758  0.00  0.00    +0.000 OA
ATOM     15  H   UNL     1       4.598   2.906  19.133  0.00  0.00    +0.000 HD
BRANCH  13  16
ATOM     16  C   UNL     1       2.262   3.411  20.179  0.00  0.00    +0.000 C 
ATOM     17  C   UNL     1       2.326   3.345  21.703  0.00  0.00    +0.000 C 
ATOM     18  C   UNL     1       2.534   2.024  19.576  0.00  0.00    +0.000 C 
ATOM     19  C   UNL     1       1.758   2.081  18.286  0.00  0.00    +0.000 C 
ATOM     20  C   UNL     1       0.548   2.900  18.680  0.00  0.00    +0.000 C 
ATOM     21  O   UNL     1       0.941   3.774  19.754  0.00  0.00    +0.000 OA
ENDBRANCH  13  16
ENDBRANCH   5  12
TORSDOF 2
ENDMDL
MODEL 4
REMARK VINA RESULT:      -7.4      1.005      1.427
REMARK  Name = 
REMARK  4 active torsions:
REMARK  status: ('A' for Active; 'I' for Inactive)
REMARK    1  A    between atoms: C_1  and  C_2
REMARK    2  A    between atoms: C_5  and  N_6
REMARK    3  A    between atoms: C_7  and  C_9
REMARK    4  A    between atoms: C_9  and  C_10
REMARK                            x       y       z     vdW  Elec       q    Type
REMARK                         _______ _______ _______ _____ _____    ______ ____
ROOT
ATOM      1  C   UNL     1       5.812   3.270  13.523  0.00  0.00    +0.000 C 
ATOM      2  C   UNL     1       6.243   4.067  14.722  0.00  0.00    +0.000 A 
ATOM      3  N   UNL     1       5.837   3.782  15.936  0.00  0.00    +0.000 NA
ATOM      4  N   UNL     1       6.341   4.638  16.904  0.00  0.00    +0.000 N 
ATOM      5  C   UNL     1       6.051   4.548  18.300  0.00  0.00    +0.000 A 
ATOM      6  C   UNL     1       6.674   5.530  18.991  0.00  0.00    +0.000 A 
ATOM      7  S   UNL     1       7.637   6.602  18.018  0.00  0.00    +0.000 S 
ATOM      8  C   UNL     1       7.190   5.702  16.578  0.00  0.00    +0.000 A 
ATOM      9  N   UNL     1       7.642   6.060  15.429  0.00  0.00    +0.000 NA
ATOM     10  C   UNL     1       7.189   5.245  14.425  0.00  0.00    +0.000 A 
ATOM     11  O   UNL     1       7.509   5.410  13.255  0.00  0.00    +0.000 OA
ENDROOT
BRANCH   5  12
ATOM     12  N   UNL     1       5.247   3.591  18.911  0.00  0.00    +0.000 N 
ATOM     13  C   UNL     1       4.053   3.843  19.591  0.00  0.00    +0.000 C 
ATOM     14  O   UNL     1       3.540   4.958  19.702  0.00  0.00    +0.000 OA
ATOM     15  H   UNL     1       5.603   2.636  18.924  0.00  0.00    +0.000 HD
BRANCH  13  16
ATOM     16  C   UNL     1       3.316   2.606  20.178  0.00  0.00    +0.000 C 
ATOM     17  C   UNL     1       4.348   1.530  20.510  0.00  0.00    +0.000 C 
ATOM     18  C   UNL     1       2.287   2.062  19.175  0.00  0.00    +0.000 C 
ATOM     19  C   UNL     1       1.059   2.866  19.513  0.00  0.00    +0.000 C 
ATOM     20  C   UNL     1       1.175   3.005  21.016  0.00  0.00    +0.000 C 
ATOM     21  O   UNL     1       2.574   2.959  21.354  0.00  0.00    +0.000 OA
ENDBRANCH  13  16
ENDBRANCH   5  12
TORSDOF 2
ENDMDL
MODEL 5
REMARK VINA RESULT:      -6.7      1.072      1.817
REMARK  Name = 
REMARK  4 active torsions:
REMARK  status: ('A' for Active; 'I' for Inactive)
REMARK    1  A    between atoms: C_1  and  C_2
REMARK    2  A    between atoms: C_5  and  N_6
REMARK    3  A    between atoms: C_7  and  C_9
REMARK    4  A    between atoms: C_9  and  C_10
REMARK                            x       y       z     vdW  Elec       q    Type
REMARK                         _______ _______ _______ _____ _____    ______ ____
ROOT
ATOM      1  C   UNL     1       4.958   3.630  13.301  0.00  0.00    +0.000 C 
ATOM      2  C   UNL     1       5.573   4.379  14.449  0.00  0.00    +0.000 A 
ATOM      3  N   UNL     1       4.955   4.534  15.596  0.00  0.00    +0.000 NA
ATOM      4  N   UNL     1       5.685   5.259  16.525  0.00  0.00    +0.000 N 
ATOM      5  C   UNL     1       5.240   5.573  17.845  0.00  0.00    +0.000 A 
ATOM      6  C   UNL     1       6.162   6.304  18.511  0.00  0.00    +0.000 A 
ATOM      7  S   UNL     1       7.605   6.649  17.603  0.00  0.00    +0.000 S 
ATOM      8  C   UNL     1       6.954   5.771  16.229  0.00  0.00    +0.000 A 
ATOM      9  N   UNL     1       7.639   5.672  15.146  0.00  0.00    +0.000 NA
ATOM     10  C   UNL     1       6.976   4.955  14.185  0.00  0.00    +0.000 A 
ATOM     11  O   UNL     1       7.459   4.738  13.081  0.00  0.00    +0.000 OA
ENDROOT
BRANCH   5  12
ATOM     12  N   UNL     1       4.029   5.191  18.415  0.00  0.00    +0.000 N 
ATOM     13  C   UNL     1       3.844   4.123  19.297  0.00  0.00    +0.000 C 
ATOM     14  O   UNL     1       4.752   3.401  19.712  0.00  0.00    +0.000 OA
ATOM     15  H   UNL     1       3.198   5.689  18.100  0.00  0.00    +0.000 HD
BRANCH  13  16
ATOM     16  C   UNL     1       2.397   3.899  19.818  0.00  0.00    +0.000 C 
ATOM     17  C   UNL     1       2.091   4.947  20.887  0.00  0.00    +0.000 C 
ATOM     18  C   UNL     1       2.244   2.486  20.402  0.00  0.00    +0.000 C 
ATOM     19  C   UNL     1       1.855   1.682  19.189  0.00  0.00    +0.000 C 
ATOM     20  C   UNL     1       0.995   2.662  18.421  0.00  0.00    +0.000 C 
ATOM     21  O   UNL     1       1.444   3.990  18.749  0.00  0.00    +0.000 OA
ENDBRANCH  13  16
ENDBRANCH   5  12
TORSDOF 2
ENDMDL
MODEL 6
REMARK VINA RESULT:      -6.7      4.722      6.890
REMARK  Name = 
REMARK  4 active torsions:
REMARK  status: ('A' for Active; 'I' for Inactive)
REMARK    1  A    between atoms: C_1  and  C_2
REMARK    2  A    between atoms: C_5  and  N_6
REMARK    3  A    between atoms: C_7  and  C_9
REMARK    4  A    between atoms: C_9  and  C_10
REMARK                            x       y       z     vdW  Elec       q    Type
REMARK                         _______ _______ _______ _____ _____    ______ ____
ROOT
ATOM      1  C   UNL     1      -0.040   9.326  23.426  0.00  0.00    +0.000 C 
ATOM      2  C   UNL     1       0.458   9.324  22.008  0.00  0.00    +0.000 A 
ATOM      3  N   UNL     1       1.102   8.304  21.492  0.00  0.00    +0.000 NA
ATOM      4  N   UNL     1       1.482   8.500  20.173  0.00  0.00    +0.000 N 
ATOM      5  C   UNL     1       2.198   7.549  19.384  0.00  0.00    +0.000 A 
ATOM      6  C   UNL     1       2.440   8.028  18.142  0.00  0.00    +0.000 A 
ATOM      7  S   UNL     1       1.823   9.628  17.851  0.00  0.00    +0.000 S 
ATOM      8  C   UNL     1       1.198   9.689  19.492  0.00  0.00    +0.000 A 
ATOM      9  N   UNL     1       0.577  10.735  19.905  0.00  0.00    +0.000 NA
ATOM     10  C   UNL     1       0.162  10.604  21.204  0.00  0.00    +0.000 A 
ATOM     11  O   UNL     1      -0.456  11.486  21.786  0.00  0.00    +0.000 OA
ENDROOT
BRANCH   5  12
ATOM     12  N   UNL     1       2.607   6.283  19.794  0.00  0.00    +0.000 N 
ATOM     13  C   UNL     1       2.445   5.100  19.069  0.00  0.00    +0.000 C 
ATOM     14  O   UNL     1       1.946   5.038  17.944  0.00  0.00    +0.000 OA
ATOM     15  H   UNL     1       2.988   6.209  20.736  0.00  0.00    +0.000 HD
BRANCH  13  16
ATOM     16  C   UNL     1       3.000   3.805  19.726  0.00  0.00    +0.000 C 
ATOM     17  C   UNL     1       4.461   3.633  19.316  0.00  0.00    +0.000 C 
ATOM     18  C   UNL     1       2.179   2.581  19.289  0.00  0.00    +0.000 C 
ATOM     19  C   UNL     1       1.082   2.550  20.321  0.00  0.00    +0.000 C 
ATOM     20  C   UNL     1       1.807   3.010  21.567  0.00  0.00    +0.000 C 
ATOM     21  O   UNL     1       2.890   3.864  21.155  0.00  0.00    +0.000 OA
ENDBRANCH  13  16
ENDBRANCH   5  12
TORSDOF 2
ENDMDL
MODEL 7
REMARK VINA RESULT:      -6.4      4.693      6.920
REMARK  Name = 
REMARK  4 active torsions:
REMARK  status: ('A' for Active; 'I' for Inactive)
REMARK    1  A    between atoms: C_1  and  C_2
REMARK    2  A    between atoms: C_5  and  N_6
REMARK    3  A    between atoms: C_7  and  C_9
REMARK    4  A    between atoms: C_9  and  C_10
REMARK                            x       y       z     vdW  Elec       q    Type
REMARK                         _______ _______ _______ _____ _____    ______ ____
ROOT
ATOM      1  C   UNL     1      -0.326   9.407  23.227  0.00  0.00    +0.000 C 
ATOM      2  C   UNL     1       0.288   9.336  21.857  0.00  0.00    +0.000 A 
ATOM      3  N   UNL     1       0.931   8.274  21.431  0.00  0.00    +0.000 NA
ATOM      4  N   UNL     1       1.428   8.408  20.144  0.00  0.00    +0.000 N 
ATOM      5  C   UNL     1       2.168   7.403  19.449  0.00  0.00    +0.000 A 
ATOM      6  C   UNL     1       2.532   7.828  18.218  0.00  0.00    +0.000 A 
ATOM      7  S   UNL     1       2.008   9.440  17.824  0.00  0.00    +0.000 S 
ATOM      8  C   UNL     1       1.251   9.582  19.403  0.00  0.00    +0.000 A 
ATOM      9  N   UNL     1       0.641  10.666  19.728  0.00  0.00    +0.000 NA
ATOM     10  C   UNL     1       0.114  10.597  20.991  0.00  0.00    +0.000 A 
ATOM     11  O   UNL     1      -0.514  11.522  21.489  0.00  0.00    +0.000 OA
ENDROOT
BRANCH   5  12
ATOM     12  N   UNL     1       2.488   6.138  19.933  0.00  0.00    +0.000 N 
ATOM     13  C   UNL     1       2.072   4.924  19.380  0.00  0.00    +0.000 C 
ATOM     14  O   UNL     1       1.390   4.826  18.358  0.00  0.00    +0.000 OA
ATOM     15  H   UNL     1       3.008   6.101  20.808  0.00  0.00    +0.000 HD
BRANCH  13  16
ATOM     16  C   UNL     1       2.572   3.633  20.086  0.00  0.00    +0.000 C 
ATOM     17  C   UNL     1       2.167   3.690  21.558  0.00  0.00    +0.000 C 
ATOM     18  C   UNL     1       4.098   3.504  19.960  0.00  0.00    +0.000 C 
ATOM     19  C   UNL     1       4.247   2.763  18.657  0.00  0.00    +0.000 C 
ATOM     20  C   UNL     1       3.054   1.832  18.684  0.00  0.00    +0.000 C 
ATOM     21  O   UNL     1       2.024   2.461  19.467  0.00  0.00    +0.000 OA
ENDBRANCH  13  16
ENDBRANCH   5  12
TORSDOF 2
ENDMDL
MODEL 8
REMARK VINA RESULT:      -6.2      4.342      5.491
REMARK  Name = 
REMARK  4 active torsions:
REMARK  status: ('A' for Active; 'I' for Inactive)
REMARK    1  A    between atoms: C_1  and  C_2
REMARK    2  A    between atoms: C_5  and  N_6
REMARK    3  A    between atoms: C_7  and  C_9
REMARK    4  A    between atoms: C_9  and  C_10
REMARK                            x       y       z     vdW  Elec       q    Type
REMARK                         _______ _______ _______ _____ _____    ______ ____
ROOT
ATOM      1  C   UNL     1       7.695   7.176  17.779  0.00  0.00    +0.000 C 
ATOM      2  C   UNL     1       6.441   6.370  17.973  0.00  0.00    +0.000 A 
ATOM      3  N   UNL     1       5.248   6.917  17.968  0.00  0.00    +0.000 NA
ATOM      4  N   UNL     1       4.222   6.007  18.168  0.00  0.00    +0.000 N 
ATOM      5  C   UNL     1       2.834   6.344  18.213  0.00  0.00    +0.000 A 
ATOM      6  C   UNL     1       2.073   5.248  18.438  0.00  0.00    +0.000 A 
ATOM      7  S   UNL     1       2.969   3.766  18.602  0.00  0.00    +0.000 S 
ATOM      8  C   UNL     1       4.471   4.644  18.363  0.00  0.00    +0.000 A 
ATOM      9  N   UNL     1       5.593   4.016  18.383  0.00  0.00    +0.000 NA
ATOM     10  C   UNL     1       6.654   4.859  18.180  0.00  0.00    +0.000 A 
ATOM     11  O   UNL     1       7.810   4.460  18.154  0.00  0.00    +0.000 OA
ENDROOT
BRANCH   5  12
ATOM     12  N   UNL     1       2.292   7.614  18.043  0.00  0.00    +0.000 N 
ATOM     13  C   UNL     1       1.772   8.420  19.059  0.00  0.00    +0.000 C 
ATOM     14  O   UNL     1       1.763   8.113  20.253  0.00  0.00    +0.000 OA
ATOM     15  H   UNL     1       2.203   7.949  17.086  0.00  0.00    +0.000 HD
BRANCH  13  16
ATOM     16  C   UNL     1       1.236   9.815  18.630  0.00  0.00    +0.000 C 
ATOM     17  C   UNL     1       2.327  10.540  17.844  0.00  0.00    +0.000 C 
ATOM     18  C   UNL     1       0.831  10.641  19.860  0.00  0.00    +0.000 C 
ATOM     19  C   UNL     1      -0.604  10.230  20.060  0.00  0.00    +0.000 C 
ATOM     20  C   UNL     1      -1.085  10.056  18.636  0.00  0.00    +0.000 C 
ATOM     21  O   UNL     1       0.051   9.689  17.831  0.00  0.00    +0.000 OA
ENDBRANCH  13  16
ENDBRANCH   5  12
TORSDOF 2
ENDMDL
MODEL 9
REMARK VINA RESULT:      -6.2      4.480      6.067
REMARK  Name = 
REMARK  4 active torsions:
REMARK  status: ('A' for Active; 'I' for Inactive)
REMARK    1  A    between atoms: C_1  and  C_2
REMARK    2  A    between atoms: C_5  and  N_6
REMARK    3  A    between atoms: C_7  and  C_9
REMARK    4  A    between atoms: C_9  and  C_10
REMARK                            x       y       z     vdW  Elec       q    Type
REMARK                         _______ _______ _______ _____ _____    ______ ____
ROOT
ATOM      1  C   UNL     1       1.253   2.511  19.620  0.00  0.00    +0.000 C 
ATOM      2  C   UNL     1       2.133   3.501  18.909  0.00  0.00    +0.000 A 
ATOM      3  N   UNL     1       2.016   4.796  19.086  0.00  0.00    +0.000 NA
ATOM      4  N   UNL     1       2.915   5.540  18.337  0.00  0.00    +0.000 N 
ATOM      5  C   UNL     1       2.994   6.966  18.343  0.00  0.00    +0.000 A 
ATOM      6  C   UNL     1       3.957   7.405  17.500  0.00  0.00    +0.000 A 
ATOM      7  S   UNL     1       4.818   6.145  16.666  0.00  0.00    +0.000 S 
ATOM      8  C   UNL     1       3.838   4.934  17.477  0.00  0.00    +0.000 A 
ATOM      9  N   UNL     1       4.030   3.686  17.237  0.00  0.00    +0.000 NA
ATOM     10  C   UNL     1       3.177   2.890  17.957  0.00  0.00    +0.000 A 
ATOM     11  O   UNL     1       3.201   1.669  17.881  0.00  0.00    +0.000 OA
ENDROOT
BRANCH   5  12
ATOM     12  N   UNL     1       2.210   7.828  19.104  0.00  0.00    +0.000 N 
ATOM     13  C   UNL     1       1.614   9.006  18.646  0.00  0.00    +0.000 C 
ATOM     14  O   UNL     1       1.681   9.410  17.484  0.00  0.00    +0.000 OA
ATOM     15  H   UNL     1       2.130   7.616  20.097  0.00  0.00    +0.000 HD
BRANCH  13  16
ATOM     16  C   UNL     1       0.764   9.798  19.679  0.00  0.00    +0.000 C 
ATOM     17  C   UNL     1       0.786   9.050  21.011  0.00  0.00    +0.000 C 
ATOM     18  C   UNL     1      -0.681   9.957  19.183  0.00  0.00    +0.000 C 
ATOM     19  C   UNL     1      -0.602  11.229  18.379  0.00  0.00    +0.000 C 
ATOM     20  C   UNL     1       0.392  12.046  19.175  0.00  0.00    +0.000 C 
ATOM     21  O   UNL     1       1.272  11.129  19.851  0.00  0.00    +0.000 OA
ENDBRANCH  13  16
ENDBRANCH   5  12
TORSDOF 2
ENDMDL
