MODEL 1
REMARK VINA RESULT:      -7.6      0.000      0.000
REMARK  Name = 
REMARK  7 active torsions:
REMARK  status: ('A' for Active; 'I' for Inactive)
REMARK    1  A    between atoms: C_1  and  O_2
REMARK    2  A    between atoms: O_2  and  C_3
REMARK    3  A    between atoms: C_11  and  N_12
REMARK    4  A    between atoms: C_17  and  N_18
REMARK    5  A    between atoms: N_18  and  C_19
REMARK    6  A    between atoms: C_20  and  C_22
REMARK    7  A    between atoms: C_22  and  C_23
REMARK                            x       y       z     vdW  Elec       q    Type
REMARK                         _______ _______ _______ _____ _____    ______ ____
ROOT
ATOM      1  C   UNL     1      -2.927  11.728  19.256  0.00  0.00    +0.000 A 
ATOM      2  C   UNL     1      -3.424  11.293  18.013  0.00  0.00    +0.000 A 
ATOM      3  C   UNL     1      -2.558  10.800  17.037  0.00  0.00    +0.000 A 
ATOM      4  C   UNL     1      -1.193  10.723  17.286  0.00  0.00    +0.000 A 
ATOM      5  C   UNL     1      -0.667  11.146  18.511  0.00  0.00    +0.000 A 
ATOM      6  C   UNL     1      -1.538  11.665  19.513  0.00  0.00    +0.000 A 
ATOM      7  C   UNL     1      -0.993  12.178  20.833  0.00  0.00    +0.000 C 
ATOM      8  C   UNL     1       0.515  11.962  21.033  0.00  0.00    +0.000 C 
ATOM      9  C   UNL     1       1.319  12.134  19.714  0.00  0.00    +0.000 C 
ATOM     10  C   UNL     1       0.822  10.966  18.775  0.00  0.00    +0.000 C 
ENDROOT
BRANCH   9  11
ATOM     11  N   UNL     1       1.137  13.495  19.097  0.00  0.00    +0.000 NA
ATOM     12  C   UNL     1       2.117  13.789  18.024  0.00  0.00    +0.000 C 
ATOM     13  C   UNL     1       3.334  14.356  18.725  0.00  0.00    +0.000 C 
ATOM     14  C   UNL     1       2.669  15.332  19.654  0.00  0.00    +0.000 C 
ATOM     15  C   UNL     1       1.384  14.600  20.069  0.00  0.00    +0.000 C 
ENDBRANCH   9  11
BRANCH  10  16
ATOM     16  N   UNL     1       1.128   9.617  19.340  0.00  0.00    +0.000 N 
ATOM     17  C   UNL     1       0.672   9.217  20.681  0.00  0.00    +0.000 C 
ATOM     18  C   UNL     1       1.835   8.695  18.587  0.00  0.00    +0.000 C 
ATOM     19  O   UNL     1       2.191   8.979  17.452  0.00  0.00    +0.000 OA
BRANCH  18  20
ATOM     20  C   UNL     1       2.248   7.320  19.117  0.00  0.00    +0.000 C 
BRANCH  20  21
ATOM     21  C   UNL     1       3.131   6.470  18.217  0.00  0.00    +0.000 A 
ATOM     22  C   UNL     1       4.259   6.979  17.536  0.00  0.00    +0.000 A 
ATOM     23  C   UNL     1       5.043   6.142  16.734  0.00  0.00    +0.000 A 
ATOM     24  C   UNL     1       4.712   4.794  16.588  0.00  0.00    +0.000 A 
ATOM     25 CL   UNL     1       5.696   3.748  15.581  0.00  0.00    +0.000 Cl
ATOM     26  C   UNL     1       3.595   4.278  17.245  0.00  0.00    +0.000 A 
ATOM     27  C   UNL     1       2.808   5.101  18.055  0.00  0.00    +0.000 A 
ATOM     28 CL   UNL     1       1.411   4.377  18.852  0.00  0.00    +0.000 Cl
ENDBRANCH  20  21
ENDBRANCH  18  20
ENDBRANCH  10  16
BRANCH   1  30
ATOM     29  C   UNL     1      -5.107  12.471  20.061  0.00  0.00    +0.000 C 
ATOM     30  O   UNL     1      -3.761  12.206  20.225  0.00  0.00    +0.000 OA
ENDBRANCH   1  30
TORSDOF 5
ENDMDL
MODEL 2
REMARK VINA RESULT:      -7.3      1.657      2.149
REMARK  Name = 
REMARK  7 active torsions:
REMARK  status: ('A' for Active; 'I' for Inactive)
REMARK    1  A    between atoms: C_1  and  O_2
REMARK    2  A    between atoms: O_2  and  C_3
REMARK    3  A    between atoms: C_11  and  N_12
REMARK    4  A    between atoms: C_17  and  N_18
REMARK    5  A    between atoms: N_18  and  C_19
REMARK    6  A    between atoms: C_20  and  C_22
REMARK    7  A    between atoms: C_22  and  C_23
REMARK                            x       y       z     vdW  Elec       q    Type
REMARK                         _______ _______ _______ _____ _____    ______ ____
ROOT
ATOM      1  C   UNL     1      -2.969  11.466  18.932  0.00  0.00    +0.000 A 
ATOM      2  C   UNL     1      -3.363  10.674  17.837  0.00  0.00    +0.000 A 
ATOM      3  C   UNL     1      -2.431   9.880  17.166  0.00  0.00    +0.000 A 
ATOM      4  C   UNL     1      -1.105   9.855  17.580  0.00  0.00    +0.000 A 
ATOM      5  C   UNL     1      -0.682  10.630  18.666  0.00  0.00    +0.000 A 
ATOM      6  C   UNL     1      -1.619  11.457  19.352  0.00  0.00    +0.000 A 
ATOM      7  C   UNL     1      -1.183  12.346  20.501  0.00  0.00    +0.000 C 
ATOM      8  C   UNL     1       0.283  12.171  20.928  0.00  0.00    +0.000 C 
ATOM      9  C   UNL     1       1.225  11.902  19.720  0.00  0.00    +0.000 C 
ATOM     10  C   UNL     1       0.760  10.510  19.140  0.00  0.00    +0.000 C 
ENDROOT
BRANCH   9  11
ATOM     11  N   UNL     1       1.183  13.005  18.696  0.00  0.00    +0.000 NA
ATOM     12  C   UNL     1       2.383  13.047  17.829  0.00  0.00    +0.000 C 
ATOM     13  C   UNL     1       3.399  13.886  18.575  0.00  0.00    +0.000 C 
ATOM     14  C   UNL     1       2.529  15.037  18.993  0.00  0.00    +0.000 C 
ATOM     15  C   UNL     1       1.188  14.362  19.316  0.00  0.00    +0.000 C 
ENDBRANCH   9  11
BRANCH  10  16
ATOM     16  N   UNL     1       0.931   9.401  20.125  0.00  0.00    +0.000 N 
ATOM     17  C   UNL     1       0.289   9.434  21.449  0.00  0.00    +0.000 C 
ATOM     18  C   UNL     1       1.689   8.290  19.793  0.00  0.00    +0.000 C 
ATOM     19  O   UNL     1       2.200   8.209  18.685  0.00  0.00    +0.000 OA
BRANCH  18  20
ATOM     20  C   UNL     1       1.970   7.145  20.768  0.00  0.00    +0.000 C 
BRANCH  20  21
ATOM     21  C   UNL     1       1.960   5.735  20.199  0.00  0.00    +0.000 A 
ATOM     22  C   UNL     1       0.854   4.863  20.312  0.00  0.00    +0.000 A 
ATOM     23  C   UNL     1       0.900   3.581  19.754  0.00  0.00    +0.000 A 
ATOM     24  C   UNL     1       2.045   3.143  19.087  0.00  0.00    +0.000 A 
ATOM     25 CL   UNL     1       2.099   1.535  18.389  0.00  0.00    +0.000 Cl
ATOM     26  C   UNL     1       3.150   3.987  18.976  0.00  0.00    +0.000 A 
ATOM     27  C   UNL     1       3.115   5.273  19.523  0.00  0.00    +0.000 A 
ATOM     28 CL   UNL     1       4.551   6.281  19.343  0.00  0.00    +0.000 Cl
ENDBRANCH  20  21
ENDBRANCH  18  20
ENDBRANCH  10  16
BRANCH   1  30
ATOM     29  C   UNL     1      -5.187  12.435  19.241  0.00  0.00    +0.000 C 
ATOM     30  O   UNL     1      -3.869  12.242  19.605  0.00  0.00    +0.000 OA
ENDBRANCH   1  30
TORSDOF 5
ENDMDL
MODEL 3
REMARK VINA RESULT:      -7.2      3.932      9.363
REMARK  Name = 
REMARK  7 active torsions:
REMARK  status: ('A' for Active; 'I' for Inactive)
REMARK    1  A    between atoms: C_1  and  O_2
REMARK    2  A    between atoms: O_2  and  C_3
REMARK    3  A    between atoms: C_11  and  N_12
REMARK    4  A    between atoms: C_17  and  N_18
REMARK    5  A    between atoms: N_18  and  C_19
REMARK    6  A    between atoms: C_20  and  C_22
REMARK    7  A    between atoms: C_22  and  C_23
REMARK                            x       y       z     vdW  Elec       q    Type
REMARK                         _______ _______ _______ _____ _____    ______ ____
ROOT
ATOM      1  C   UNL     1       7.203   4.657  17.420  0.00  0.00    +0.000 A 
ATOM      2  C   UNL     1       7.441   4.638  16.034  0.00  0.00    +0.000 A 
ATOM      3  C   UNL     1       6.399   4.858  15.132  0.00  0.00    +0.000 A 
ATOM      4  C   UNL     1       5.114   5.109  15.596  0.00  0.00    +0.000 A 
ATOM      5  C   UNL     1       4.843   5.136  16.969  0.00  0.00    +0.000 A 
ATOM      6  C   UNL     1       5.895   4.899  17.901  0.00  0.00    +0.000 A 
ATOM      7  C   UNL     1       5.625   4.872  19.394  0.00  0.00    +0.000 C 
ATOM      8  C   UNL     1       4.190   5.249  19.794  0.00  0.00    +0.000 C 
ATOM      9  C   UNL     1       3.135   4.727  18.779  0.00  0.00    +0.000 C 
ATOM     10  C   UNL     1       3.440   5.498  17.436  0.00  0.00    +0.000 C 
ENDROOT
BRANCH   9  11
ATOM     11  N   UNL     1       3.177   3.231  18.616  0.00  0.00    +0.000 NA
ATOM     12  C   UNL     1       2.096   2.703  17.752  0.00  0.00    +0.000 C 
ATOM     13  C   UNL     1       0.907   2.490  18.666  0.00  0.00    +0.000 C 
ATOM     14  C   UNL     1       1.584   1.798  19.815  0.00  0.00    +0.000 C 
ATOM     15  C   UNL     1       2.943   2.508  19.900  0.00  0.00    +0.000 C 
ENDBRANCH   9  11
BRANCH  10  16
ATOM     16  N   UNL     1       3.265   6.975  17.580  0.00  0.00    +0.000 N 
ATOM     17  C   UNL     1       4.380   7.912  17.370  0.00  0.00    +0.000 C 
ATOM     18  C   UNL     1       2.021   7.497  17.892  0.00  0.00    +0.000 C 
ATOM     19  O   UNL     1       1.063   6.750  18.030  0.00  0.00    +0.000 OA
BRANCH  18  20
ATOM     20  C   UNL     1       1.773   8.989  18.124  0.00  0.00    +0.000 C 
BRANCH  20  21
ATOM     21  C   UNL     1       1.075   9.381  19.417  0.00  0.00    +0.000 A 
ATOM     22  C   UNL     1       1.553   9.013  20.695  0.00  0.00    +0.000 A 
ATOM     23  C   UNL     1       0.874   9.417  21.850  0.00  0.00    +0.000 A 
ATOM     24  C   UNL     1      -0.291  10.180  21.753  0.00  0.00    +0.000 A 
ATOM     25 CL   UNL     1      -1.138  10.685  23.203  0.00  0.00    +0.000 Cl
ATOM     26  C   UNL     1      -0.782  10.542  20.499  0.00  0.00    +0.000 A 
ATOM     27  C   UNL     1      -0.110  10.151  19.337  0.00  0.00    +0.000 A 
ATOM     28 CL   UNL     1      -0.792  10.645  17.788  0.00  0.00    +0.000 Cl
ENDBRANCH  20  21
ENDBRANCH  18  20
ENDBRANCH  10  16
BRANCH   1  30
ATOM     29  C   UNL     1       8.561   5.314  19.338  0.00  0.00    +0.000 C 
ATOM     30  O   UNL     1       8.212   4.452  18.317  0.00  0.00    +0.000 OA
ENDBRANCH   1  30
TORSDOF 5
ENDMDL
MODEL 4
REMARK VINA RESULT:      -7.2      4.236      6.737
REMARK  Name = 
REMARK  7 active torsions:
REMARK  status: ('A' for Active; 'I' for Inactive)
REMARK    1  A    between atoms: C_1  and  O_2
REMARK    2  A    between atoms: O_2  and  C_3
REMARK    3  A    between atoms: C_11  and  N_12
REMARK    4  A    between atoms: C_17  and  N_18
REMARK    5  A    between atoms: N_18  and  C_19
REMARK    6  A    between atoms: C_20  and  C_22
REMARK    7  A    between atoms: C_22  and  C_23
REMARK                            x       y       z     vdW  Elec       q    Type
REMARK                         _______ _______ _______ _____ _____    ______ ____
ROOT
ATOM      1  C   UNL     1      -2.753  10.803  17.342  0.00  0.00    +0.000 A 
ATOM      2  C   UNL     1      -4.022  11.293  17.702  0.00  0.00    +0.000 A 
ATOM      3  C   UNL     1      -4.191  12.029  18.876  0.00  0.00    +0.000 A 
ATOM      4  C   UNL     1      -3.102  12.296  19.698  0.00  0.00    +0.000 A 
ATOM      5  C   UNL     1      -1.827  11.823  19.368  0.00  0.00    +0.000 A 
ATOM      6  C   UNL     1      -1.642  11.058  18.179  0.00  0.00    +0.000 A 
ATOM      7  C   UNL     1      -0.283  10.490  17.818  0.00  0.00    +0.000 C 
ATOM      8  C   UNL     1       0.861  10.921  18.750  0.00  0.00    +0.000 C 
ATOM      9  C   UNL     1       0.408  11.035  20.233  0.00  0.00    +0.000 C 
ATOM     10  C   UNL     1      -0.648  12.209  20.250  0.00  0.00    +0.000 C 
ENDROOT
BRANCH   9  11
ATOM     11  N   UNL     1      -0.148   9.743  20.770  0.00  0.00    +0.000 NA
ATOM     12  C   UNL     1      -0.386   9.769  22.232  0.00  0.00    +0.000 C 
ATOM     13  C   UNL     1       0.931   9.377  22.870  0.00  0.00    +0.000 C 
ATOM     14  C   UNL     1       1.288   8.191  22.019  0.00  0.00    +0.000 C 
ATOM     15  C   UNL     1       0.806   8.605  20.621  0.00  0.00    +0.000 C 
ENDBRANCH   9  11
BRANCH  10  16
ATOM     16  N   UNL     1      -0.049  13.514  19.839  0.00  0.00    +0.000 N 
ATOM     17  C   UNL     1      -0.421  14.176  18.579  0.00  0.00    +0.000 C 
ATOM     18  C   UNL     1       0.864  14.147  20.666  0.00  0.00    +0.000 C 
ATOM     19  O   UNL     1       1.163  13.647  21.742  0.00  0.00    +0.000 OA
BRANCH  18  20
ATOM     20  C   UNL     1       1.575  15.449  20.289  0.00  0.00    +0.000 C 
BRANCH  20  21
ATOM     21  C   UNL     1       2.928  15.325  19.607  0.00  0.00    +0.000 A 
ATOM     22  C   UNL     1       3.082  15.228  18.206  0.00  0.00    +0.000 A 
ATOM     23  C   UNL     1       4.356  15.132  17.636  0.00  0.00    +0.000 A 
ATOM     24  C   UNL     1       5.492  15.120  18.448  0.00  0.00    +0.000 A 
ATOM     25 CL   UNL     1       7.087  14.999  17.729  0.00  0.00    +0.000 Cl
ATOM     26  C   UNL     1       5.357  15.203  19.833  0.00  0.00    +0.000 A 
ATOM     27  C   UNL     1       4.091  15.307  20.416  0.00  0.00    +0.000 A 
ATOM     28 CL   UNL     1       4.000  15.407  22.174  0.00  0.00    +0.000 Cl
ENDBRANCH  20  21
ENDBRANCH  18  20
ENDBRANCH  10  16
BRANCH   1  30
ATOM     29  C   UNL     1      -3.113  10.401  14.962  0.00  0.00    +0.000 C 
ATOM     30  O   UNL     1      -2.569  10.088  16.194  0.00  0.00    +0.000 OA
ENDBRANCH   1  30
TORSDOF 5
ENDMDL
MODEL 5
REMARK VINA RESULT:      -7.1      0.968      1.069
REMARK  Name = 
REMARK  7 active torsions:
REMARK  status: ('A' for Active; 'I' for Inactive)
REMARK    1  A    between atoms: C_1  and  O_2
REMARK    2  A    between atoms: O_2  and  C_3
REMARK    3  A    between atoms: C_11  and  N_12
REMARK    4  A    between atoms: C_17  and  N_18
REMARK    5  A    between atoms: N_18  and  C_19
REMARK    6  A    between atoms: C_20  and  C_22
REMARK    7  A    between atoms: C_22  and  C_23
REMARK                            x       y       z     vdW  Elec       q    Type
REMARK                         _______ _______ _______ _____ _____    ______ ____
ROOT
ATOM      1  C   UNL     1      -3.185  11.318  18.676  0.00  0.00    +0.000 A 
ATOM      2  C   UNL     1      -3.413  10.693  17.436  0.00  0.00    +0.000 A 
ATOM      3  C   UNL     1      -2.355  10.135  16.719  0.00  0.00    +0.000 A 
ATOM      4  C   UNL     1      -1.062  10.181  17.228  0.00  0.00    +0.000 A 
ATOM      5  C   UNL     1      -0.802  10.794  18.458  0.00  0.00    +0.000 A 
ATOM      6  C   UNL     1      -1.871  11.382  19.196  0.00  0.00    +0.000 A 
ATOM      7  C   UNL     1      -1.615  12.097  20.509  0.00  0.00    +0.000 C 
ATOM      8  C   UNL     1      -0.167  12.009  21.016  0.00  0.00    +0.000 C 
ATOM      9  C   UNL     1       0.871  12.060  19.860  0.00  0.00    +0.000 C 
ATOM     10  C   UNL     1       0.612  10.748  19.019  0.00  0.00    +0.000 C 
ENDROOT
BRANCH   9  11
ATOM     11  N   UNL     1       0.759  13.314  19.035  0.00  0.00    +0.000 NA
ATOM     12  C   UNL     1       1.848  13.461  18.041  0.00  0.00    +0.000 C 
ATOM     13  C   UNL     1       2.985  14.141  18.776  0.00  0.00    +0.000 C 
ATOM     14  C   UNL     1       2.226  15.233  19.476  0.00  0.00    +0.000 C 
ATOM     15  C   UNL     1       0.903  14.552  19.854  0.00  0.00    +0.000 C 
ENDBRANCH   9  11
BRANCH  10  16
ATOM     16  N   UNL     1       0.855   9.509  19.816  0.00  0.00    +0.000 N 
ATOM     17  C   UNL     1       0.249   9.308  21.142  0.00  0.00    +0.000 C 
ATOM     18  C   UNL     1       1.649   8.498  19.299  0.00  0.00    +0.000 C 
ATOM     19  O   UNL     1       2.132   8.613  18.181  0.00  0.00    +0.000 OA
BRANCH  18  20
ATOM     20  C   UNL     1       2.002   7.229  20.077  0.00  0.00    +0.000 C 
BRANCH  20  21
ATOM     21  C   UNL     1       2.634   6.090  19.292  0.00  0.00    +0.000 A 
ATOM     22  C   UNL     1       3.711   6.273  18.396  0.00  0.00    +0.000 A 
ATOM     23  C   UNL     1       4.260   5.182  17.714  0.00  0.00    +0.000 A 
ATOM     24  C   UNL     1       3.742   3.899  17.902  0.00  0.00    +0.000 A 
ATOM     25 CL   UNL     1       4.433   2.534  17.045  0.00  0.00    +0.000 Cl
ATOM     26  C   UNL     1       2.672   3.703  18.775  0.00  0.00    +0.000 A 
ATOM     27  C   UNL     1       2.119   4.783  19.469  0.00  0.00    +0.000 A 
ATOM     28 CL   UNL     1       0.767   4.457  20.553  0.00  0.00    +0.000 Cl
ENDBRANCH  20  21
ENDBRANCH  18  20
ENDBRANCH  10  16
BRANCH   1  30
ATOM     29  C   UNL     1      -5.530  11.914  18.991  0.00  0.00    +0.000 C 
ATOM     30  O   UNL     1      -4.210  11.863  19.396  0.00  0.00    +0.000 OA
ENDBRANCH   1  30
TORSDOF 5
ENDMDL
MODEL 6
REMARK VINA RESULT:      -7.1      1.176      1.376
REMARK  Name = 
REMARK  7 active torsions:
REMARK  status: ('A' for Active; 'I' for Inactive)
REMARK    1  A    between atoms: C_1  and  O_2
REMARK    2  A    between atoms: O_2  and  C_3
REMARK    3  A    between atoms: C_11  and  N_12
REMARK    4  A    between atoms: C_17  and  N_18
REMARK    5  A    between atoms: N_18  and  C_19
REMARK    6  A    between atoms: C_20  and  C_22
REMARK    7  A    between atoms: C_22  and  C_23
REMARK                            x       y       z     vdW  Elec       q    Type
REMARK                         _______ _______ _______ _____ _____    ______ ____
ROOT
ATOM      1  C   UNL     1      -3.978  11.408  18.470  0.00  0.00    +0.000 A 
ATOM      2  C   UNL     1      -4.110  10.856  17.182  0.00  0.00    +0.000 A 
ATOM      3  C   UNL     1      -2.980  10.491  16.449  0.00  0.00    +0.000 A 
ATOM      4  C   UNL     1      -1.711  10.659  16.988  0.00  0.00    +0.000 A 
ATOM      5  C   UNL     1      -1.546  11.204  18.266  0.00  0.00    +0.000 A 
ATOM      6  C   UNL     1      -2.690  11.594  19.021  0.00  0.00    +0.000 A 
ATOM      7  C   UNL     1      -2.542  12.234  20.389  0.00  0.00    +0.000 C 
ATOM      8  C   UNL     1      -1.102  12.288  20.921  0.00  0.00    +0.000 C 
ATOM      9  C   UNL     1      -0.064  12.557  19.795  0.00  0.00    +0.000 C 
ATOM     10  C   UNL     1      -0.144  11.292  18.853  0.00  0.00    +0.000 C 
ENDROOT
BRANCH   9  11
ATOM     11  N   UNL     1      -0.322  13.847  19.063  0.00  0.00    +0.000 NA
ATOM     12  C   UNL     1       0.798  14.259  18.186  0.00  0.00    +0.000 C 
ATOM     13  C   UNL     1       1.745  15.043  19.071  0.00  0.00    +0.000 C 
ATOM     14  C   UNL     1       0.762  15.929  19.782  0.00  0.00    +0.000 C 
ATOM     15  C   UNL     1      -0.453  15.012  19.986  0.00  0.00    +0.000 C 
ENDBRANCH   9  11
BRANCH  10  16
ATOM     16  N   UNL     1       0.244  10.035  19.561  0.00  0.00    +0.000 N 
ATOM     17  C   UNL     1      -0.549   9.498  20.678  0.00  0.00    +0.000 C 
ATOM     18  C   UNL     1       1.362   9.327  19.152  0.00  0.00    +0.000 C 
ATOM     19  O   UNL     1       2.019   9.722  18.199  0.00  0.00    +0.000 OA
BRANCH  18  20
ATOM     20  C   UNL     1       1.866   8.071  19.865  0.00  0.00    +0.000 C 
BRANCH  20  21
ATOM     21  C   UNL     1       2.562   7.023  19.011  0.00  0.00    +0.000 A 
ATOM     22  C   UNL     1       3.394   7.346  17.916  0.00  0.00    +0.000 A 
ATOM     23  C   UNL     1       4.019   6.337  17.177  0.00  0.00    +0.000 A 
ATOM     24  C   UNL     1       3.820   4.995  17.506  0.00  0.00    +0.000 A 
ATOM     25 CL   UNL     1       4.606   3.733  16.577  0.00  0.00    +0.000 Cl
ATOM     26  C   UNL     1       2.993   4.658  18.577  0.00  0.00    +0.000 A 
ATOM     27  C   UNL     1       2.368   5.657  19.329  0.00  0.00    +0.000 A 
ATOM     28 CL   UNL     1       1.336   5.153  20.668  0.00  0.00    +0.000 Cl
ENDBRANCH  20  21
ENDBRANCH  18  20
ENDBRANCH  10  16
BRANCH   1  30
ATOM     29  C   UNL     1      -5.953  12.779  18.886  0.00  0.00    +0.000 C 
ATOM     30  O   UNL     1      -5.073  11.763  19.204  0.00  0.00    +0.000 OA
ENDBRANCH   1  30
TORSDOF 5
ENDMDL
MODEL 7
REMARK VINA RESULT:      -6.9      4.247      8.578
REMARK  Name = 
REMARK  7 active torsions:
REMARK  status: ('A' for Active; 'I' for Inactive)
REMARK    1  A    between atoms: C_1  and  O_2
REMARK    2  A    between atoms: O_2  and  C_3
REMARK    3  A    between atoms: C_11  and  N_12
REMARK    4  A    between atoms: C_17  and  N_18
REMARK    5  A    between atoms: N_18  and  C_19
REMARK    6  A    between atoms: C_20  and  C_22
REMARK    7  A    between atoms: C_22  and  C_23
REMARK                            x       y       z     vdW  Elec       q    Type
REMARK                         _______ _______ _______ _____ _____    ______ ____
ROOT
ATOM      1  C   UNL     1       0.289   9.703  21.023  0.00  0.00    +0.000 A 
ATOM      2  C   UNL     1       0.063   9.448  22.389  0.00  0.00    +0.000 A 
ATOM      3  C   UNL     1      -0.702  10.327  23.156  0.00  0.00    +0.000 A 
ATOM      4  C   UNL     1      -1.259  11.461  22.576  0.00  0.00    +0.000 A 
ATOM      5  C   UNL     1      -1.054  11.742  21.221  0.00  0.00    +0.000 A 
ATOM      6  C   UNL     1      -0.263  10.861  20.427  0.00  0.00    +0.000 A 
ATOM      7  C   UNL     1       0.020  11.163  18.968  0.00  0.00    +0.000 C 
ATOM      8  C   UNL     1      -0.717  12.391  18.412  0.00  0.00    +0.000 C 
ATOM      9  C   UNL     1      -0.838  13.535  19.459  0.00  0.00    +0.000 C 
ATOM     10  C   UNL     1      -1.751  12.947  20.605  0.00  0.00    +0.000 C 
ENDROOT
BRANCH   9  11
ATOM     11  N   UNL     1       0.501  14.004  19.962  0.00  0.00    +0.000 NA
ATOM     12  C   UNL     1       0.410  15.162  20.881  0.00  0.00    +0.000 C 
ATOM     13  C   UNL     1       0.403  16.390  19.994  0.00  0.00    +0.000 C 
ATOM     14  C   UNL     1       1.529  16.044  19.062  0.00  0.00    +0.000 C 
ATOM     15  C   UNL     1       1.371  14.528  18.870  0.00  0.00    +0.000 C 
ENDBRANCH   9  11
BRANCH  10  16
ATOM     16  N   UNL     1      -3.122  12.609  20.118  0.00  0.00    +0.000 N 
ATOM     17  C   UNL     1      -3.337  11.779  18.922  0.00  0.00    +0.000 C 
ATOM     18  C   UNL     1      -4.233  13.056  20.813  0.00  0.00    +0.000 C 
ATOM     19  O   UNL     1      -4.091  13.711  21.836  0.00  0.00    +0.000 OA
BRANCH  18  20
ATOM     20  C   UNL     1      -5.669  12.813  20.343  0.00  0.00    +0.000 C 
BRANCH  20  21
ATOM     21  C   UNL     1      -6.190  13.697  19.222  0.00  0.00    +0.000 A 
ATOM     22  C   UNL     1      -6.209  15.108  19.295  0.00  0.00    +0.000 A 
ATOM     23  C   UNL     1      -6.687  15.869  18.223  0.00  0.00    +0.000 A 
ATOM     24  C   UNL     1      -7.161  15.242  17.069  0.00  0.00    +0.000 A 
ATOM     25 CL   UNL     1      -7.759  16.199  15.727  0.00  0.00    +0.000 Cl
ATOM     26  C   UNL     1      -7.159  13.850  16.984  0.00  0.00    +0.000 A 
ATOM     27  C   UNL     1      -6.678  13.077  18.046  0.00  0.00    +0.000 A 
ATOM     28 CL   UNL     1      -6.708  11.323  17.866  0.00  0.00    +0.000 Cl
ENDBRANCH  20  21
ENDBRANCH  18  20
ENDBRANCH  10  16
BRANCH   1  30
ATOM     29  C   UNL     1       1.566   7.651  20.685  0.00  0.00    +0.000 C 
ATOM     30  O   UNL     1       1.029   8.850  20.256  0.00  0.00    +0.000 OA
ENDBRANCH   1  30
TORSDOF 5
ENDMDL
MODEL 8
REMARK VINA RESULT:      -6.9      3.685      9.030
REMARK  Name = 
REMARK  7 active torsions:
REMARK  status: ('A' for Active; 'I' for Inactive)
REMARK    1  A    between atoms: C_1  and  O_2
REMARK    2  A    between atoms: O_2  and  C_3
REMARK    3  A    between atoms: C_11  and  N_12
REMARK    4  A    between atoms: C_17  and  N_18
REMARK    5  A    between atoms: N_18  and  C_19
REMARK    6  A    between atoms: C_20  and  C_22
REMARK    7  A    between atoms: C_22  and  C_23
REMARK                            x       y       z     vdW  Elec       q    Type
REMARK                         _______ _______ _______ _____ _____    ______ ____
ROOT
ATOM      1  C   UNL     1       6.229   5.675  18.654  0.00  0.00    +0.000 A 
ATOM      2  C   UNL     1       6.744   6.293  17.499  0.00  0.00    +0.000 A 
ATOM      3  C   UNL     1       5.887   6.894  16.576  0.00  0.00    +0.000 A 
ATOM      4  C   UNL     1       4.515   6.899  16.794  0.00  0.00    +0.000 A 
ATOM      5  C   UNL     1       3.972   6.294  17.932  0.00  0.00    +0.000 A 
ATOM      6  C   UNL     1       4.833   5.664  18.877  0.00  0.00    +0.000 A 
ATOM      7  C   UNL     1       4.272   4.956  20.097  0.00  0.00    +0.000 C 
ATOM      8  C   UNL     1       2.753   5.101  20.281  0.00  0.00    +0.000 C 
ATOM      9  C   UNL     1       1.988   5.094  18.927  0.00  0.00    +0.000 C 
ATOM     10  C   UNL     1       2.472   6.395  18.176  0.00  0.00    +0.000 C 
ENDROOT
BRANCH   9  11
ATOM     11  N   UNL     1       2.227   3.838  18.133  0.00  0.00    +0.000 NA
ATOM     12  C   UNL     1       0.977   3.152  17.730  0.00  0.00    +0.000 C 
ATOM     13  C   UNL     1       0.610   2.253  18.892  0.00  0.00    +0.000 C 
ATOM     14  C   UNL     1       1.948   1.631  19.173  0.00  0.00    +0.000 C 
ATOM     15  C   UNL     1       2.929   2.786  18.924  0.00  0.00    +0.000 C 
ENDBRANCH   9  11
BRANCH  10  16
ATOM     16  N   UNL     1       2.111   7.642  18.914  0.00  0.00    +0.000 N 
ATOM     17  C   UNL     1       1.938   7.656  20.375  0.00  0.00    +0.000 C 
ATOM     18  C   UNL     1       1.955   8.834  18.225  0.00  0.00    +0.000 C 
ATOM     19  O   UNL     1       2.135   8.868  17.016  0.00  0.00    +0.000 OA
BRANCH  18  20
ATOM     20  C   UNL     1       1.519  10.139  18.895  0.00  0.00    +0.000 C 
BRANCH  20  21
ATOM     21  C   UNL     1       0.059  10.535  18.751  0.00  0.00    +0.000 A 
ATOM     22  C   UNL     1      -0.820   9.927  17.827  0.00  0.00    +0.000 A 
ATOM     23  C   UNL     1      -2.159  10.326  17.752  0.00  0.00    +0.000 A 
ATOM     24  C   UNL     1      -2.641  11.339  18.583  0.00  0.00    +0.000 A 
ATOM     25 CL   UNL     1      -4.320  11.836  18.485  0.00  0.00    +0.000 Cl
ATOM     26  C   UNL     1      -1.784  11.958  19.492  0.00  0.00    +0.000 A 
ATOM     27  C   UNL     1      -0.445  11.564  19.583  0.00  0.00    +0.000 A 
ATOM     28 CL   UNL     1       0.577  12.394  20.757  0.00  0.00    +0.000 Cl
ENDBRANCH  20  21
ENDBRANCH  18  20
ENDBRANCH  10  16
BRANCH   1  30
ATOM     29  C   UNL     1       8.309   5.545  19.923  0.00  0.00    +0.000 C 
ATOM     30  O   UNL     1       7.053   5.089  19.572  0.00  0.00    +0.000 OA
ENDBRANCH   1  30
TORSDOF 5
ENDMDL
MODEL 9
REMARK VINA RESULT:      -6.8      4.776      8.072
REMARK  Name = 
REMARK  7 active torsions:
REMARK  status: ('A' for Active; 'I' for Inactive)
REMARK    1  A    between atoms: C_1  and  O_2
REMARK    2  A    between atoms: O_2  and  C_3
REMARK    3  A    between atoms: C_11  and  N_12
REMARK    4  A    between atoms: C_17  and  N_18
REMARK    5  A    between atoms: N_18  and  C_19
REMARK    6  A    between atoms: C_20  and  C_22
REMARK    7  A    between atoms: C_22  and  C_23
REMARK                            x       y       z     vdW  Elec       q    Type
REMARK                         _______ _______ _______ _____ _____    ______ ____
ROOT
ATOM      1  C   UNL     1      -4.806  12.807  22.055  0.00  0.00    +0.000 A 
ATOM      2  C   UNL     1      -5.204  12.883  23.402  0.00  0.00    +0.000 A 
ATOM      3  C   UNL     1      -4.252  12.978  24.418  0.00  0.00    +0.000 A 
ATOM      4  C   UNL     1      -2.898  13.010  24.108  0.00  0.00    +0.000 A 
ATOM      5  C   UNL     1      -2.469  12.937  22.778  0.00  0.00    +0.000 A 
ATOM      6  C   UNL     1      -3.429  12.826  21.731  0.00  0.00    +0.000 A 
ATOM      7  C   UNL     1      -2.996  12.696  20.283  0.00  0.00    +0.000 C 
ATOM      8  C   UNL     1      -1.483  12.832  20.051  0.00  0.00    +0.000 C 
ATOM      9  C   UNL     1      -0.647  12.197  21.198  0.00  0.00    +0.000 C 
ATOM     10  C   UNL     1      -0.982  13.061  22.476  0.00  0.00    +0.000 C 
ENDROOT
BRANCH   9  11
ATOM     11  N   UNL     1      -0.943  10.733  21.389  0.00  0.00    +0.000 NA
ATOM     12  C   UNL     1      -0.305  10.158  22.596  0.00  0.00    +0.000 C 
ATOM     13  C   UNL     1       1.085   9.740  22.166  0.00  0.00    +0.000 C 
ATOM     14  C   UNL     1       0.759   9.039  20.878  0.00  0.00    +0.000 C 
ATOM     15  C   UNL     1      -0.380   9.889  20.295  0.00  0.00    +0.000 C 
ENDBRANCH   9  11
BRANCH  10  16
ATOM     16  N   UNL     1      -0.562  14.486  22.322  0.00  0.00    +0.000 N 
ATOM     17  C   UNL     1      -1.512  15.597  22.487  0.00  0.00    +0.000 C 
ATOM     18  C   UNL     1       0.760  14.791  22.041  0.00  0.00    +0.000 C 
ATOM     19  O   UNL     1       1.585  13.895  21.941  0.00  0.00    +0.000 OA
BRANCH  18  20
ATOM     20  C   UNL     1       1.257  16.218  21.800  0.00  0.00    +0.000 C 
BRANCH  20  21
ATOM     21  C   UNL     1       1.112  16.772  20.391  0.00  0.00    +0.000 A 
ATOM     22  C   UNL     1      -0.036  17.466  19.948  0.00  0.00    +0.000 A 
ATOM     23  C   UNL     1      -0.104  17.965  18.643  0.00  0.00    +0.000 A 
ATOM     24  C   UNL     1       0.959  17.774  17.758  0.00  0.00    +0.000 A 
ATOM     25 CL   UNL     1       0.869  18.402  16.123  0.00  0.00    +0.000 Cl
ATOM     26  C   UNL     1       2.094  17.081  18.177  0.00  0.00    +0.000 A 
ATOM     27  C   UNL     1       2.179  16.583  19.480  0.00  0.00    +0.000 A 
ATOM     28 CL   UNL     1       3.646  15.717  19.935  0.00  0.00    +0.000 Cl
ENDBRANCH  20  21
ENDBRANCH  18  20
ENDBRANCH  10  16
BRANCH   1  30
ATOM     29  C   UNL     1      -6.829  11.893  21.042  0.00  0.00    +0.000 C 
ATOM     30  O   UNL     1      -5.724  12.722  21.048  0.00  0.00    +0.000 OA
ENDBRANCH   1  30
TORSDOF 5
ENDMDL
