MODEL 1
REMARK VINA RESULT:      -6.8      0.000      0.000
REMARK  Name = 
REMARK  12 active torsions:
REMARK  status: ('A' for Active; 'I' for Inactive)
REMARK    1  A    between atoms: C_1  and  C_2
REMARK    2  A    between atoms: C_2  and  C_3
REMARK    3  A    between atoms: C_2  and  C_4
REMARK    4  A    between atoms: C_2  and  O_5
REMARK    5  A    between atoms: O_5  and  C_6
REMARK    6  A    between atoms: N_8  and  C_9
REMARK    7  A    between atoms: C_9  and  C_10
REMARK    8  A    between atoms: C_10  and  O_11
REMARK    9  A    between atoms: O_11  and  C_12
REMARK   10  A    between atoms: C_12  and  C_14
REMARK   11  A    between atoms: C_15  and  C_16
REMARK   12  A    between atoms: C_16  and  C_18
REMARK                            x       y       z     vdW  Elec       q    Type
REMARK                         _______ _______ _______ _____ _____    ______ ____
ROOT
ATOM      1  C   UNL     1       5.487   6.086  16.595  0.00  0.00    +0.000 C 
ENDROOT
BRANCH   1   2
ATOM      2  C   UNL     1       5.151   4.731  17.225  0.00  0.00    +0.000 C 
BRANCH   2   5
ATOM      3  C   UNL     1       4.236   4.040  19.393  0.00  0.00    +0.000 C 
ATOM      4  O   UNL     1       5.166   3.284  19.621  0.00  0.00    +0.000 OA
ATOM      5  N   UNL     1       4.149   4.808  18.270  0.00  0.00    +0.000 N 
ATOM      6  H   UNL     1       3.346   5.415  18.178  0.00  0.00    +0.000 HD
BRANCH   3   7
ATOM      7  O   UNL     1       3.156   4.245  20.192  0.00  0.00    +0.000 OA
BRANCH   7   9
ATOM      8  C   UNL     1       2.064   2.545  21.601  0.00  0.00    +0.000 C 
ATOM      9  C   UNL     1       2.108   3.234  20.231  0.00  0.00    +0.000 C 
ATOM     10  C   UNL     1       2.258   2.229  19.080  0.00  0.00    +0.000 C 
ATOM     11  C   UNL     1       0.773   3.977  20.037  0.00  0.00    +0.000 C 
ENDBRANCH   7   9
ENDBRANCH   3   7
ENDBRANCH   2   5
ENDBRANCH   1   2
BRANCH   1  12
ATOM     12  O   UNL     1       5.584   5.980  15.159  0.00  0.00    +0.000 OA
BRANCH  12  13
ATOM     13  C   UNL     1       6.373   4.977  14.707  0.00  0.00    +0.000 C 
ATOM     14  O   UNL     1       7.561   4.830  14.943  0.00  0.00    +0.000 OA
BRANCH  13  15
ATOM     15  C   UNL     1       5.575   4.078  13.854  0.00  0.00    +0.000 C 
ATOM     16  C   UNL     1       6.063   3.732  12.653  0.00  0.00    +0.000 C 
BRANCH  16  17
ATOM     17  C   UNL     1       5.293   2.832  11.764  0.00  0.00    +0.000 C 
ATOM     18  O   UNL     1       5.752   1.795  11.306  0.00  0.00    +0.000 OA
BRANCH  17  19
ATOM     19  C   UNL     1       3.918   3.305  11.431  0.00  0.00    +0.000 C 
ATOM     20  C   UNL     1       3.674   3.995  10.107  0.00  0.00    +0.000 C 
ATOM     21  C   UNL     1       3.103   2.629  10.352  0.00  0.00    +0.000 C 
ENDBRANCH  17  19
ENDBRANCH  16  17
ENDBRANCH  13  15
ENDBRANCH  12  13
ENDBRANCH   1  12
TORSDOF 9
ENDMDL
MODEL 2
REMARK VINA RESULT:      -6.6      1.051      1.167
REMARK  Name = 
REMARK  12 active torsions:
REMARK  status: ('A' for Active; 'I' for Inactive)
REMARK    1  A    between atoms: C_1  and  C_2
REMARK    2  A    between atoms: C_2  and  C_3
REMARK    3  A    between atoms: C_2  and  C_4
REMARK    4  A    between atoms: C_2  and  O_5
REMARK    5  A    between atoms: O_5  and  C_6
REMARK    6  A    between atoms: N_8  and  C_9
REMARK    7  A    between atoms: C_9  and  C_10
REMARK    8  A    between atoms: C_10  and  O_11
REMARK    9  A    between atoms: O_11  and  C_12
REMARK   10  A    between atoms: C_12  and  C_14
REMARK   11  A    between atoms: C_15  and  C_16
REMARK   12  A    between atoms: C_16  and  C_18
REMARK                            x       y       z     vdW  Elec       q    Type
REMARK                         _______ _______ _______ _____ _____    ______ ____
ROOT
ATOM      1  C   UNL     1       6.334   5.780  16.436  0.00  0.00    +0.000 C 
ENDROOT
BRANCH   1   2
ATOM      2  C   UNL     1       4.812   5.613  16.486  0.00  0.00    +0.000 C 
BRANCH   2   5
ATOM      3  C   UNL     1       3.981   3.979  18.115  0.00  0.00    +0.000 C 
ATOM      4  O   UNL     1       4.129   3.041  17.350  0.00  0.00    +0.000 OA
ATOM      5  N   UNL     1       4.308   5.265  17.800  0.00  0.00    +0.000 N 
ATOM      6  H   UNL     1       4.163   5.972  18.507  0.00  0.00    +0.000 HD
BRANCH   3   7
ATOM      7  O   UNL     1       3.479   3.913  19.376  0.00  0.00    +0.000 OA
BRANCH   7   9
ATOM      8  C   UNL     1       1.767   2.402  20.299  0.00  0.00    +0.000 C 
ATOM      9  C   UNL     1       2.047   3.714  19.554  0.00  0.00    +0.000 C 
ATOM     10  C   UNL     1       1.302   3.793  18.215  0.00  0.00    +0.000 C 
ATOM     11  C   UNL     1       1.550   4.871  20.440  0.00  0.00    +0.000 C 
ENDBRANCH   7   9
ENDBRANCH   3   7
ENDBRANCH   2   5
ENDBRANCH   1   2
BRANCH   1  12
ATOM     12  O   UNL     1       6.958   4.643  15.804  0.00  0.00    +0.000 OA
BRANCH  12  13
ATOM     13  C   UNL     1       7.130   4.749  14.465  0.00  0.00    +0.000 C 
ATOM     14  O   UNL     1       7.859   5.541  13.891  0.00  0.00    +0.000 OA
BRANCH  13  15
ATOM     15  C   UNL     1       6.273   3.759  13.786  0.00  0.00    +0.000 C 
ATOM     16  C   UNL     1       5.979   3.947  12.491  0.00  0.00    +0.000 C 
BRANCH  16  17
ATOM     17  C   UNL     1       5.121   2.978  11.770  0.00  0.00    +0.000 C 
ATOM     18  O   UNL     1       5.485   1.844  11.492  0.00  0.00    +0.000 OA
BRANCH  17  19
ATOM     19  C   UNL     1       3.783   3.502  11.370  0.00  0.00    +0.000 C 
ATOM     20  C   UNL     1       3.564   3.958   9.944  0.00  0.00    +0.000 C 
ATOM     21  C   UNL     1       2.886   2.715  10.442  0.00  0.00    +0.000 C 
ENDBRANCH  17  19
ENDBRANCH  16  17
ENDBRANCH  13  15
ENDBRANCH  12  13
ENDBRANCH   1  12
TORSDOF 9
ENDMDL
MODEL 3
REMARK VINA RESULT:      -6.5      4.572      7.445
REMARK  Name = 
REMARK  12 active torsions:
REMARK  status: ('A' for Active; 'I' for Inactive)
REMARK    1  A    between atoms: C_1  and  C_2
REMARK    2  A    between atoms: C_2  and  C_3
REMARK    3  A    between atoms: C_2  and  C_4
REMARK    4  A    between atoms: C_2  and  O_5
REMARK    5  A    between atoms: O_5  and  C_6
REMARK    6  A    between atoms: N_8  and  C_9
REMARK    7  A    between atoms: C_9  and  C_10
REMARK    8  A    between atoms: C_10  and  O_11
REMARK    9  A    between atoms: O_11  and  C_12
REMARK   10  A    between atoms: C_12  and  C_14
REMARK   11  A    between atoms: C_15  and  C_16
REMARK   12  A    between atoms: C_16  and  C_18
REMARK                            x       y       z     vdW  Elec       q    Type
REMARK                         _______ _______ _______ _____ _____    ______ ____
ROOT
ATOM      1  C   UNL     1       6.986   5.931  16.438  0.00  0.00    +0.000 C 
ENDROOT
BRANCH   1   2
ATOM      2  C   UNL     1       5.614   5.249  16.432  0.00  0.00    +0.000 C 
BRANCH   2   5
ATOM      3  C   UNL     1       4.860   4.910  18.741  0.00  0.00    +0.000 C 
ATOM      4  O   UNL     1       5.644   3.996  18.934  0.00  0.00    +0.000 OA
ATOM      5  N   UNL     1       4.785   5.601  17.568  0.00  0.00    +0.000 N 
ATOM      6  H   UNL     1       4.112   6.353  17.509  0.00  0.00    +0.000 HD
BRANCH   3   7
ATOM      7  O   UNL     1       3.950   5.385  19.630  0.00  0.00    +0.000 OA
BRANCH   7   9
ATOM      8  C   UNL     1       2.827   3.364  20.479  0.00  0.00    +0.000 C 
ATOM      9  C   UNL     1       2.666   4.707  19.755  0.00  0.00    +0.000 C 
ATOM     10  C   UNL     1       1.981   4.553  18.390  0.00  0.00    +0.000 C 
ATOM     11  C   UNL     1       1.776   5.608  20.631  0.00  0.00    +0.000 C 
ENDBRANCH   7   9
ENDBRANCH   3   7
ENDBRANCH   2   5
ENDBRANCH   1   2
BRANCH   1  12
ATOM     12  O   UNL     1       6.892   7.279  16.943  0.00  0.00    +0.000 OA
BRANCH  12  13
ATOM     13  C   UNL     1       7.771   7.590  17.925  0.00  0.00    +0.000 C 
ATOM     14  O   UNL     1       8.163   6.842  18.806  0.00  0.00    +0.000 OA
BRANCH  13  15
ATOM     15  C   UNL     1       8.179   8.999  17.783  0.00  0.00    +0.000 C 
ATOM     16  C   UNL     1       8.899   9.561  18.766  0.00  0.00    +0.000 C 
BRANCH  16  17
ATOM     17  C   UNL     1       9.329  10.974  18.665  0.00  0.00    +0.000 C 
ATOM     18  O   UNL     1       8.899  11.743  17.817  0.00  0.00    +0.000 OA
BRANCH  17  19
ATOM     19  C   UNL     1      10.364  11.387  19.658  0.00  0.00    +0.000 C 
ATOM     20  C   UNL     1      11.794  11.569  19.202  0.00  0.00    +0.000 C 
ATOM     21  C   UNL     1      10.984  12.765  19.607  0.00  0.00    +0.000 C 
ENDBRANCH  17  19
ENDBRANCH  16  17
ENDBRANCH  13  15
ENDBRANCH  12  13
ENDBRANCH   1  12
TORSDOF 9
ENDMDL
MODEL 4
REMARK VINA RESULT:      -6.4      1.832      7.036
REMARK  Name = 
REMARK  12 active torsions:
REMARK  status: ('A' for Active; 'I' for Inactive)
REMARK    1  A    between atoms: C_1  and  C_2
REMARK    2  A    between atoms: C_2  and  C_3
REMARK    3  A    between atoms: C_2  and  C_4
REMARK    4  A    between atoms: C_2  and  O_5
REMARK    5  A    between atoms: O_5  and  C_6
REMARK    6  A    between atoms: N_8  and  C_9
REMARK    7  A    between atoms: C_9  and  C_10
REMARK    8  A    between atoms: C_10  and  O_11
REMARK    9  A    between atoms: O_11  and  C_12
REMARK   10  A    between atoms: C_12  and  C_14
REMARK   11  A    between atoms: C_15  and  C_16
REMARK   12  A    between atoms: C_16  and  C_18
REMARK                            x       y       z     vdW  Elec       q    Type
REMARK                         _______ _______ _______ _____ _____    ______ ____
ROOT
ATOM      1  C   UNL     1       5.015   6.263  17.055  0.00  0.00    +0.000 C 
ENDROOT
BRANCH   1   2
ATOM      2  C   UNL     1       5.268   6.395  15.550  0.00  0.00    +0.000 C 
BRANCH   2   5
ATOM      3  C   UNL     1       6.548   4.645  14.402  0.00  0.00    +0.000 C 
ATOM      4  O   UNL     1       7.612   5.217  14.573  0.00  0.00    +0.000 OA
ATOM      5  N   UNL     1       5.356   5.122  14.861  0.00  0.00    +0.000 N 
ATOM      6  H   UNL     1       4.530   4.568  14.683  0.00  0.00    +0.000 HD
BRANCH   3   7
ATOM      7  O   UNL     1       6.367   3.470  13.744  0.00  0.00    +0.000 OA
BRANCH   7   9
ATOM      8  C   UNL     1       7.162   4.572  11.689  0.00  0.00    +0.000 C 
ATOM      9  C   UNL     1       6.260   3.486  12.291  0.00  0.00    +0.000 C 
ATOM     10  C   UNL     1       4.800   3.628  11.840  0.00  0.00    +0.000 C 
ATOM     11  C   UNL     1       6.777   2.122  11.797  0.00  0.00    +0.000 C 
ENDBRANCH   7   9
ENDBRANCH   3   7
ENDBRANCH   2   5
ENDBRANCH   1   2
BRANCH   1  12
ATOM     12  O   UNL     1       6.235   5.948  17.760  0.00  0.00    +0.000 OA
BRANCH  12  13
ATOM     13  C   UNL     1       6.100   5.067  18.780  0.00  0.00    +0.000 C 
ATOM     14  O   UNL     1       6.705   5.092  19.839  0.00  0.00    +0.000 OA
BRANCH  13  15
ATOM     15  C   UNL     1       5.108   4.042  18.408  0.00  0.00    +0.000 C 
ATOM     16  C   UNL     1       4.412   3.440  19.384  0.00  0.00    +0.000 C 
BRANCH  16  17
ATOM     17  C   UNL     1       3.406   2.404  19.055  0.00  0.00    +0.000 C 
ATOM     18  O   UNL     1       3.606   1.515  18.239  0.00  0.00    +0.000 OA
BRANCH  17  19
ATOM     19  C   UNL     1       2.103   2.545  19.769  0.00  0.00    +0.000 C 
ATOM     20  C   UNL     1       1.250   3.767  19.513  0.00  0.00    +0.000 C 
ATOM     21  C   UNL     1       0.792   2.424  19.026  0.00  0.00    +0.000 C 
ENDBRANCH  17  19
ENDBRANCH  16  17
ENDBRANCH  13  15
ENDBRANCH  12  13
ENDBRANCH   1  12
TORSDOF 9
ENDMDL
MODEL 5
REMARK VINA RESULT:      -6.3      1.770      2.467
REMARK  Name = 
REMARK  12 active torsions:
REMARK  status: ('A' for Active; 'I' for Inactive)
REMARK    1  A    between atoms: C_1  and  C_2
REMARK    2  A    between atoms: C_2  and  C_3
REMARK    3  A    between atoms: C_2  and  C_4
REMARK    4  A    between atoms: C_2  and  O_5
REMARK    5  A    between atoms: O_5  and  C_6
REMARK    6  A    between atoms: N_8  and  C_9
REMARK    7  A    between atoms: C_9  and  C_10
REMARK    8  A    between atoms: C_10  and  O_11
REMARK    9  A    between atoms: O_11  and  C_12
REMARK   10  A    between atoms: C_12  and  C_14
REMARK   11  A    between atoms: C_15  and  C_16
REMARK   12  A    between atoms: C_16  and  C_18
REMARK                            x       y       z     vdW  Elec       q    Type
REMARK                         _______ _______ _______ _____ _____    ______ ____
ROOT
ATOM      1  C   UNL     1       6.681   7.004  17.296  0.00  0.00    +0.000 C 
ENDROOT
BRANCH   1   2
ATOM      2  C   UNL     1       5.149   6.989  17.267  0.00  0.00    +0.000 C 
BRANCH   2   5
ATOM      3  C   UNL     1       3.252   6.173  18.590  0.00  0.00    +0.000 C 
ATOM      4  O   UNL     1       2.487   7.004  18.129  0.00  0.00    +0.000 OA
ATOM      5  N   UNL     1       4.559   6.066  18.216  0.00  0.00    +0.000 N 
ATOM      6  H   UNL     1       5.109   5.334  18.644  0.00  0.00    +0.000 HD
BRANCH   3   7
ATOM      7  O   UNL     1       2.948   5.238  19.527  0.00  0.00    +0.000 OA
BRANCH   7   9
ATOM      8  C   UNL     1       1.608   4.196  17.742  0.00  0.00    +0.000 C 
ATOM      9  C   UNL     1       2.278   4.013  19.110  0.00  0.00    +0.000 C 
ATOM     10  C   UNL     1       1.292   3.525  20.180  0.00  0.00    +0.000 C 
ATOM     11  C   UNL     1       3.375   2.943  18.955  0.00  0.00    +0.000 C 
ENDBRANCH   7   9
ENDBRANCH   3   7
ENDBRANCH   2   5
ENDBRANCH   1   2
BRANCH   1  12
ATOM     12  O   UNL     1       7.227   6.264  16.184  0.00  0.00    +0.000 OA
BRANCH  12  13
ATOM     13  C   UNL     1       7.074   4.920  16.255  0.00  0.00    +0.000 C 
ATOM     14  O   UNL     1       7.321   4.216  17.220  0.00  0.00    +0.000 OA
BRANCH  13  15
ATOM     15  C   UNL     1       6.572   4.420  14.962  0.00  0.00    +0.000 C 
ATOM     16  C   UNL     1       7.303   4.645  13.860  0.00  0.00    +0.000 C 
BRANCH  16  17
ATOM     17  C   UNL     1       6.837   4.161  12.540  0.00  0.00    +0.000 C 
ATOM     18  O   UNL     1       7.313   4.547  11.482  0.00  0.00    +0.000 OA
BRANCH  17  19
ATOM     19  C   UNL     1       5.706   3.188  12.593  0.00  0.00    +0.000 C 
ATOM     20  C   UNL     1       4.572   3.319  11.602  0.00  0.00    +0.000 C 
ATOM     21  C   UNL     1       5.516   2.157  11.504  0.00  0.00    +0.000 C 
ENDBRANCH  17  19
ENDBRANCH  16  17
ENDBRANCH  13  15
ENDBRANCH  12  13
ENDBRANCH   1  12
TORSDOF 9
ENDMDL
MODEL 6
REMARK VINA RESULT:      -6.3      4.711      7.742
REMARK  Name = 
REMARK  12 active torsions:
REMARK  status: ('A' for Active; 'I' for Inactive)
REMARK    1  A    between atoms: C_1  and  C_2
REMARK    2  A    between atoms: C_2  and  C_3
REMARK    3  A    between atoms: C_2  and  C_4
REMARK    4  A    between atoms: C_2  and  O_5
REMARK    5  A    between atoms: O_5  and  C_6
REMARK    6  A    between atoms: N_8  and  C_9
REMARK    7  A    between atoms: C_9  and  C_10
REMARK    8  A    between atoms: C_10  and  O_11
REMARK    9  A    between atoms: O_11  and  C_12
REMARK   10  A    between atoms: C_12  and  C_14
REMARK   11  A    between atoms: C_15  and  C_16
REMARK   12  A    between atoms: C_16  and  C_18
REMARK                            x       y       z     vdW  Elec       q    Type
REMARK                         _______ _______ _______ _____ _____    ______ ____
ROOT
ATOM      1  C   UNL     1       7.583   5.994  19.105  0.00  0.00    +0.000 C 
ENDROOT
BRANCH   1   2
ATOM      2  C   UNL     1       7.354   4.807  18.164  0.00  0.00    +0.000 C 
BRANCH   2   5
ATOM      3  C   UNL     1       5.096   3.909  18.496  0.00  0.00    +0.000 C 
ATOM      4  O   UNL     1       5.389   3.381  19.556  0.00  0.00    +0.000 OA
ATOM      5  N   UNL     1       5.973   4.646  17.756  0.00  0.00    +0.000 N 
ATOM      6  H   UNL     1       5.631   5.056  16.897  0.00  0.00    +0.000 HD
BRANCH   3   7
ATOM      7  O   UNL     1       3.885   3.856  17.883  0.00  0.00    +0.000 OA
BRANCH   7   9
ATOM      8  C   UNL     1       1.488   4.395  17.710  0.00  0.00    +0.000 C 
ATOM      9  C   UNL     1       2.851   4.800  18.286  0.00  0.00    +0.000 C 
ATOM     10  C   UNL     1       3.234   6.240  17.916  0.00  0.00    +0.000 C 
ATOM     11  C   UNL     1       2.754   4.717  19.821  0.00  0.00    +0.000 C 
ENDBRANCH   7   9
ENDBRANCH   3   7
ENDBRANCH   2   5
ENDBRANCH   1   2
BRANCH   1  12
ATOM     12  O   UNL     1       8.325   7.042  18.446  0.00  0.00    +0.000 OA
BRANCH  12  13
ATOM     13  C   UNL     1       7.604   7.814  17.599  0.00  0.00    +0.000 C 
ATOM     14  O   UNL     1       6.820   7.418  16.752  0.00  0.00    +0.000 OA
BRANCH  13  15
ATOM     15  C   UNL     1       7.925   9.231  17.841  0.00  0.00    +0.000 C 
ATOM     16  C   UNL     1       8.959   9.526  18.644  0.00  0.00    +0.000 C 
BRANCH  16  17
ATOM     17  C   UNL     1       9.317  10.938  18.916  0.00  0.00    +0.000 C 
ATOM     18  O   UNL     1       9.125  11.841  18.113  0.00  0.00    +0.000 OA
BRANCH  17  19
ATOM     19  C   UNL     1       9.970  11.176  20.236  0.00  0.00    +0.000 C 
ATOM     20  C   UNL     1      11.278  11.934  20.286  0.00  0.00    +0.000 C 
ATOM     21  C   UNL     1      10.031  12.563  20.834  0.00  0.00    +0.000 C 
ENDBRANCH  17  19
ENDBRANCH  16  17
ENDBRANCH  13  15
ENDBRANCH  12  13
ENDBRANCH   1  12
TORSDOF 9
ENDMDL
MODEL 7
REMARK VINA RESULT:      -6.3      4.422      7.093
REMARK  Name = 
REMARK  12 active torsions:
REMARK  status: ('A' for Active; 'I' for Inactive)
REMARK    1  A    between atoms: C_1  and  C_2
REMARK    2  A    between atoms: C_2  and  C_3
REMARK    3  A    between atoms: C_2  and  C_4
REMARK    4  A    between atoms: C_2  and  O_5
REMARK    5  A    between atoms: O_5  and  C_6
REMARK    6  A    between atoms: N_8  and  C_9
REMARK    7  A    between atoms: C_9  and  C_10
REMARK    8  A    between atoms: C_10  and  O_11
REMARK    9  A    between atoms: O_11  and  C_12
REMARK   10  A    between atoms: C_12  and  C_14
REMARK   11  A    between atoms: C_15  and  C_16
REMARK   12  A    between atoms: C_16  and  C_18
REMARK                            x       y       z     vdW  Elec       q    Type
REMARK                         _______ _______ _______ _____ _____    ______ ____
ROOT
ATOM      1  C   UNL     1       6.549   5.526  18.961  0.00  0.00    +0.000 C 
ENDROOT
BRANCH   1   2
ATOM      2  C   UNL     1       6.021   4.212  18.375  0.00  0.00    +0.000 C 
BRANCH   2   5
ATOM      3  C   UNL     1       3.961   2.936  18.758  0.00  0.00    +0.000 C 
ATOM      4  O   UNL     1       3.673   2.917  17.573  0.00  0.00    +0.000 OA
ATOM      5  N   UNL     1       5.094   3.517  19.247  0.00  0.00    +0.000 N 
ATOM      6  H   UNL     1       5.253   3.468  20.244  0.00  0.00    +0.000 HD
BRANCH   3   7
ATOM      7  O   UNL     1       3.229   2.402  19.769  0.00  0.00    +0.000 OA
BRANCH   7   9
ATOM      8  C   UNL     1       2.133   4.590  20.047  0.00  0.00    +0.000 C 
ATOM      9  C   UNL     1       1.999   3.068  20.177  0.00  0.00    +0.000 C 
ATOM     10  C   UNL     1       1.575   2.640  21.589  0.00  0.00    +0.000 C 
ATOM     11  C   UNL     1       0.904   2.608  19.196  0.00  0.00    +0.000 C 
ENDBRANCH   7   9
ENDBRANCH   3   7
ENDBRANCH   2   5
ENDBRANCH   1   2
BRANCH   1  12
ATOM     12  O   UNL     1       6.179   6.648  18.133  0.00  0.00    +0.000 OA
BRANCH  12  13
ATOM     13  C   UNL     1       7.154   7.104  17.311  0.00  0.00    +0.000 C 
ATOM     14  O   UNL     1       7.729   6.461  16.448  0.00  0.00    +0.000 OA
BRANCH  13  15
ATOM     15  C   UNL     1       7.438   8.514  17.631  0.00  0.00    +0.000 C 
ATOM     16  C   UNL     1       8.585   8.811  18.259  0.00  0.00    +0.000 C 
BRANCH  16  17
ATOM     17  C   UNL     1       8.910  10.216  18.600  0.00  0.00    +0.000 C 
ATOM     18  O   UNL     1       8.568  11.166  17.910  0.00  0.00    +0.000 OA
BRANCH  17  19
ATOM     19  C   UNL     1       9.726  10.388  19.837  0.00  0.00    +0.000 C 
ATOM     20  C   UNL     1      10.367  11.728  20.119  0.00  0.00    +0.000 C 
ATOM     21  C   UNL     1       9.235  11.248  20.979  0.00  0.00    +0.000 C 
ENDBRANCH  17  19
ENDBRANCH  16  17
ENDBRANCH  13  15
ENDBRANCH  12  13
ENDBRANCH   1  12
TORSDOF 9
ENDMDL
MODEL 8
REMARK VINA RESULT:      -6.3      2.820      6.944
REMARK  Name = 
REMARK  12 active torsions:
REMARK  status: ('A' for Active; 'I' for Inactive)
REMARK    1  A    between atoms: C_1  and  C_2
REMARK    2  A    between atoms: C_2  and  C_3
REMARK    3  A    between atoms: C_2  and  C_4
REMARK    4  A    between atoms: C_2  and  O_5
REMARK    5  A    between atoms: O_5  and  C_6
REMARK    6  A    between atoms: N_8  and  C_9
REMARK    7  A    between atoms: C_9  and  C_10
REMARK    8  A    between atoms: C_10  and  O_11
REMARK    9  A    between atoms: O_11  and  C_12
REMARK   10  A    between atoms: C_12  and  C_14
REMARK   11  A    between atoms: C_15  and  C_16
REMARK   12  A    between atoms: C_16  and  C_18
REMARK                            x       y       z     vdW  Elec       q    Type
REMARK                         _______ _______ _______ _____ _____    ______ ____
ROOT
ATOM      1  C   UNL     1       5.499   3.342  15.485  0.00  0.00    +0.000 C 
ENDROOT
BRANCH   1   2
ATOM      2  C   UNL     1       5.997   4.312  14.410  0.00  0.00    +0.000 C 
BRANCH   2   5
ATOM      3  C   UNL     1       7.519   5.475  15.942  0.00  0.00    +0.000 C 
ATOM      4  O   UNL     1       7.950   4.435  16.411  0.00  0.00    +0.000 OA
ATOM      5  N   UNL     1       6.588   5.522  14.947  0.00  0.00    +0.000 N 
ATOM      6  H   UNL     1       6.305   6.434  14.613  0.00  0.00    +0.000 HD
BRANCH   3   7
ATOM      7  O   UNL     1       7.878   6.731  16.316  0.00  0.00    +0.000 OA
BRANCH   7   9
ATOM      8  C   UNL     1       7.892   6.487  18.767  0.00  0.00    +0.000 C 
ATOM      9  C   UNL     1       7.354   7.271  17.564  0.00  0.00    +0.000 C 
ATOM     10  C   UNL     1       5.820   7.328  17.546  0.00  0.00    +0.000 C 
ATOM     11  C   UNL     1       7.878   8.715  17.672  0.00  0.00    +0.000 C 
ENDBRANCH   7   9
ENDBRANCH   3   7
ENDBRANCH   2   5
ENDBRANCH   1   2
BRANCH   1  12
ATOM     12  O   UNL     1       4.290   3.830  16.103  0.00  0.00    +0.000 OA
BRANCH  12  13
ATOM     13  C   UNL     1       4.336   3.939  17.452  0.00  0.00    +0.000 C 
ATOM     14  O   UNL     1       5.343   4.014  18.137  0.00  0.00    +0.000 OA
BRANCH  13  15
ATOM     15  C   UNL     1       2.962   3.933  17.986  0.00  0.00    +0.000 C 
ATOM     16  C   UNL     1       2.496   2.806  18.548  0.00  0.00    +0.000 C 
BRANCH  16  17
ATOM     17  C   UNL     1       1.121   2.756  19.096  0.00  0.00    +0.000 C 
ATOM     18  O   UNL     1       0.184   2.244  18.499  0.00  0.00    +0.000 OA
BRANCH  17  19
ATOM     19  C   UNL     1       0.951   3.415  20.424  0.00  0.00    +0.000 C 
ATOM     20  C   UNL     1       1.344   2.665  21.677  0.00  0.00    +0.000 C 
ATOM     21  C   UNL     1       2.150   3.850  21.235  0.00  0.00    +0.000 C 
ENDBRANCH  17  19
ENDBRANCH  16  17
ENDBRANCH  13  15
ENDBRANCH  12  13
ENDBRANCH   1  12
TORSDOF 9
ENDMDL
MODEL 9
REMARK VINA RESULT:      -6.3      5.746      8.088
REMARK  Name = 
REMARK  12 active torsions:
REMARK  status: ('A' for Active; 'I' for Inactive)
REMARK    1  A    between atoms: C_1  and  C_2
REMARK    2  A    between atoms: C_2  and  C_3
REMARK    3  A    between atoms: C_2  and  C_4
REMARK    4  A    between atoms: C_2  and  O_5
REMARK    5  A    between atoms: O_5  and  C_6
REMARK    6  A    between atoms: N_8  and  C_9
REMARK    7  A    between atoms: C_9  and  C_10
REMARK    8  A    between atoms: C_10  and  O_11
REMARK    9  A    between atoms: O_11  and  C_12
REMARK   10  A    between atoms: C_12  and  C_14
REMARK   11  A    between atoms: C_15  and  C_16
REMARK   12  A    between atoms: C_16  and  C_18
REMARK                            x       y       z     vdW  Elec       q    Type
REMARK                         _______ _______ _______ _____ _____    ______ ____
ROOT
ATOM      1  C   UNL     1       1.913   8.790  17.783  0.00  0.00    +0.000 C 
ENDROOT
BRANCH   1   2
ATOM      2  C   UNL     1       0.839   9.556  18.562  0.00  0.00    +0.000 C 
BRANCH   2   5
ATOM      3  C   UNL     1      -1.141  10.968  18.246  0.00  0.00    +0.000 C 
ATOM      4  O   UNL     1      -1.297  11.134  19.444  0.00  0.00    +0.000 OA
ATOM      5  N   UNL     1      -0.118  10.240  17.715  0.00  0.00    +0.000 N 
ATOM      6  H   UNL     1      -0.065  10.172  16.708  0.00  0.00    +0.000 HD
BRANCH   3   7
ATOM      7  O   UNL     1      -1.934  11.461  17.259  0.00  0.00    +0.000 OA
BRANCH   7   9
ATOM      8  C   UNL     1      -3.341   9.497  17.738  0.00  0.00    +0.000 C 
ATOM      9  C   UNL     1      -3.038  10.647  16.769  0.00  0.00    +0.000 C 
ATOM     10  C   UNL     1      -2.772  10.148  15.341  0.00  0.00    +0.000 C 
ATOM     11  C   UNL     1      -4.275  11.562  16.726  0.00  0.00    +0.000 C 
ENDBRANCH   7   9
ENDBRANCH   3   7
ENDBRANCH   2   5
ENDBRANCH   1   2
BRANCH   1  12
ATOM     12  O   UNL     1       2.305   7.591  18.483  0.00  0.00    +0.000 OA
BRANCH  12  13
ATOM     13  C   UNL     1       3.299   6.881  17.898  0.00  0.00    +0.000 C 
ATOM     14  O   UNL     1       4.205   7.333  17.217  0.00  0.00    +0.000 OA
BRANCH  13  15
ATOM     15  C   UNL     1       3.112   5.449  18.195  0.00  0.00    +0.000 C 
ATOM     16  C   UNL     1       1.955   4.868  17.845  0.00  0.00    +0.000 C 
BRANCH  16  17
ATOM     17  C   UNL     1       1.724   3.431  18.125  0.00  0.00    +0.000 C 
ATOM     18  O   UNL     1       2.130   2.537  17.396  0.00  0.00    +0.000 OA
BRANCH  17  19
ATOM     19  C   UNL     1       0.920   3.152  19.350  0.00  0.00    +0.000 C 
ATOM     20  C   UNL     1       1.616   2.628  20.587  0.00  0.00    +0.000 C 
ATOM     21  C   UNL     1       1.054   4.019  20.582  0.00  0.00    +0.000 C 
ENDBRANCH  17  19
ENDBRANCH  16  17
ENDBRANCH  13  15
ENDBRANCH  12  13
ENDBRANCH   1  12
TORSDOF 9
ENDMDL
