MODEL 1
REMARK VINA RESULT:      -8.4      0.000      0.000
REMARK  Name = 
REMARK  4 active torsions:
REMARK  status: ('A' for Active; 'I' for Inactive)
REMARK    1  A    between atoms: C_1  and  N_2
REMARK    2  A    between atoms: N_2  and  C_3
REMARK    3  A    between atoms: N_2  and  C_10
REMARK    4  A    between atoms: C_6  and  O_7
REMARK                            x       y       z     vdW  Elec       q    Type
REMARK                         _______ _______ _______ _____ _____    ______ ____
ROOT
ATOM      1  C   UNL     1       3.904   5.320  18.441  0.00  0.00    +0.000 C 
ATOM      2  N   UNL     1       3.605   5.374  19.823  0.00  0.00    +0.000 N 
ATOM      3  C   UNL     1       2.525   6.169  20.093  0.00  0.00    +0.000 C 
ATOM      4  O   UNL     1       1.728   5.869  20.964  0.00  0.00    +0.000 OA
ATOM      5  C   UNL     1       2.458   7.323  19.138  0.00  0.00    +0.000 C 
ATOM      6  C   UNL     1       1.763   8.462  19.310  0.00  0.00    +0.000 C 
ATOM      7  C   UNL     1       1.715   9.577  18.273  0.00  0.00    +0.000 C 
ATOM      8  O   UNL     1       2.230   9.642  17.179  0.00  0.00    +0.000 OA
ATOM      9  N   UNL     1       0.916  10.564  18.830  0.00  0.00    +0.000 N 
ATOM     10  C   UNL     1       0.467  10.203  20.093  0.00  0.00    +0.000 A 
ATOM     11  C   UNL     1      -0.335  10.975  20.917  0.00  0.00    +0.000 A 
ATOM     12  C   UNL     1      -0.678  10.451  22.160  0.00  0.00    +0.000 A 
ATOM     13  C   UNL     1      -0.200   9.197  22.552  0.00  0.00    +0.000 A 
ATOM     14  C   UNL     1       0.623   8.446  21.706  0.00  0.00    +0.000 A 
ATOM     15  C   UNL     1       0.945   8.937  20.451  0.00  0.00    +0.000 A 
ATOM     16  S   UNL     1       3.516   6.957  17.792  0.00  0.00    +0.000 S 
ATOM     17  H   UNL     1       3.665   4.517  20.349  0.00  0.00    +0.000 HD
ATOM     18  H   UNL     1       0.717  11.429  18.355  0.00  0.00    +0.000 HD
ENDROOT
BRANCH   1  20
ATOM     19  C   UNL     1       6.259   5.230  19.281  0.00  0.00    +0.000 C 
ATOM     20  N   UNL     1       5.270   4.866  18.267  0.00  0.00    +0.000 N 
BRANCH  20  21
ATOM     21  C   UNL     1       5.676   4.691  16.939  0.00  0.00    +0.000 A 
ATOM     22  C   UNL     1       6.904   5.228  16.501  0.00  0.00    +0.000 A 
ATOM     23  C   UNL     1       7.343   5.096  15.181  0.00  0.00    +0.000 A 
ATOM     24  C   UNL     1       6.547   4.427  14.265  0.00  0.00    +0.000 A 
ATOM     25  C   UNL     1       5.334   3.882  14.657  0.00  0.00    +0.000 A 
ATOM     26  C   UNL     1       4.905   4.012  15.984  0.00  0.00    +0.000 A 
BRANCH  24  27
ATOM     27  O   UNL     1       6.923   4.293  12.964  0.00  0.00    +0.000 OA
ATOM     28  H   UNL     1       7.037   5.177  12.582  0.00  0.00    +0.000 HD
ENDBRANCH  24  27
ENDBRANCH  20  21
ENDBRANCH   1  20
TORSDOF 3
ENDMDL
MODEL 2
REMARK VINA RESULT:      -8.1      0.962      1.379
REMARK  Name = 
REMARK  4 active torsions:
REMARK  status: ('A' for Active; 'I' for Inactive)
REMARK    1  A    between atoms: C_1  and  N_2
REMARK    2  A    between atoms: N_2  and  C_3
REMARK    3  A    between atoms: N_2  and  C_10
REMARK    4  A    between atoms: C_6  and  O_7
REMARK                            x       y       z     vdW  Elec       q    Type
REMARK                         _______ _______ _______ _____ _____    ______ ____
ROOT
ATOM      1  C   UNL     1       3.094   4.519  18.605  0.00  0.00    +0.000 C 
ATOM      2  N   UNL     1       2.836   4.710  19.984  0.00  0.00    +0.000 N 
ATOM      3  C   UNL     1       1.977   5.750  20.214  0.00  0.00    +0.000 C 
ATOM      4  O   UNL     1       1.144   5.690  21.101  0.00  0.00    +0.000 OA
ATOM      5  C   UNL     1       2.171   6.838  19.201  0.00  0.00    +0.000 C 
ATOM      6  C   UNL     1       1.766   8.117  19.315  0.00  0.00    +0.000 C 
ATOM      7  C   UNL     1       1.967   9.159  18.223  0.00  0.00    +0.000 C 
ATOM      8  O   UNL     1       2.468   9.046  17.126  0.00  0.00    +0.000 OA
ATOM      9  N   UNL     1       1.432  10.332  18.730  0.00  0.00    +0.000 N 
ATOM     10  C   UNL     1       0.928  10.151  20.011  0.00  0.00    +0.000 A 
ATOM     11  C   UNL     1       0.342  11.130  20.795  0.00  0.00    +0.000 A 
ATOM     12  C   UNL     1      -0.097  10.764  22.065  0.00  0.00    +0.000 A 
ATOM     13  C   UNL     1       0.077   9.454  22.520  0.00  0.00    +0.000 A 
ATOM     14  C   UNL     1       0.689   8.488  21.712  0.00  0.00    +0.000 A 
ATOM     15  C   UNL     1       1.099   8.827  20.432  0.00  0.00    +0.000 A 
ATOM     16  S   UNL     1       3.093   6.167  17.874  0.00  0.00    +0.000 S 
ATOM     17  H   UNL     1       2.699   3.891  20.553  0.00  0.00    +0.000 HD
ATOM     18  H   UNL     1       1.436  11.195  18.212  0.00  0.00    +0.000 HD
ENDROOT
BRANCH   1  20
ATOM     19  C   UNL     1       4.849   3.054  19.622  0.00  0.00    +0.000 C 
ATOM     20  N   UNL     1       4.313   3.747  18.453  0.00  0.00    +0.000 N 
BRANCH  20  21
ATOM     21  C   UNL     1       5.188   4.205  17.460  0.00  0.00    +0.000 A 
ATOM     22  C   UNL     1       4.896   3.971  16.102  0.00  0.00    +0.000 A 
ATOM     23  C   UNL     1       5.747   4.391  15.076  0.00  0.00    +0.000 A 
ATOM     24  C   UNL     1       6.923   5.050  15.399  0.00  0.00    +0.000 A 
ATOM     25  C   UNL     1       7.244   5.303  16.723  0.00  0.00    +0.000 A 
ATOM     26  C   UNL     1       6.381   4.885  17.744  0.00  0.00    +0.000 A 
BRANCH  24  27
ATOM     27  O   UNL     1       7.794   5.460  14.435  0.00  0.00    +0.000 OA
ATOM     28  H   UNL     1       8.638   5.000  14.567  0.00  0.00    +0.000 HD
ENDBRANCH  24  27
ENDBRANCH  20  21
ENDBRANCH   1  20
TORSDOF 3
ENDMDL
MODEL 3
REMARK VINA RESULT:      -7.7      2.065      3.484
REMARK  Name = 
REMARK  4 active torsions:
REMARK  status: ('A' for Active; 'I' for Inactive)
REMARK    1  A    between atoms: C_1  and  N_2
REMARK    2  A    between atoms: N_2  and  C_3
REMARK    3  A    between atoms: N_2  and  C_10
REMARK    4  A    between atoms: C_6  and  O_7
REMARK                            x       y       z     vdW  Elec       q    Type
REMARK                         _______ _______ _______ _____ _____    ______ ____
ROOT
ATOM      1  C   UNL     1       2.961   7.271  18.515  0.00  0.00    +0.000 C 
ATOM      2  N   UNL     1       2.366   8.141  17.571  0.00  0.00    +0.000 N 
ATOM      3  C   UNL     1       1.887   9.286  18.146  0.00  0.00    +0.000 C 
ATOM      4  O   UNL     1       1.968  10.358  17.572  0.00  0.00    +0.000 OA
ATOM      5  C   UNL     1       1.378   9.017  19.531  0.00  0.00    +0.000 C 
ATOM      6  C   UNL     1       0.544   9.799  20.241  0.00  0.00    +0.000 C 
ATOM      7  C   UNL     1       0.101   9.474  21.662  0.00  0.00    +0.000 C 
ATOM      8  O   UNL     1       0.402   8.543  22.375  0.00  0.00    +0.000 OA
ATOM      9  N   UNL     1      -0.752  10.504  22.025  0.00  0.00    +0.000 N 
ATOM     10  C   UNL     1      -0.902  11.428  21.000  0.00  0.00    +0.000 A 
ATOM     11  C   UNL     1      -1.697  12.561  21.042  0.00  0.00    +0.000 A 
ATOM     12  C   UNL     1      -1.731  13.369  19.909  0.00  0.00    +0.000 A 
ATOM     13  C   UNL     1      -0.998  13.018  18.771  0.00  0.00    +0.000 A 
ATOM     14  C   UNL     1      -0.216  11.857  18.750  0.00  0.00    +0.000 A 
ATOM     15  C   UNL     1      -0.143  11.062  19.882  0.00  0.00    +0.000 A 
ATOM     16  S   UNL     1       1.999   7.458  20.028  0.00  0.00    +0.000 S 
ATOM     17  H   UNL     1       2.824   8.253  16.681  0.00  0.00    +0.000 HD
ATOM     18  H   UNL     1      -1.202  10.541  22.925  0.00  0.00    +0.000 HD
ENDROOT
BRANCH   1  20
ATOM     19  C   UNL     1       1.930   5.009  18.232  0.00  0.00    +0.000 C 
ATOM     20  N   UNL     1       3.027   5.935  17.954  0.00  0.00    +0.000 N 
BRANCH  20  21
ATOM     21  C   UNL     1       4.319   5.434  17.755  0.00  0.00    +0.000 A 
ATOM     22  C   UNL     1       5.273   5.518  18.789  0.00  0.00    +0.000 A 
ATOM     23  C   UNL     1       6.581   5.050  18.632  0.00  0.00    +0.000 A 
ATOM     24  C   UNL     1       6.961   4.495  17.420  0.00  0.00    +0.000 A 
ATOM     25  C   UNL     1       6.051   4.391  16.381  0.00  0.00    +0.000 A 
ATOM     26  C   UNL     1       4.741   4.855  16.549  0.00  0.00    +0.000 A 
BRANCH  24  27
ATOM     27  O   UNL     1       8.230   4.045  17.214  0.00  0.00    +0.000 OA
ATOM     28  H   UNL     1       8.287   3.130  17.531  0.00  0.00    +0.000 HD
ENDBRANCH  24  27
ENDBRANCH  20  21
ENDBRANCH   1  20
TORSDOF 3
ENDMDL
MODEL 4
REMARK VINA RESULT:      -7.5      2.528      3.131
REMARK  Name = 
REMARK  4 active torsions:
REMARK  status: ('A' for Active; 'I' for Inactive)
REMARK    1  A    between atoms: C_1  and  N_2
REMARK    2  A    between atoms: N_2  and  C_3
REMARK    3  A    between atoms: N_2  and  C_10
REMARK    4  A    between atoms: C_6  and  O_7
REMARK                            x       y       z     vdW  Elec       q    Type
REMARK                         _______ _______ _______ _____ _____    ______ ____
ROOT
ATOM      1  C   UNL     1       2.571   6.848  18.578  0.00  0.00    +0.000 C 
ATOM      2  N   UNL     1       2.284   6.754  19.960  0.00  0.00    +0.000 N 
ATOM      3  C   UNL     1       1.326   7.647  20.356  0.00  0.00    +0.000 C 
ATOM      4  O   UNL     1       0.495   7.344  21.195  0.00  0.00    +0.000 OA
ATOM      5  C   UNL     1       1.420   8.918  19.566  0.00  0.00    +0.000 C 
ATOM      6  C   UNL     1       0.891  10.108  19.904  0.00  0.00    +0.000 C 
ATOM      7  C   UNL     1       0.998  11.350  19.027  0.00  0.00    +0.000 C 
ATOM      8  O   UNL     1       1.516  11.490  17.942  0.00  0.00    +0.000 OA
ATOM      9  N   UNL     1       0.346  12.352  19.728  0.00  0.00    +0.000 N 
ATOM     10  C   UNL     1      -0.148  11.889  20.939  0.00  0.00    +0.000 A 
ATOM     11  C   UNL     1      -0.833  12.645  21.875  0.00  0.00    +0.000 A 
ATOM     12  C   UNL     1      -1.245  12.009  23.043  0.00  0.00    +0.000 A 
ATOM     13  C   UNL     1      -0.947  10.660  23.254  0.00  0.00    +0.000 A 
ATOM     14  C   UNL     1      -0.237   9.924  22.298  0.00  0.00    +0.000 A 
ATOM     15  C   UNL     1       0.148  10.532  21.114  0.00  0.00    +0.000 A 
ATOM     16  S   UNL     1       2.415   8.596  18.163  0.00  0.00    +0.000 S 
ATOM     17  H   UNL     1       2.224   5.834  20.365  0.00  0.00    +0.000 HD
ATOM     18  H   UNL     1       0.270  13.293  19.378  0.00  0.00    +0.000 HD
ENDROOT
BRANCH   1  20
ATOM     19  C   UNL     1       4.797   6.936  17.439  0.00  0.00    +0.000 C 
ATOM     20  N   UNL     1       3.861   6.237  18.317  0.00  0.00    +0.000 N 
BRANCH  20  21
ATOM     21  C   UNL     1       3.880   4.838  18.375  0.00  0.00    +0.000 A 
ATOM     22  C   UNL     1       3.094   4.086  17.480  0.00  0.00    +0.000 A 
ATOM     23  C   UNL     1       3.065   2.689  17.510  0.00  0.00    +0.000 A 
ATOM     24  C   UNL     1       3.824   2.016  18.455  0.00  0.00    +0.000 A 
ATOM     25  C   UNL     1       4.614   2.720  19.350  0.00  0.00    +0.000 A 
ATOM     26  C   UNL     1       4.642   4.119  19.307  0.00  0.00    +0.000 A 
BRANCH  24  27
ATOM     27  O   UNL     1       3.811   0.657  18.536  0.00  0.00    +0.000 OA
ATOM     28  H   UNL     1       3.904   0.294  17.641  0.00  0.00    +0.000 HD
ENDBRANCH  24  27
ENDBRANCH  20  21
ENDBRANCH   1  20
TORSDOF 3
ENDMDL
MODEL 5
REMARK VINA RESULT:      -7.5      2.434      7.748
REMARK  Name = 
REMARK  4 active torsions:
REMARK  status: ('A' for Active; 'I' for Inactive)
REMARK    1  A    between atoms: C_1  and  N_2
REMARK    2  A    between atoms: N_2  and  C_3
REMARK    3  A    between atoms: N_2  and  C_10
REMARK    4  A    between atoms: C_6  and  O_7
REMARK                            x       y       z     vdW  Elec       q    Type
REMARK                         _______ _______ _______ _____ _____    ______ ____
ROOT
ATOM      1  C   UNL     1       3.451   4.682  19.288  0.00  0.00    +0.000 C 
ATOM      2  N   UNL     1       2.816   4.260  18.096  0.00  0.00    +0.000 N 
ATOM      3  C   UNL     1       3.712   3.906  17.124  0.00  0.00    +0.000 C 
ATOM      4  O   UNL     1       3.490   2.969  16.377  0.00  0.00    +0.000 OA
ATOM      5  C   UNL     1       4.949   4.749  17.205  0.00  0.00    +0.000 C 
ATOM      6  C   UNL     1       5.864   4.920  16.232  0.00  0.00    +0.000 C 
ATOM      7  C   UNL     1       7.119   5.766  16.404  0.00  0.00    +0.000 C 
ATOM      8  O   UNL     1       7.516   6.378  17.370  0.00  0.00    +0.000 OA
ATOM      9  N   UNL     1       7.777   5.699  15.186  0.00  0.00    +0.000 N 
ATOM     10  C   UNL     1       7.081   4.920  14.272  0.00  0.00    +0.000 A 
ATOM     11  C   UNL     1       7.465   4.669  12.966  0.00  0.00    +0.000 A 
ATOM     12  C   UNL     1       6.630   3.869  12.189  0.00  0.00    +0.000 A 
ATOM     13  C   UNL     1       5.439   3.367  12.723  0.00  0.00    +0.000 A 
ATOM     14  C   UNL     1       5.068   3.651  14.042  0.00  0.00    +0.000 A 
ATOM     15  C   UNL     1       5.905   4.415  14.839  0.00  0.00    +0.000 A 
ATOM     16  S   UNL     1       4.950   5.538  18.767  0.00  0.00    +0.000 S 
ATOM     17  H   UNL     1       2.002   3.673  18.180  0.00  0.00    +0.000 HD
ATOM     18  H   UNL     1       8.646   6.178  15.015  0.00  0.00    +0.000 HD
ENDROOT
BRANCH   1  20
ATOM     19  C   UNL     1       1.506   4.734  20.860  0.00  0.00    +0.000 C 
ATOM     20  N   UNL     1       2.512   5.452  20.080  0.00  0.00    +0.000 N 
BRANCH  20  21
ATOM     21  C   UNL     1       2.219   6.728  19.583  0.00  0.00    +0.000 A 
ATOM     22  C   UNL     1       1.684   7.711  20.440  0.00  0.00    +0.000 A 
ATOM     23  C   UNL     1       1.358   8.992  19.987  0.00  0.00    +0.000 A 
ATOM     24  C   UNL     1       1.552   9.309  18.652  0.00  0.00    +0.000 A 
ATOM     25  C   UNL     1       2.079   8.371  17.779  0.00  0.00    +0.000 A 
ATOM     26  C   UNL     1       2.411   7.092  18.242  0.00  0.00    +0.000 A 
BRANCH  24  27
ATOM     27  O   UNL     1       1.229  10.537  18.161  0.00  0.00    +0.000 OA
ATOM     28  H   UNL     1       1.427  10.551  17.211  0.00  0.00    +0.000 HD
ENDBRANCH  24  27
ENDBRANCH  20  21
ENDBRANCH   1  20
TORSDOF 3
ENDMDL
MODEL 6
REMARK VINA RESULT:      -7.4      2.229      8.443
REMARK  Name = 
REMARK  4 active torsions:
REMARK  status: ('A' for Active; 'I' for Inactive)
REMARK    1  A    between atoms: C_1  and  N_2
REMARK    2  A    between atoms: N_2  and  C_3
REMARK    3  A    between atoms: N_2  and  C_10
REMARK    4  A    between atoms: C_6  and  O_7
REMARK                            x       y       z     vdW  Elec       q    Type
REMARK                         _______ _______ _______ _____ _____    ______ ____
ROOT
ATOM      1  C   UNL     1       0.622   9.212  20.284  0.00  0.00    +0.000 C 
ATOM      2  N   UNL     1       1.515   9.665  19.284  0.00  0.00    +0.000 N 
ATOM      3  C   UNL     1       2.026   8.639  18.536  0.00  0.00    +0.000 C 
ATOM      4  O   UNL     1       2.217   8.770  17.340  0.00  0.00    +0.000 OA
ATOM      5  C   UNL     1       2.198   7.404  19.370  0.00  0.00    +0.000 C 
ATOM      6  C   UNL     1       2.973   6.344  19.075  0.00  0.00    +0.000 C 
ATOM      7  C   UNL     1       3.067   5.106  19.957  0.00  0.00    +0.000 C 
ATOM      8  O   UNL     1       2.497   4.847  20.994  0.00  0.00    +0.000 OA
ATOM      9  N   UNL     1       3.967   4.267  19.319  0.00  0.00    +0.000 N 
ATOM     10  C   UNL     1       4.453   4.835  18.149  0.00  0.00    +0.000 A 
ATOM     11  C   UNL     1       5.376   4.259  17.293  0.00  0.00    +0.000 A 
ATOM     12  C   UNL     1       5.755   4.986  16.168  0.00  0.00    +0.000 A 
ATOM     13  C   UNL     1       5.227   6.261  15.941  0.00  0.00    +0.000 A 
ATOM     14  C   UNL     1       4.307   6.825  16.833  0.00  0.00    +0.000 A 
ATOM     15  C   UNL     1       3.892   6.101  17.938  0.00  0.00    +0.000 A 
ATOM     16  S   UNL     1       1.272   7.624  20.839  0.00  0.00    +0.000 S 
ATOM     17  H   UNL     1       1.268  10.499  18.778  0.00  0.00    +0.000 HD
ATOM     18  H   UNL     1       4.225   3.369  19.692  0.00  0.00    +0.000 HD
ENDROOT
BRANCH   1  20
ATOM     19  C   UNL     1       0.213   9.828  22.674  0.00  0.00    +0.000 C 
ATOM     20  N   UNL     1       0.481  10.240  21.297  0.00  0.00    +0.000 N 
BRANCH  20  21
ATOM     21  C   UNL     1      -0.007  11.469  20.837  0.00  0.00    +0.000 A 
ATOM     22  C   UNL     1       0.779  12.631  20.966  0.00  0.00    +0.000 A 
ATOM     23  C   UNL     1       0.328  13.883  20.539  0.00  0.00    +0.000 A 
ATOM     24  C   UNL     1      -0.936  13.994  19.980  0.00  0.00    +0.000 A 
ATOM     25  C   UNL     1      -1.737  12.873  19.832  0.00  0.00    +0.000 A 
ATOM     26  C   UNL     1      -1.274  11.621  20.255  0.00  0.00    +0.000 A 
BRANCH  24  27
ATOM     27  O   UNL     1      -1.426  15.196  19.569  0.00  0.00    +0.000 OA
ATOM     28  H   UNL     1      -0.724  15.860  19.654  0.00  0.00    +0.000 HD
ENDBRANCH  24  27
ENDBRANCH  20  21
ENDBRANCH   1  20
TORSDOF 3
ENDMDL
MODEL 7
REMARK VINA RESULT:      -7.3      1.969      2.481
REMARK  Name = 
REMARK  4 active torsions:
REMARK  status: ('A' for Active; 'I' for Inactive)
REMARK    1  A    between atoms: C_1  and  N_2
REMARK    2  A    between atoms: N_2  and  C_3
REMARK    3  A    between atoms: N_2  and  C_10
REMARK    4  A    between atoms: C_6  and  O_7
REMARK                            x       y       z     vdW  Elec       q    Type
REMARK                         _______ _______ _______ _____ _____    ______ ____
ROOT
ATOM      1  C   UNL     1       3.151   5.336  18.007  0.00  0.00    +0.000 C 
ATOM      2  N   UNL     1       3.001   5.280  19.414  0.00  0.00    +0.000 N 
ATOM      3  C   UNL     1       2.078   6.179  19.876  0.00  0.00    +0.000 C 
ATOM      4  O   UNL     1       1.336   5.895  20.800  0.00  0.00    +0.000 OA
ATOM      5  C   UNL     1       2.084   7.427  19.045  0.00  0.00    +0.000 C 
ATOM      6  C   UNL     1       1.579   8.624  19.399  0.00  0.00    +0.000 C 
ATOM      7  C   UNL     1       1.589   9.840  18.482  0.00  0.00    +0.000 C 
ATOM      8  O   UNL     1       1.998   9.952  17.347  0.00  0.00    +0.000 OA
ATOM      9  N   UNL     1       1.000  10.858  19.214  0.00  0.00    +0.000 N 
ATOM     10  C   UNL     1       0.630  10.427  20.481  0.00  0.00    +0.000 A 
ATOM     11  C   UNL     1       0.033  11.206  21.458  0.00  0.00    +0.000 A 
ATOM     12  C   UNL     1      -0.257  10.602  22.678  0.00  0.00    +0.000 A 
ATOM     13  C   UNL     1       0.072   9.260  22.896  0.00  0.00    +0.000 A 
ATOM     14  C   UNL     1       0.692   8.502  21.896  0.00  0.00    +0.000 A 
ATOM     15  C   UNL     1       0.955   9.077  20.664  0.00  0.00    +0.000 A 
ATOM     16  S   UNL     1       2.940   7.070  17.561  0.00  0.00    +0.000 S 
ATOM     17  H   UNL     1       2.989   4.372  19.848  0.00  0.00    +0.000 HD
ATOM     18  H   UNL     1       0.881  11.788  18.847  0.00  0.00    +0.000 HD
ENDROOT
BRANCH   1  20
ATOM     19  C   UNL     1       4.505   3.267  17.626  0.00  0.00    +0.000 C 
ATOM     20  N   UNL     1       4.414   4.726  17.640  0.00  0.00    +0.000 N 
BRANCH  20  21
ATOM     21  C   UNL     1       5.552   5.485  17.937  0.00  0.00    +0.000 A 
ATOM     22  C   UNL     1       6.331   5.172  19.069  0.00  0.00    +0.000 A 
ATOM     23  C   UNL     1       7.464   5.912  19.419  0.00  0.00    +0.000 A 
ATOM     24  C   UNL     1       7.833   6.996  18.637  0.00  0.00    +0.000 A 
ATOM     25  C   UNL     1       7.096   7.333  17.513  0.00  0.00    +0.000 A 
ATOM     26  C   UNL     1       5.966   6.582  17.166  0.00  0.00    +0.000 A 
BRANCH  24  27
ATOM     27  O   UNL     1       8.917   7.759  18.950  0.00  0.00    +0.000 OA
ATOM     28  H   UNL     1       8.680   8.345  19.685  0.00  0.00    +0.000 HD
ENDBRANCH  24  27
ENDBRANCH  20  21
ENDBRANCH   1  20
TORSDOF 3
ENDMDL
MODEL 8
REMARK VINA RESULT:      -7.3      2.236      3.821
REMARK  Name = 
REMARK  4 active torsions:
REMARK  status: ('A' for Active; 'I' for Inactive)
REMARK    1  A    between atoms: C_1  and  N_2
REMARK    2  A    between atoms: N_2  and  C_3
REMARK    3  A    between atoms: N_2  and  C_10
REMARK    4  A    between atoms: C_6  and  O_7
REMARK                            x       y       z     vdW  Elec       q    Type
REMARK                         _______ _______ _______ _____ _____    ______ ____
ROOT
ATOM      1  C   UNL     1       2.388   7.213  19.743  0.00  0.00    +0.000 C 
ATOM      2  N   UNL     1       1.851   7.978  18.680  0.00  0.00    +0.000 N 
ATOM      3  C   UNL     1       1.476   9.233  19.076  0.00  0.00    +0.000 C 
ATOM      4  O   UNL     1       1.636  10.195  18.346  0.00  0.00    +0.000 OA
ATOM      5  C   UNL     1       0.968   9.218  20.487  0.00  0.00    +0.000 C 
ATOM      6  C   UNL     1       0.212  10.164  21.073  0.00  0.00    +0.000 C 
ATOM      7  C   UNL     1      -0.236  10.096  22.527  0.00  0.00    +0.000 C 
ATOM      8  O   UNL     1      -0.002   9.260  23.372  0.00  0.00    +0.000 OA
ATOM      9  N   UNL     1      -0.997  11.235  22.733  0.00  0.00    +0.000 N 
ATOM     10  C   UNL     1      -1.086  12.004  21.580  0.00  0.00    +0.000 A 
ATOM     11  C   UNL     1      -1.785  13.192  21.452  0.00  0.00    +0.000 A 
ATOM     12  C   UNL     1      -1.769  13.820  20.209  0.00  0.00    +0.000 A 
ATOM     13  C   UNL     1      -1.084  13.243  19.136  0.00  0.00    +0.000 A 
ATOM     14  C   UNL     1      -0.400  12.031  19.290  0.00  0.00    +0.000 A 
ATOM     15  C   UNL     1      -0.376  11.412  20.528  0.00  0.00    +0.000 A 
ATOM     16  S   UNL     1       1.467   7.705  21.213  0.00  0.00    +0.000 S 
ATOM     17  H   UNL     1       2.304   7.916  17.782  0.00  0.00    +0.000 HD
ATOM     18  H   UNL     1      -1.428  11.444  23.618  0.00  0.00    +0.000 HD
ENDROOT
BRANCH   1  20
ATOM     19  C   UNL     1       1.562   4.905  20.242  0.00  0.00    +0.000 C 
ATOM     20  N   UNL     1       2.335   5.807  19.391  0.00  0.00    +0.000 N 
BRANCH  20  21
ATOM     21  C   UNL     1       3.458   5.321  18.710  0.00  0.00    +0.000 A 
ATOM     22  C   UNL     1       4.734   5.415  19.299  0.00  0.00    +0.000 A 
ATOM     23  C   UNL     1       5.886   4.961  18.651  0.00  0.00    +0.000 A 
ATOM     24  C   UNL     1       5.779   4.410  17.383  0.00  0.00    +0.000 A 
ATOM     25  C   UNL     1       4.540   4.297  16.772  0.00  0.00    +0.000 A 
ATOM     26  C   UNL     1       3.390   4.747  17.431  0.00  0.00    +0.000 A 
BRANCH  24  27
ATOM     27  O   UNL     1       6.876   3.974  16.705  0.00  0.00    +0.000 OA
ATOM     28  H   UNL     1       6.922   4.447  15.859  0.00  0.00    +0.000 HD
ENDBRANCH  24  27
ENDBRANCH  20  21
ENDBRANCH   1  20
TORSDOF 3
ENDMDL
MODEL 9
REMARK VINA RESULT:      -7.2      2.026      3.535
REMARK  Name = 
REMARK  4 active torsions:
REMARK  status: ('A' for Active; 'I' for Inactive)
REMARK    1  A    between atoms: C_1  and  N_2
REMARK    2  A    between atoms: N_2  and  C_3
REMARK    3  A    between atoms: N_2  and  C_10
REMARK    4  A    between atoms: C_6  and  O_7
REMARK                            x       y       z     vdW  Elec       q    Type
REMARK                         _______ _______ _______ _____ _____    ______ ____
ROOT
ATOM      1  C   UNL     1       2.708   7.438  18.726  0.00  0.00    +0.000 C 
ATOM      2  N   UNL     1       1.990   8.250  17.816  0.00  0.00    +0.000 N 
ATOM      3  C   UNL     1       1.525   9.399  18.395  0.00  0.00    +0.000 C 
ATOM      4  O   UNL     1       1.508  10.450  17.779  0.00  0.00    +0.000 OA
ATOM      5  C   UNL     1       1.165   9.165  19.832  0.00  0.00    +0.000 C 
ATOM      6  C   UNL     1       0.374   9.945  20.593  0.00  0.00    +0.000 C 
ATOM      7  C   UNL     1       0.084   9.660  22.062  0.00  0.00    +0.000 C 
ATOM      8  O   UNL     1       0.489   8.768  22.773  0.00  0.00    +0.000 OA
ATOM      9  N   UNL     1      -0.769  10.673  22.471  0.00  0.00    +0.000 N 
ATOM     10  C   UNL     1      -1.054  11.550  21.434  0.00  0.00    +0.000 A 
ATOM     11  C   UNL     1      -1.884  12.655  21.514  0.00  0.00    +0.000 A 
ATOM     12  C   UNL     1      -2.060  13.417  20.362  0.00  0.00    +0.000 A 
ATOM     13  C   UNL     1      -1.428  13.049  19.170  0.00  0.00    +0.000 A 
ATOM     14  C   UNL     1      -0.607  11.916  19.114  0.00  0.00    +0.000 A 
ATOM     15  C   UNL     1      -0.393  11.168  20.260  0.00  0.00    +0.000 A 
ATOM     16  S   UNL     1       1.891   7.650  20.320  0.00  0.00    +0.000 S 
ATOM     17  H   UNL     1       2.355   8.343  16.882  0.00  0.00    +0.000 HD
ATOM     18  H   UNL     1      -1.130  10.728  23.409  0.00  0.00    +0.000 HD
ENDROOT
BRANCH   1  20
ATOM     19  C   UNL     1       2.021   5.039  18.904  0.00  0.00    +0.000 C 
ATOM     20  N   UNL     1       2.770   6.085  18.209  0.00  0.00    +0.000 N 
BRANCH  20  21
ATOM     21  C   UNL     1       3.955   5.756  17.540  0.00  0.00    +0.000 A 
ATOM     22  C   UNL     1       4.151   4.446  17.059  0.00  0.00    +0.000 A 
ATOM     23  C   UNL     1       5.324   4.065  16.401  0.00  0.00    +0.000 A 
ATOM     24  C   UNL     1       6.335   4.996  16.223  0.00  0.00    +0.000 A 
ATOM     25  C   UNL     1       6.178   6.296  16.679  0.00  0.00    +0.000 A 
ATOM     26  C   UNL     1       4.997   6.671  17.329  0.00  0.00    +0.000 A 
BRANCH  24  27
ATOM     27  O   UNL     1       7.503   4.665  15.608  0.00  0.00    +0.000 OA
ATOM     28  H   UNL     1       7.310   4.032  14.899  0.00  0.00    +0.000 HD
ENDBRANCH  24  27
ENDBRANCH  20  21
ENDBRANCH   1  20
TORSDOF 3
ENDMDL
