MODEL 1
REMARK VINA RESULT:      -6.9      0.000      0.000
REMARK  Name = 
REMARK  8 active torsions:
REMARK  status: ('A' for Active; 'I' for Inactive)
REMARK    1  A    between atoms: C_1  and  N_2
REMARK    2  A    between atoms: N_2  and  C_3
REMARK    3  A    between atoms: N_2  and  C_4
REMARK    4  A    between atoms: C_4  and  C_5
REMARK    5  A    between atoms: C_5  and  O_6
REMARK    6  A    between atoms: C_5  and  C_7
REMARK    7  A    between atoms: C_7  and  C_8
REMARK    8  A    between atoms: C_7  and  C_14
REMARK                            x       y       z     vdW  Elec       q    Type
REMARK                         _______ _______ _______ _____ _____    ______ ____
ROOT
ATOM      1  C   UNL     1       3.815   5.869  17.637  0.00  0.00    +0.000 C 
ENDROOT
BRANCH   1   2
ATOM      2  C   UNL     1       2.915   6.937  18.285  0.00  0.00    +0.000 A 
ATOM      3  C   UNL     1       2.546   6.869  19.651  0.00  0.00    +0.000 A 
ATOM      4  C   UNL     1       1.791   7.877  20.246  0.00  0.00    +0.000 A 
ATOM      5  C   UNL     1       1.371   8.970  19.493  0.00  0.00    +0.000 A 
ATOM      6  C   UNL     1       1.701   9.052  18.139  0.00  0.00    +0.000 A 
ATOM      7  C   UNL     1       2.466   8.043  17.534  0.00  0.00    +0.000 A 
ENDBRANCH   1   2
BRANCH   1   8
ATOM      8  C   UNL     1       5.314   6.126  17.945  0.00  0.00    +0.000 A 
ATOM      9  C   UNL     1       5.953   5.445  19.007  0.00  0.00    +0.000 A 
ATOM     10  C   UNL     1       7.290   5.696  19.335  0.00  0.00    +0.000 A 
ATOM     11  C   UNL     1       8.034   6.612  18.594  0.00  0.00    +0.000 A 
ATOM     12  C   UNL     1       7.456   7.256  17.511  0.00  0.00    +0.000 A 
ATOM     13  C   UNL     1       6.119   7.013  17.180  0.00  0.00    +0.000 A 
ENDBRANCH   1   8
BRANCH   1  14
ATOM     14  C   UNL     1       3.297   4.427  18.040  0.00  0.00    +0.000 C 
BRANCH  14  15
ATOM     15  O   UNL     1       3.939   3.449  17.264  0.00  0.00    +0.000 OA
ATOM     16  H   UNL     1       4.126   3.845  16.374  0.00  0.00    +0.000 HD
ENDBRANCH  14  15
BRANCH  14  17
ATOM     17  C   UNL     1       1.757   4.217  17.985  0.00  0.00    +0.000 C 
BRANCH  17  19
ATOM     18  C   UNL     1       0.664   2.215  18.739  0.00  0.00    +0.000 C 
ATOM     19  N   UNL     1       1.157   3.540  19.165  0.00  0.00    +0.000 NA
ATOM     20  C   UNL     1       2.117   3.343  20.268  0.00  0.00    +0.000 C 
ENDBRANCH  17  19
ENDBRANCH  14  17
ENDBRANCH   1  14
TORSDOF 6
ENDMDL
MODEL 2
REMARK VINA RESULT:      -6.9      1.911      4.967
REMARK  Name = 
REMARK  8 active torsions:
REMARK  status: ('A' for Active; 'I' for Inactive)
REMARK    1  A    between atoms: C_1  and  N_2
REMARK    2  A    between atoms: N_2  and  C_3
REMARK    3  A    between atoms: N_2  and  C_4
REMARK    4  A    between atoms: C_4  and  C_5
REMARK    5  A    between atoms: C_5  and  O_6
REMARK    6  A    between atoms: C_5  and  C_7
REMARK    7  A    between atoms: C_7  and  C_8
REMARK    8  A    between atoms: C_7  and  C_14
REMARK                            x       y       z     vdW  Elec       q    Type
REMARK                         _______ _______ _______ _____ _____    ______ ____
ROOT
ATOM      1  C   UNL     1       2.821   6.047  18.168  0.00  0.00    +0.000 C 
ENDROOT
BRANCH   1   2
ATOM      2  C   UNL     1       2.326   4.886  19.051  0.00  0.00    +0.000 A 
ATOM      3  C   UNL     1       2.716   4.765  20.407  0.00  0.00    +0.000 A 
ATOM      4  C   UNL     1       2.207   3.754  21.217  0.00  0.00    +0.000 A 
ATOM      5  C   UNL     1       1.310   2.827  20.693  0.00  0.00    +0.000 A 
ATOM      6  C   UNL     1       0.926   2.908  19.353  0.00  0.00    +0.000 A 
ATOM      7  C   UNL     1       1.430   3.929  18.533  0.00  0.00    +0.000 A 
ENDBRANCH   1   2
BRANCH   1   8
ATOM      8  C   UNL     1       2.206   7.401  18.612  0.00  0.00    +0.000 A 
ATOM      9  C   UNL     1       1.902   7.637  19.972  0.00  0.00    +0.000 A 
ATOM     10  C   UNL     1       1.301   8.830  20.389  0.00  0.00    +0.000 A 
ATOM     11  C   UNL     1       1.015   9.831  19.464  0.00  0.00    +0.000 A 
ATOM     12  C   UNL     1       1.351   9.657  18.131  0.00  0.00    +0.000 A 
ATOM     13  C   UNL     1       1.947   8.466  17.707  0.00  0.00    +0.000 A 
ENDBRANCH   1   8
BRANCH   1  14
ATOM     14  C   UNL     1       4.405   6.030  18.112  0.00  0.00    +0.000 C 
BRANCH  14  15
ATOM     15  O   UNL     1       4.865   6.978  17.185  0.00  0.00    +0.000 OA
ATOM     16  H   UNL     1       5.857   6.938  17.180  0.00  0.00    +0.000 HD
ENDBRANCH  14  15
BRANCH  14  17
ATOM     17  C   UNL     1       5.060   4.649  17.823  0.00  0.00    +0.000 C 
BRANCH  17  19
ATOM     18  C   UNL     1       7.405   4.550  17.311  0.00  0.00    +0.000 C 
ATOM     19  N   UNL     1       6.415   4.446  18.402  0.00  0.00    +0.000 NA
ATOM     20  C   UNL     1       6.757   5.443  19.434  0.00  0.00    +0.000 C 
ENDBRANCH  17  19
ENDBRANCH  14  17
ENDBRANCH   1  14
TORSDOF 6
ENDMDL
MODEL 3
REMARK VINA RESULT:      -6.8      2.092      5.061
REMARK  Name = 
REMARK  8 active torsions:
REMARK  status: ('A' for Active; 'I' for Inactive)
REMARK    1  A    between atoms: C_1  and  N_2
REMARK    2  A    between atoms: N_2  and  C_3
REMARK    3  A    between atoms: N_2  and  C_4
REMARK    4  A    between atoms: C_4  and  C_5
REMARK    5  A    between atoms: C_5  and  O_6
REMARK    6  A    between atoms: C_5  and  C_7
REMARK    7  A    between atoms: C_7  and  C_8
REMARK    8  A    between atoms: C_7  and  C_14
REMARK                            x       y       z     vdW  Elec       q    Type
REMARK                         _______ _______ _______ _____ _____    ______ ____
ROOT
ATOM      1  C   UNL     1       2.821   6.012  18.194  0.00  0.00    +0.000 C 
ENDROOT
BRANCH   1   2
ATOM      2  C   UNL     1       2.312   4.848  19.065  0.00  0.00    +0.000 A 
ATOM      3  C   UNL     1       2.689   4.718  20.424  0.00  0.00    +0.000 A 
ATOM      4  C   UNL     1       2.167   3.704  21.224  0.00  0.00    +0.000 A 
ATOM      5  C   UNL     1       1.270   2.785  20.687  0.00  0.00    +0.000 A 
ATOM      6  C   UNL     1       0.898   2.876  19.344  0.00  0.00    +0.000 A 
ATOM      7  C   UNL     1       1.415   3.898  18.534  0.00  0.00    +0.000 A 
ENDBRANCH   1   2
BRANCH   1   8
ATOM      8  C   UNL     1       2.207   7.366  18.637  0.00  0.00    +0.000 A 
ATOM      9  C   UNL     1       1.903   7.602  19.997  0.00  0.00    +0.000 A 
ATOM     10  C   UNL     1       1.303   8.795  20.414  0.00  0.00    +0.000 A 
ATOM     11  C   UNL     1       1.017   9.797  19.490  0.00  0.00    +0.000 A 
ATOM     12  C   UNL     1       1.353   9.622  18.156  0.00  0.00    +0.000 A 
ATOM     13  C   UNL     1       1.949   8.431  17.732  0.00  0.00    +0.000 A 
ENDBRANCH   1   8
BRANCH   1  14
ATOM     14  C   UNL     1       4.405   5.988  18.154  0.00  0.00    +0.000 C 
BRANCH  14  15
ATOM     15  O   UNL     1       4.886   7.069  17.399  0.00  0.00    +0.000 OA
ATOM     16  H   UNL     1       4.492   7.001  16.490  0.00  0.00    +0.000 HD
ENDBRANCH  14  15
BRANCH  14  17
ATOM     17  C   UNL     1       5.053   4.665  17.653  0.00  0.00    +0.000 C 
BRANCH  17  19
ATOM     18  C   UNL     1       7.444   4.562  17.441  0.00  0.00    +0.000 C 
ATOM     19  N   UNL     1       6.190   4.824  16.707  0.00  0.00    +0.000 NA
ATOM     20  C   UNL     1       6.121   3.896  15.562  0.00  0.00    +0.000 C 
ENDBRANCH  17  19
ENDBRANCH  14  17
ENDBRANCH   1  14
TORSDOF 6
ENDMDL
MODEL 4
REMARK VINA RESULT:      -6.8      2.753      4.273
REMARK  Name = 
REMARK  8 active torsions:
REMARK  status: ('A' for Active; 'I' for Inactive)
REMARK    1  A    between atoms: C_1  and  N_2
REMARK    2  A    between atoms: N_2  and  C_3
REMARK    3  A    between atoms: N_2  and  C_4
REMARK    4  A    between atoms: C_4  and  C_5
REMARK    5  A    between atoms: C_5  and  O_6
REMARK    6  A    between atoms: C_5  and  C_7
REMARK    7  A    between atoms: C_7  and  C_8
REMARK    8  A    between atoms: C_7  and  C_14
REMARK                            x       y       z     vdW  Elec       q    Type
REMARK                         _______ _______ _______ _____ _____    ______ ____
ROOT
ATOM      1  C   UNL     1       4.566   5.319  16.903  0.00  0.00    +0.000 C 
ENDROOT
BRANCH   1   2
ATOM      2  C   UNL     1       3.498   4.914  17.936  0.00  0.00    +0.000 A 
ATOM      3  C   UNL     1       3.208   5.725  19.061  0.00  0.00    +0.000 A 
ATOM      4  C   UNL     1       2.192   5.387  19.951  0.00  0.00    +0.000 A 
ATOM      5  C   UNL     1       1.449   4.227  19.753  0.00  0.00    +0.000 A 
ATOM      6  C   UNL     1       1.728   3.397  18.665  0.00  0.00    +0.000 A 
ATOM      7  C   UNL     1       2.747   3.734  17.761  0.00  0.00    +0.000 A 
ENDBRANCH   1   2
BRANCH   1   8
ATOM      8  C   UNL     1       5.840   5.877  17.590  0.00  0.00    +0.000 A 
ATOM      9  C   UNL     1       6.451   7.059  17.111  0.00  0.00    +0.000 A 
ATOM     10  C   UNL     1       7.628   7.555  17.683  0.00  0.00    +0.000 A 
ATOM     11  C   UNL     1       8.210   6.901  18.767  0.00  0.00    +0.000 A 
ATOM     12  C   UNL     1       7.607   5.771  19.298  0.00  0.00    +0.000 A 
ATOM     13  C   UNL     1       6.434   5.268  18.729  0.00  0.00    +0.000 A 
ENDBRANCH   1   8
BRANCH   1  14
ATOM     14  C   UNL     1       4.828   4.109  15.913  0.00  0.00    +0.000 C 
BRANCH  14  15
ATOM     15  O   UNL     1       5.845   3.284  16.416  0.00  0.00    +0.000 OA
ATOM     16  H   UNL     1       6.387   2.969  15.647  0.00  0.00    +0.000 HD
ENDBRANCH  14  15
BRANCH  14  17
ATOM     17  C   UNL     1       5.142   4.493  14.438  0.00  0.00    +0.000 C 
BRANCH  17  19
ATOM     18  C   UNL     1       6.146   3.405  12.546  0.00  0.00    +0.000 C 
ATOM     19  N   UNL     1       6.415   3.953  13.890  0.00  0.00    +0.000 NA
ATOM     20  C   UNL     1       7.472   4.976  13.770  0.00  0.00    +0.000 C 
ENDBRANCH  17  19
ENDBRANCH  14  17
ENDBRANCH   1  14
TORSDOF 6
ENDMDL
MODEL 5
REMARK VINA RESULT:      -6.8      1.728      2.472
REMARK  Name = 
REMARK  8 active torsions:
REMARK  status: ('A' for Active; 'I' for Inactive)
REMARK    1  A    between atoms: C_1  and  N_2
REMARK    2  A    between atoms: N_2  and  C_3
REMARK    3  A    between atoms: N_2  and  C_4
REMARK    4  A    between atoms: C_4  and  C_5
REMARK    5  A    between atoms: C_5  and  O_6
REMARK    6  A    between atoms: C_5  and  C_7
REMARK    7  A    between atoms: C_7  and  C_8
REMARK    8  A    between atoms: C_7  and  C_14
REMARK                            x       y       z     vdW  Elec       q    Type
REMARK                         _______ _______ _______ _____ _____    ______ ____
ROOT
ATOM      1  C   UNL     1       3.644   4.462  17.913  0.00  0.00    +0.000 C 
ENDROOT
BRANCH   1   2
ATOM      2  C   UNL     1       3.073   5.784  18.461  0.00  0.00    +0.000 A 
ATOM      3  C   UNL     1       2.914   6.924  17.635  0.00  0.00    +0.000 A 
ATOM      4  C   UNL     1       2.331   8.091  18.121  0.00  0.00    +0.000 A 
ATOM      5  C   UNL     1       1.907   8.159  19.445  0.00  0.00    +0.000 A 
ATOM      6  C   UNL     1       2.072   7.058  20.288  0.00  0.00    +0.000 A 
ATOM      7  C   UNL     1       2.653   5.877  19.804  0.00  0.00    +0.000 A 
ENDBRANCH   1   2
BRANCH   1   8
ATOM      8  C   UNL     1       4.919   4.703  17.062  0.00  0.00    +0.000 A 
ATOM      9  C   UNL     1       5.121   3.989  15.859  0.00  0.00    +0.000 A 
ATOM     10  C   UNL     1       6.286   4.152  15.100  0.00  0.00    +0.000 A 
ATOM     11  C   UNL     1       7.266   5.054  15.507  0.00  0.00    +0.000 A 
ATOM     12  C   UNL     1       7.076   5.812  16.652  0.00  0.00    +0.000 A 
ATOM     13  C   UNL     1       5.917   5.651  17.417  0.00  0.00    +0.000 A 
ENDBRANCH   1   8
BRANCH   1  14
ATOM     14  C   UNL     1       3.830   3.433  19.103  0.00  0.00    +0.000 C 
BRANCH  14  15
ATOM     15  O   UNL     1       5.195   3.191  19.324  0.00  0.00    +0.000 OA
ATOM     16  H   UNL     1       5.479   2.474  18.700  0.00  0.00    +0.000 HD
ENDBRANCH  14  15
BRANCH  14  17
ATOM     17  C   UNL     1       3.072   2.083  18.959  0.00  0.00    +0.000 C 
BRANCH  17  19
ATOM     18  C   UNL     1       1.930   2.591  21.011  0.00  0.00    +0.000 C 
ATOM     19  N   UNL     1       1.766   1.998  19.668  0.00  0.00    +0.000 NA
ATOM     20  C   UNL     1       0.684   2.720  18.973  0.00  0.00    +0.000 C 
ENDBRANCH  17  19
ENDBRANCH  14  17
ENDBRANCH   1  14
TORSDOF 6
ENDMDL
MODEL 6
REMARK VINA RESULT:      -6.8      1.916      5.077
REMARK  Name = 
REMARK  8 active torsions:
REMARK  status: ('A' for Active; 'I' for Inactive)
REMARK    1  A    between atoms: C_1  and  N_2
REMARK    2  A    between atoms: N_2  and  C_3
REMARK    3  A    between atoms: N_2  and  C_4
REMARK    4  A    between atoms: C_4  and  C_5
REMARK    5  A    between atoms: C_5  and  O_6
REMARK    6  A    between atoms: C_5  and  C_7
REMARK    7  A    between atoms: C_7  and  C_8
REMARK    8  A    between atoms: C_7  and  C_14
REMARK                            x       y       z     vdW  Elec       q    Type
REMARK                         _______ _______ _______ _____ _____    ______ ____
ROOT
ATOM      1  C   UNL     1       2.829   6.049  18.191  0.00  0.00    +0.000 C 
ENDROOT
BRANCH   1   2
ATOM      2  C   UNL     1       2.330   4.888  19.072  0.00  0.00    +0.000 A 
ATOM      3  C   UNL     1       2.716   4.766  20.429  0.00  0.00    +0.000 A 
ATOM      4  C   UNL     1       2.203   3.754  21.237  0.00  0.00    +0.000 A 
ATOM      5  C   UNL     1       1.306   2.829  20.711  0.00  0.00    +0.000 A 
ATOM      6  C   UNL     1       0.925   2.912  19.370  0.00  0.00    +0.000 A 
ATOM      7  C   UNL     1       1.433   3.932  18.551  0.00  0.00    +0.000 A 
ENDBRANCH   1   2
BRANCH   1   8
ATOM      8  C   UNL     1       2.205   7.401  18.626  0.00  0.00    +0.000 A 
ATOM      9  C   UNL     1       1.965   8.418  17.673  0.00  0.00    +0.000 A 
ATOM     10  C   UNL     1       1.450   9.663  18.049  0.00  0.00    +0.000 A 
ATOM     11  C   UNL     1       1.133   9.918  19.381  0.00  0.00    +0.000 A 
ATOM     12  C   UNL     1       1.303   8.925  20.334  0.00  0.00    +0.000 A 
ATOM     13  C   UNL     1       1.821   7.680  19.966  0.00  0.00    +0.000 A 
ENDBRANCH   1   8
BRANCH   1  14
ATOM     14  C   UNL     1       4.413   6.037  18.149  0.00  0.00    +0.000 C 
BRANCH  14  15
ATOM     15  O   UNL     1       4.879   7.002  17.244  0.00  0.00    +0.000 OA
ATOM     16  H   UNL     1       4.088   7.433  16.827  0.00  0.00    +0.000 HD
ENDBRANCH  14  15
BRANCH  14  17
ATOM     17  C   UNL     1       5.074   4.663  17.841  0.00  0.00    +0.000 C 
BRANCH  17  19
ATOM     18  C   UNL     1       7.419   4.580  17.323  0.00  0.00    +0.000 C 
ATOM     19  N   UNL     1       6.432   4.459  18.414  0.00  0.00    +0.000 NA
ATOM     20  C   UNL     1       6.772   5.446  19.457  0.00  0.00    +0.000 C 
ENDBRANCH  17  19
ENDBRANCH  14  17
ENDBRANCH   1  14
TORSDOF 6
ENDMDL
MODEL 7
REMARK VINA RESULT:      -6.8      1.737      2.494
REMARK  Name = 
REMARK  8 active torsions:
REMARK  status: ('A' for Active; 'I' for Inactive)
REMARK    1  A    between atoms: C_1  and  N_2
REMARK    2  A    between atoms: N_2  and  C_3
REMARK    3  A    between atoms: N_2  and  C_4
REMARK    4  A    between atoms: C_4  and  C_5
REMARK    5  A    between atoms: C_5  and  O_6
REMARK    6  A    between atoms: C_5  and  C_7
REMARK    7  A    between atoms: C_7  and  C_8
REMARK    8  A    between atoms: C_7  and  C_14
REMARK                            x       y       z     vdW  Elec       q    Type
REMARK                         _______ _______ _______ _____ _____    ______ ____
ROOT
ATOM      1  C   UNL     1       3.632   4.517  17.966  0.00  0.00    +0.000 C 
ENDROOT
BRANCH   1   2
ATOM      2  C   UNL     1       3.076   5.876  18.430  0.00  0.00    +0.000 A 
ATOM      3  C   UNL     1       2.943   6.968  17.537  0.00  0.00    +0.000 A 
ATOM      4  C   UNL     1       2.373   8.170  17.947  0.00  0.00    +0.000 A 
ATOM      5  C   UNL     1       1.935   8.322  19.260  0.00  0.00    +0.000 A 
ATOM      6  C   UNL     1       2.075   7.270  20.167  0.00  0.00    +0.000 A 
ATOM      7  C   UNL     1       2.643   6.054  19.759  0.00  0.00    +0.000 A 
ENDBRANCH   1   2
BRANCH   1   8
ATOM      8  C   UNL     1       4.881   4.691  17.062  0.00  0.00    +0.000 A 
ATOM      9  C   UNL     1       5.907   5.594  17.426  0.00  0.00    +0.000 A 
ATOM     10  C   UNL     1       7.019   5.805  16.604  0.00  0.00    +0.000 A 
ATOM     11  C   UNL     1       7.152   5.099  15.410  0.00  0.00    +0.000 A 
ATOM     12  C   UNL     1       6.193   4.165  15.049  0.00  0.00    +0.000 A 
ATOM     13  C   UNL     1       5.078   3.952  15.864  0.00  0.00    +0.000 A 
ENDBRANCH   1   8
BRANCH   1  14
ATOM     14  C   UNL     1       3.855   3.580  19.225  0.00  0.00    +0.000 C 
BRANCH  14  15
ATOM     15  O   UNL     1       5.216   3.266  19.358  0.00  0.00    +0.000 OA
ATOM     16  H   UNL     1       5.609   3.231  18.448  0.00  0.00    +0.000 HD
ENDBRANCH  14  15
BRANCH  14  17
ATOM     17  C   UNL     1       3.007   2.276  19.261  0.00  0.00    +0.000 C 
BRANCH  17  19
ATOM     18  C   UNL     1       2.354   2.838  21.504  0.00  0.00    +0.000 C 
ATOM     19  N   UNL     1       1.876   2.271  20.227  0.00  0.00    +0.000 NA
ATOM     20  C   UNL     1       0.722   3.069  19.770  0.00  0.00    +0.000 C 
ENDBRANCH  17  19
ENDBRANCH  14  17
ENDBRANCH   1  14
TORSDOF 6
ENDMDL
MODEL 8
REMARK VINA RESULT:      -6.8      1.709      2.210
REMARK  Name = 
REMARK  8 active torsions:
REMARK  status: ('A' for Active; 'I' for Inactive)
REMARK    1  A    between atoms: C_1  and  N_2
REMARK    2  A    between atoms: N_2  and  C_3
REMARK    3  A    between atoms: N_2  and  C_4
REMARK    4  A    between atoms: C_4  and  C_5
REMARK    5  A    between atoms: C_5  and  O_6
REMARK    6  A    between atoms: C_5  and  C_7
REMARK    7  A    between atoms: C_7  and  C_8
REMARK    8  A    between atoms: C_7  and  C_14
REMARK                            x       y       z     vdW  Elec       q    Type
REMARK                         _______ _______ _______ _____ _____    ______ ____
ROOT
ATOM      1  C   UNL     1       3.611   4.449  17.870  0.00  0.00    +0.000 C 
ENDROOT
BRANCH   1   2
ATOM      2  C   UNL     1       2.988   5.755  18.399  0.00  0.00    +0.000 A 
ATOM      3  C   UNL     1       2.553   5.880  19.741  0.00  0.00    +0.000 A 
ATOM      4  C   UNL     1       2.058   7.087  20.229  0.00  0.00    +0.000 A 
ATOM      5  C   UNL     1       1.968   8.194  19.390  0.00  0.00    +0.000 A 
ATOM      6  C   UNL     1       2.368   8.092  18.056  0.00  0.00    +0.000 A 
ATOM      7  C   UNL     1       2.874   6.881  17.559  0.00  0.00    +0.000 A 
ENDBRANCH   1   2
BRANCH   1   8
ATOM      8  C   UNL     1       4.890   4.725  17.037  0.00  0.00    +0.000 A 
ATOM      9  C   UNL     1       5.106   4.050  15.814  0.00  0.00    +0.000 A 
ATOM     10  C   UNL     1       6.274   4.245  15.069  0.00  0.00    +0.000 A 
ATOM     11  C   UNL     1       7.245   5.142  15.510  0.00  0.00    +0.000 A 
ATOM     12  C   UNL     1       7.041   5.863  16.676  0.00  0.00    +0.000 A 
ATOM     13  C   UNL     1       5.878   5.669  17.427  0.00  0.00    +0.000 A 
ENDBRANCH   1   8
BRANCH   1  14
ATOM     14  C   UNL     1       3.813   3.436  19.072  0.00  0.00    +0.000 C 
BRANCH  14  15
ATOM     15  O   UNL     1       5.182   3.234  19.309  0.00  0.00    +0.000 OA
ATOM     16  H   UNL     1       5.654   3.320  18.440  0.00  0.00    +0.000 HD
ENDBRANCH  14  15
BRANCH  14  17
ATOM     17  C   UNL     1       3.094   2.064  18.934  0.00  0.00    +0.000 C 
BRANCH  17  19
ATOM     18  C   UNL     1       1.879   2.611  20.933  0.00  0.00    +0.000 C 
ATOM     19  N   UNL     1       1.775   1.957  19.613  0.00  0.00    +0.000 NA
ATOM     20  C   UNL     1       0.684   2.605  18.861  0.00  0.00    +0.000 C 
ENDBRANCH  17  19
ENDBRANCH  14  17
ENDBRANCH   1  14
TORSDOF 6
ENDMDL
MODEL 9
REMARK VINA RESULT:      -6.8      1.914      5.045
REMARK  Name = 
REMARK  8 active torsions:
REMARK  status: ('A' for Active; 'I' for Inactive)
REMARK    1  A    between atoms: C_1  and  N_2
REMARK    2  A    between atoms: N_2  and  C_3
REMARK    3  A    between atoms: N_2  and  C_4
REMARK    4  A    between atoms: C_4  and  C_5
REMARK    5  A    between atoms: C_5  and  O_6
REMARK    6  A    between atoms: C_5  and  C_7
REMARK    7  A    between atoms: C_7  and  C_8
REMARK    8  A    between atoms: C_7  and  C_14
REMARK                            x       y       z     vdW  Elec       q    Type
REMARK                         _______ _______ _______ _____ _____    ______ ____
ROOT
ATOM      1  C   UNL     1       2.810   6.077  18.172  0.00  0.00    +0.000 C 
ENDROOT
BRANCH   1   2
ATOM      2  C   UNL     1       2.281   4.919  19.039  0.00  0.00    +0.000 A 
ATOM      3  C   UNL     1       1.413   3.932  18.510  0.00  0.00    +0.000 A 
ATOM      4  C   UNL     1       0.998   2.849  19.281  0.00  0.00    +0.000 A 
ATOM      5  C   UNL     1       1.422   2.729  20.601  0.00  0.00    +0.000 A 
ATOM      6  C   UNL     1       2.260   3.699  21.155  0.00  0.00    +0.000 A 
ATOM      7  C   UNL     1       2.687   4.790  20.383  0.00  0.00    +0.000 A 
ENDBRANCH   1   2
BRANCH   1   8
ATOM      8  C   UNL     1       2.197   7.436  18.604  0.00  0.00    +0.000 A 
ATOM      9  C   UNL     1       1.878   7.678  19.959  0.00  0.00    +0.000 A 
ATOM     10  C   UNL     1       1.280   8.876  20.365  0.00  0.00    +0.000 A 
ATOM     11  C   UNL     1       1.010   9.876  19.434  0.00  0.00    +0.000 A 
ATOM     12  C   UNL     1       1.361   9.695  18.105  0.00  0.00    +0.000 A 
ATOM     13  C   UNL     1       1.955   8.499  17.692  0.00  0.00    +0.000 A 
ENDBRANCH   1   8
BRANCH   1  14
ATOM     14  C   UNL     1       4.394   6.044  18.156  0.00  0.00    +0.000 C 
BRANCH  14  15
ATOM     15  O   UNL     1       4.888   7.016  17.272  0.00  0.00    +0.000 OA
ATOM     16  H   UNL     1       4.114   7.533  16.928  0.00  0.00    +0.000 HD
ENDBRANCH  14  15
BRANCH  14  17
ATOM     17  C   UNL     1       5.042   4.666  17.839  0.00  0.00    +0.000 C 
BRANCH  17  19
ATOM     18  C   UNL     1       7.381   4.542  17.304  0.00  0.00    +0.000 C 
ATOM     19  N   UNL     1       6.401   4.448  18.404  0.00  0.00    +0.000 NA
ATOM     20  C   UNL     1       6.763   5.442  19.433  0.00  0.00    +0.000 C 
ENDBRANCH  17  19
ENDBRANCH  14  17
ENDBRANCH   1  14
TORSDOF 6
ENDMDL
