MODEL 1
REMARK VINA RESULT:      -6.5      0.000      0.000
REMARK  Name = 
REMARK  9 active torsions:
REMARK  status: ('A' for Active; 'I' for Inactive)
REMARK    1  A    between atoms: C_1  and  C_2
REMARK    2  A    between atoms: C_2  and  N_3
REMARK    3  A    between atoms: N_12  and  C_13
REMARK    4  A    between atoms: C_13  and  O_14
REMARK    5  A    between atoms: O_14  and  C_15
REMARK    6  A    between atoms: C_15  and  C_16
REMARK    7  A    between atoms: C_16  and  O_17
REMARK    8  A    between atoms: O_17  and  C_18
REMARK    9  A    between atoms: C_18  and  C_19
REMARK                            x       y       z     vdW  Elec       q    Type
REMARK                         _______ _______ _______ _____ _____    ______ ____
ROOT
ATOM      1  N   UNL     1       2.715   6.209  18.843  0.00  0.00    +0.000 N 
ATOM      2  C   UNL     1       2.100   5.417  19.824  0.00  0.00    +0.000 A 
ATOM      3  O   UNL     1       1.608   5.854  20.855  0.00  0.00    +0.000 OA
ATOM      4  C   UNL     1       2.098   4.049  19.492  0.00  0.00    +0.000 A 
ATOM      5  C   UNL     1       2.701   3.532  18.360  0.00  0.00    +0.000 A 
ATOM      6  N   UNL     1       2.519   2.215  18.260  0.00  0.00    +0.000 NA
ATOM      7  O   UNL     1       1.779   1.851  19.388  0.00  0.00    +0.000 OA
ATOM      8  N   UNL     1       1.541   3.048  20.153  0.00  0.00    +0.000 N 
ATOM      9  O   UNL     1       0.852   2.913  21.188  0.00  0.00    +0.000 OA
ATOM     10  N   UNL     1       3.380   4.355  17.480  0.00  0.00    +0.000 N 
ATOM     11  C   UNL     1       3.400   5.731  17.704  0.00  0.00    +0.000 A 
ATOM     12  O   UNL     1       3.973   6.505  16.933  0.00  0.00    +0.000 OA
ENDROOT
BRANCH   1  14
ATOM     13  C   UNL     1       1.773   8.366  18.050  0.00  0.00    +0.000 C 
ATOM     14  C   UNL     1       2.677   7.657  19.048  0.00  0.00    +0.000 C 
ENDBRANCH   1  14
BRANCH  10  15
ATOM     15  C   UNL     1       4.071   3.806  16.327  0.00  0.00    +0.000 C 
BRANCH  15  16
ATOM     16  O   UNL     1       5.406   3.499  16.713  0.00  0.00    +0.000 OA
BRANCH  16  17
ATOM     17  C   UNL     1       6.367   4.097  15.841  0.00  0.00    +0.000 C 
BRANCH  17  18
ATOM     18  C   UNL     1       7.426   4.808  16.685  0.00  0.00    +0.000 C 
BRANCH  18  19
ATOM     19  O   UNL     1       7.516   6.205  16.349  0.00  0.00    +0.000 OA
BRANCH  19  20
ATOM     20  C   UNL     1       7.515   7.064  17.398  0.00  0.00    +0.000 C 
ATOM     21  C   UNL     1       7.766   6.336  18.685  0.00  0.00    +0.000 C 
ATOM     22  O   UNL     1       7.329   8.271  17.322  0.00  0.00    +0.000 OA
ENDBRANCH  19  20
ENDBRANCH  18  19
ENDBRANCH  17  18
ENDBRANCH  16  17
ENDBRANCH  15  16
ENDBRANCH  10  15
TORSDOF 7
ENDMDL
MODEL 2
REMARK VINA RESULT:      -6.4      2.463      6.170
REMARK  Name = 
REMARK  9 active torsions:
REMARK  status: ('A' for Active; 'I' for Inactive)
REMARK    1  A    between atoms: C_1  and  C_2
REMARK    2  A    between atoms: C_2  and  N_3
REMARK    3  A    between atoms: N_12  and  C_13
REMARK    4  A    between atoms: C_13  and  O_14
REMARK    5  A    between atoms: O_14  and  C_15
REMARK    6  A    between atoms: C_15  and  C_16
REMARK    7  A    between atoms: C_16  and  O_17
REMARK    8  A    between atoms: O_17  and  C_18
REMARK    9  A    between atoms: C_18  and  C_19
REMARK                            x       y       z     vdW  Elec       q    Type
REMARK                         _______ _______ _______ _____ _____    ______ ____
ROOT
ATOM      1  N   UNL     1       6.553   5.480  17.986  0.00  0.00    +0.000 N 
ATOM      2  C   UNL     1       7.107   5.820  16.742  0.00  0.00    +0.000 A 
ATOM      3  O   UNL     1       7.897   6.738  16.567  0.00  0.00    +0.000 OA
ATOM      4  C   UNL     1       6.663   4.980  15.703  0.00  0.00    +0.000 A 
ATOM      5  C   UNL     1       5.727   3.977  15.874  0.00  0.00    +0.000 A 
ATOM      6  N   UNL     1       5.512   3.302  14.745  0.00  0.00    +0.000 NA
ATOM      7  O   UNL     1       6.332   3.905  13.786  0.00  0.00    +0.000 OA
ATOM      8  N   UNL     1       7.040   4.977  14.436  0.00  0.00    +0.000 N 
ATOM      9  O   UNL     1       7.857   5.607  13.728  0.00  0.00    +0.000 OA
ATOM     10  N   UNL     1       5.142   3.756  17.108  0.00  0.00    +0.000 N 
ATOM     11  C   UNL     1       5.550   4.511  18.206  0.00  0.00    +0.000 A 
ATOM     12  O   UNL     1       5.072   4.333  19.329  0.00  0.00    +0.000 OA
ENDROOT
BRANCH   1  14
ATOM     13  C   UNL     1       8.243   5.585  19.803  0.00  0.00    +0.000 C 
ATOM     14  C   UNL     1       7.031   6.231  19.146  0.00  0.00    +0.000 C 
ENDBRANCH   1  14
BRANCH  10  15
ATOM     15  C   UNL     1       4.110   2.747  17.274  0.00  0.00    +0.000 C 
BRANCH  15  16
ATOM     16  O   UNL     1       2.850   3.407  17.333  0.00  0.00    +0.000 OA
BRANCH  16  17
ATOM     17  C   UNL     1       1.849   2.595  17.950  0.00  0.00    +0.000 C 
BRANCH  17  18
ATOM     18  C   UNL     1       1.151   3.412  19.039  0.00  0.00    +0.000 C 
BRANCH  18  19
ATOM     19  O   UNL     1       1.299   2.799  20.333  0.00  0.00    +0.000 OA
BRANCH  19  20
ATOM     20  C   UNL     1       1.911   3.558  21.276  0.00  0.00    +0.000 C 
ATOM     21  C   UNL     1       2.028   4.982  20.823  0.00  0.00    +0.000 C 
ATOM     22  O   UNL     1       2.322   3.148  22.353  0.00  0.00    +0.000 OA
ENDBRANCH  19  20
ENDBRANCH  18  19
ENDBRANCH  17  18
ENDBRANCH  16  17
ENDBRANCH  15  16
ENDBRANCH  10  15
TORSDOF 7
ENDMDL
MODEL 3
REMARK VINA RESULT:      -6.4      1.213      3.257
REMARK  Name = 
REMARK  9 active torsions:
REMARK  status: ('A' for Active; 'I' for Inactive)
REMARK    1  A    between atoms: C_1  and  C_2
REMARK    2  A    between atoms: C_2  and  N_3
REMARK    3  A    between atoms: N_12  and  C_13
REMARK    4  A    between atoms: C_13  and  O_14
REMARK    5  A    between atoms: O_14  and  C_15
REMARK    6  A    between atoms: C_15  and  C_16
REMARK    7  A    between atoms: C_16  and  O_17
REMARK    8  A    between atoms: O_17  and  C_18
REMARK    9  A    between atoms: C_18  and  C_19
REMARK                            x       y       z     vdW  Elec       q    Type
REMARK                         _______ _______ _______ _____ _____    ______ ____
ROOT
ATOM      1  N   UNL     1       2.155   3.597  19.521  0.00  0.00    +0.000 N 
ATOM      2  C   UNL     1       1.854   4.924  19.864  0.00  0.00    +0.000 A 
ATOM      3  O   UNL     1       1.140   5.248  20.803  0.00  0.00    +0.000 OA
ATOM      4  C   UNL     1       2.474   5.858  19.012  0.00  0.00    +0.000 A 
ATOM      5  C   UNL     1       3.235   5.507  17.912  0.00  0.00    +0.000 A 
ATOM      6  N   UNL     1       3.742   6.577  17.299  0.00  0.00    +0.000 NA
ATOM      7  O   UNL     1       3.274   7.679  18.021  0.00  0.00    +0.000 OA
ATOM      8  N   UNL     1       2.461   7.177  19.098  0.00  0.00    +0.000 N 
ATOM      9  O   UNL     1       1.988   8.034  19.877  0.00  0.00    +0.000 OA
ATOM     10  N   UNL     1       3.412   4.180  17.567  0.00  0.00    +0.000 N 
ATOM     11  C   UNL     1       2.871   3.181  18.376  0.00  0.00    +0.000 A 
ATOM     12  O   UNL     1       3.023   1.985  18.119  0.00  0.00    +0.000 OA
ENDROOT
BRANCH   1  14
ATOM     13  C   UNL     1       2.409   2.468  21.718  0.00  0.00    +0.000 C 
ATOM     14  C   UNL     1       1.639   2.555  20.408  0.00  0.00    +0.000 C 
ENDBRANCH   1  14
BRANCH  10  15
ATOM     15  C   UNL     1       4.155   3.811  16.374  0.00  0.00    +0.000 C 
BRANCH  15  16
ATOM     16  O   UNL     1       5.541   3.810  16.698  0.00  0.00    +0.000 OA
BRANCH  16  17
ATOM     17  C   UNL     1       6.355   4.136  15.569  0.00  0.00    +0.000 C 
BRANCH  17  18
ATOM     18  C   UNL     1       7.435   5.126  16.006  0.00  0.00    +0.000 C 
BRANCH  18  19
ATOM     19  O   UNL     1       6.873   6.413  16.323  0.00  0.00    +0.000 OA
BRANCH  19  20
ATOM     20  C   UNL     1       7.463   7.076  17.349  0.00  0.00    +0.000 C 
ATOM     21  C   UNL     1       7.627   6.180  18.540  0.00  0.00    +0.000 C 
ATOM     22  O   UNL     1       7.815   8.248  17.322  0.00  0.00    +0.000 OA
ENDBRANCH  19  20
ENDBRANCH  18  19
ENDBRANCH  17  18
ENDBRANCH  16  17
ENDBRANCH  15  16
ENDBRANCH  10  15
TORSDOF 7
ENDMDL
MODEL 4
REMARK VINA RESULT:      -6.4      1.986      3.807
REMARK  Name = 
REMARK  9 active torsions:
REMARK  status: ('A' for Active; 'I' for Inactive)
REMARK    1  A    between atoms: C_1  and  C_2
REMARK    2  A    between atoms: C_2  and  N_3
REMARK    3  A    between atoms: N_12  and  C_13
REMARK    4  A    between atoms: C_13  and  O_14
REMARK    5  A    between atoms: O_14  and  C_15
REMARK    6  A    between atoms: C_15  and  C_16
REMARK    7  A    between atoms: C_16  and  O_17
REMARK    8  A    between atoms: O_17  and  C_18
REMARK    9  A    between atoms: C_18  and  C_19
REMARK                            x       y       z     vdW  Elec       q    Type
REMARK                         _______ _______ _______ _____ _____    ______ ____
ROOT
ATOM      1  N   UNL     1       2.720   4.485  20.632  0.00  0.00    +0.000 N 
ATOM      2  C   UNL     1       2.108   5.715  20.342  0.00  0.00    +0.000 A 
ATOM      3  O   UNL     1       1.130   6.154  20.931  0.00  0.00    +0.000 OA
ATOM      4  C   UNL     1       2.750   6.405  19.296  0.00  0.00    +0.000 A 
ATOM      5  C   UNL     1       3.819   5.896  18.582  0.00  0.00    +0.000 A 
ATOM      6  N   UNL     1       4.267   6.765  17.676  0.00  0.00    +0.000 NA
ATOM      7  O   UNL     1       3.440   7.886  17.789  0.00  0.00    +0.000 OA
ATOM      8  N   UNL     1       2.480   7.611  18.826  0.00  0.00    +0.000 N 
ATOM      9  O   UNL     1       1.676   8.532  19.091  0.00  0.00    +0.000 OA
ATOM     10  N   UNL     1       4.314   4.633  18.850  0.00  0.00    +0.000 N 
ATOM     11  C   UNL     1       3.769   3.890  19.897  0.00  0.00    +0.000 A 
ATOM     12  O   UNL     1       4.194   2.769  20.187  0.00  0.00    +0.000 OA
ENDROOT
BRANCH   1  14
ATOM     13  C   UNL     1       1.124   2.729  21.365  0.00  0.00    +0.000 C 
ATOM     14  C   UNL     1       2.188   3.739  21.771  0.00  0.00    +0.000 C 
ENDBRANCH   1  14
BRANCH  10  15
ATOM     15  C   UNL     1       5.393   4.070  18.057  0.00  0.00    +0.000 C 
BRANCH  15  16
ATOM     16  O   UNL     1       6.615   4.285  18.755  0.00  0.00    +0.000 OA
BRANCH  16  17
ATOM     17  C   UNL     1       7.611   4.881  17.921  0.00  0.00    +0.000 C 
BRANCH  17  18
ATOM     18  C   UNL     1       7.365   4.451  16.474  0.00  0.00    +0.000 C 
BRANCH  18  19
ATOM     19  O   UNL     1       7.192   5.589  15.609  0.00  0.00    +0.000 OA
BRANCH  19  20
ATOM     20  C   UNL     1       6.062   5.591  14.858  0.00  0.00    +0.000 C 
ATOM     21  C   UNL     1       5.822   4.241  14.251  0.00  0.00    +0.000 C 
ATOM     22  O   UNL     1       5.331   6.556  14.687  0.00  0.00    +0.000 OA
ENDBRANCH  19  20
ENDBRANCH  18  19
ENDBRANCH  17  18
ENDBRANCH  16  17
ENDBRANCH  15  16
ENDBRANCH  10  15
TORSDOF 7
ENDMDL
MODEL 5
REMARK VINA RESULT:      -6.4      1.814      2.359
REMARK  Name = 
REMARK  9 active torsions:
REMARK  status: ('A' for Active; 'I' for Inactive)
REMARK    1  A    between atoms: C_1  and  C_2
REMARK    2  A    between atoms: C_2  and  N_3
REMARK    3  A    between atoms: N_12  and  C_13
REMARK    4  A    between atoms: C_13  and  O_14
REMARK    5  A    between atoms: O_14  and  C_15
REMARK    6  A    between atoms: C_15  and  C_16
REMARK    7  A    between atoms: C_16  and  O_17
REMARK    8  A    between atoms: O_17  and  C_18
REMARK    9  A    between atoms: C_18  and  C_19
REMARK                            x       y       z     vdW  Elec       q    Type
REMARK                         _______ _______ _______ _____ _____    ______ ____
ROOT
ATOM      1  N   UNL     1       2.515   5.587  18.868  0.00  0.00    +0.000 N 
ATOM      2  C   UNL     1       2.049   4.961  20.034  0.00  0.00    +0.000 A 
ATOM      3  O   UNL     1       1.062   5.319  20.662  0.00  0.00    +0.000 OA
ATOM      4  C   UNL     1       2.838   3.857  20.409  0.00  0.00    +0.000 A 
ATOM      5  C   UNL     1       3.989   3.475  19.745  0.00  0.00    +0.000 A 
ATOM      6  N   UNL     1       4.525   2.375  20.275  0.00  0.00    +0.000 NA
ATOM      7  O   UNL     1       3.696   2.034  21.347  0.00  0.00    +0.000 OA
ATOM      8  N   UNL     1       2.639   3.010  21.404  0.00  0.00    +0.000 N 
ATOM      9  O   UNL     1       1.774   2.834  22.291  0.00  0.00    +0.000 OA
ATOM     10  N   UNL     1       4.453   4.195  18.659  0.00  0.00    +0.000 N 
ATOM     11  C   UNL     1       3.715   5.280  18.188  0.00  0.00    +0.000 A 
ATOM     12  O   UNL     1       4.078   5.936  17.209  0.00  0.00    +0.000 OA
ENDROOT
BRANCH   1  14
ATOM     13  C   UNL     1       2.213   8.050  18.774  0.00  0.00    +0.000 C 
ATOM     14  C   UNL     1       1.703   6.683  18.340  0.00  0.00    +0.000 C 
ENDBRANCH   1  14
BRANCH  10  15
ATOM     15  C   UNL     1       5.697   3.835  18.001  0.00  0.00    +0.000 C 
BRANCH  15  16
ATOM     16  O   UNL     1       6.771   4.409  18.739  0.00  0.00    +0.000 OA
BRANCH  16  17
ATOM     17  C   UNL     1       7.862   4.781  17.894  0.00  0.00    +0.000 C 
BRANCH  17  18
ATOM     18  C   UNL     1       7.306   5.352  16.589  0.00  0.00    +0.000 C 
BRANCH  18  19
ATOM     19  O   UNL     1       7.803   4.633  15.445  0.00  0.00    +0.000 OA
BRANCH  19  20
ATOM     20  C   UNL     1       7.161   4.873  14.275  0.00  0.00    +0.000 C 
ATOM     21  C   UNL     1       5.779   4.293  14.293  0.00  0.00    +0.000 C 
ATOM     22  O   UNL     1       7.635   5.477  13.321  0.00  0.00    +0.000 OA
ENDBRANCH  19  20
ENDBRANCH  18  19
ENDBRANCH  17  18
ENDBRANCH  16  17
ENDBRANCH  15  16
ENDBRANCH  10  15
TORSDOF 7
ENDMDL
MODEL 6
REMARK VINA RESULT:      -6.4      2.129      4.279
REMARK  Name = 
REMARK  9 active torsions:
REMARK  status: ('A' for Active; 'I' for Inactive)
REMARK    1  A    between atoms: C_1  and  C_2
REMARK    2  A    between atoms: C_2  and  N_3
REMARK    3  A    between atoms: N_12  and  C_13
REMARK    4  A    between atoms: C_13  and  O_14
REMARK    5  A    between atoms: O_14  and  C_15
REMARK    6  A    between atoms: C_15  and  C_16
REMARK    7  A    between atoms: C_16  and  O_17
REMARK    8  A    between atoms: O_17  and  C_18
REMARK    9  A    between atoms: C_18  and  C_19
REMARK                            x       y       z     vdW  Elec       q    Type
REMARK                         _______ _______ _______ _____ _____    ______ ____
ROOT
ATOM      1  N   UNL     1       2.377   3.759  19.392  0.00  0.00    +0.000 N 
ATOM      2  C   UNL     1       1.932   5.053  19.703  0.00  0.00    +0.000 A 
ATOM      3  O   UNL     1       1.102   5.308  20.565  0.00  0.00    +0.000 OA
ATOM      4  C   UNL     1       2.552   6.043  18.918  0.00  0.00    +0.000 A 
ATOM      5  C   UNL     1       3.448   5.768  17.901  0.00  0.00    +0.000 A 
ATOM      6  N   UNL     1       3.921   6.882  17.343  0.00  0.00    +0.000 NA
ATOM      7  O   UNL     1       3.291   7.934  18.013  0.00  0.00    +0.000 OA
ATOM      8  N   UNL     1       2.419   7.356  19.002  0.00  0.00    +0.000 N 
ATOM      9  O   UNL     1       1.798   8.163  19.729  0.00  0.00    +0.000 OA
ATOM     10  N   UNL     1       3.771   4.463  17.575  0.00  0.00    +0.000 N 
ATOM     11  C   UNL     1       3.238   3.416  18.325  0.00  0.00    +0.000 A 
ATOM     12  O   UNL     1       3.516   2.238  18.086  0.00  0.00    +0.000 OA
ENDROOT
BRANCH   1  14
ATOM     13  C   UNL     1       2.524   2.619  21.593  0.00  0.00    +0.000 C 
ATOM     14  C   UNL     1       1.865   2.670  20.222  0.00  0.00    +0.000 C 
ENDBRANCH   1  14
BRANCH  10  15
ATOM     15  C   UNL     1       4.660   4.169  16.464  0.00  0.00    +0.000 C 
BRANCH  15  16
ATOM     16  O   UNL     1       6.000   4.219  16.942  0.00  0.00    +0.000 OA
BRANCH  16  17
ATOM     17  C   UNL     1       6.924   4.562  15.908  0.00  0.00    +0.000 C 
BRANCH  17  18
ATOM     18  C   UNL     1       6.157   4.743  14.597  0.00  0.00    +0.000 C 
BRANCH  18  19
ATOM     19  O   UNL     1       6.108   3.518  13.842  0.00  0.00    +0.000 OA
BRANCH  19  20
ATOM     20  C   UNL     1       6.425   3.624  12.528  0.00  0.00    +0.000 C 
ATOM     21  C   UNL     1       5.673   2.615  11.714  0.00  0.00    +0.000 C 
ATOM     22  O   UNL     1       7.218   4.427  12.056  0.00  0.00    +0.000 OA
ENDBRANCH  19  20
ENDBRANCH  18  19
ENDBRANCH  17  18
ENDBRANCH  16  17
ENDBRANCH  15  16
ENDBRANCH  10  15
TORSDOF 7
ENDMDL
MODEL 7
REMARK VINA RESULT:      -6.3      0.986      1.068
REMARK  Name = 
REMARK  9 active torsions:
REMARK  status: ('A' for Active; 'I' for Inactive)
REMARK    1  A    between atoms: C_1  and  C_2
REMARK    2  A    between atoms: C_2  and  N_3
REMARK    3  A    between atoms: N_12  and  C_13
REMARK    4  A    between atoms: C_13  and  O_14
REMARK    5  A    between atoms: O_14  and  C_15
REMARK    6  A    between atoms: C_15  and  C_16
REMARK    7  A    between atoms: C_16  and  O_17
REMARK    8  A    between atoms: O_17  and  C_18
REMARK    9  A    between atoms: C_18  and  C_19
REMARK                            x       y       z     vdW  Elec       q    Type
REMARK                         _______ _______ _______ _____ _____    ______ ____
ROOT
ATOM      1  N   UNL     1       2.760   6.265  19.162  0.00  0.00    +0.000 N 
ATOM      2  C   UNL     1       2.061   5.354  19.968  0.00  0.00    +0.000 A 
ATOM      3  O   UNL     1       1.206   5.669  20.784  0.00  0.00    +0.000 OA
ATOM      4  C   UNL     1       2.443   4.019  19.733  0.00  0.00    +0.000 A 
ATOM      5  C   UNL     1       3.448   3.651  18.857  0.00  0.00    +0.000 A 
ATOM      6  N   UNL     1       3.583   2.327  18.787  0.00  0.00    +0.000 NA
ATOM      7  O   UNL     1       2.635   1.805  19.672  0.00  0.00    +0.000 OA
ATOM      8  N   UNL     1       1.937   2.918  20.262  0.00  0.00    +0.000 N 
ATOM      9  O   UNL     1       1.016   2.632  21.059  0.00  0.00    +0.000 OA
ATOM     10  N   UNL     1       4.170   4.606  18.164  0.00  0.00    +0.000 N 
ATOM     11  C   UNL     1       3.835   5.952  18.301  0.00  0.00    +0.000 A 
ATOM     12  O   UNL     1       4.436   6.836  17.686  0.00  0.00    +0.000 OA
ENDROOT
BRANCH   1  14
ATOM     13  C   UNL     1       1.823   8.219  17.947  0.00  0.00    +0.000 C 
ATOM     14  C   UNL     1       2.362   7.669  19.260  0.00  0.00    +0.000 C 
ENDBRANCH   1  14
BRANCH  10  15
ATOM     15  C   UNL     1       5.270   4.225  17.296  0.00  0.00    +0.000 C 
BRANCH  15  16
ATOM     16  O   UNL     1       4.931   4.592  15.963  0.00  0.00    +0.000 OA
BRANCH  16  17
ATOM     17  C   UNL     1       6.069   5.043  15.226  0.00  0.00    +0.000 C 
BRANCH  17  18
ATOM     18  C   UNL     1       7.218   5.304  16.200  0.00  0.00    +0.000 C 
BRANCH  18  19
ATOM     19  O   UNL     1       7.440   6.713  16.388  0.00  0.00    +0.000 OA
BRANCH  19  20
ATOM     20  C   UNL     1       7.730   7.099  17.656  0.00  0.00    +0.000 C 
ATOM     21  C   UNL     1       7.981   8.575  17.721  0.00  0.00    +0.000 C 
ATOM     22  O   UNL     1       7.788   6.353  18.625  0.00  0.00    +0.000 OA
ENDBRANCH  19  20
ENDBRANCH  18  19
ENDBRANCH  17  18
ENDBRANCH  16  17
ENDBRANCH  15  16
ENDBRANCH  10  15
TORSDOF 7
ENDMDL
MODEL 8
REMARK VINA RESULT:      -6.3      1.969      5.214
REMARK  Name = 
REMARK  9 active torsions:
REMARK  status: ('A' for Active; 'I' for Inactive)
REMARK    1  A    between atoms: C_1  and  C_2
REMARK    2  A    between atoms: C_2  and  N_3
REMARK    3  A    between atoms: N_12  and  C_13
REMARK    4  A    between atoms: C_13  and  O_14
REMARK    5  A    between atoms: O_14  and  C_15
REMARK    6  A    between atoms: C_15  and  C_16
REMARK    7  A    between atoms: C_16  and  O_17
REMARK    8  A    between atoms: O_17  and  C_18
REMARK    9  A    between atoms: C_18  and  C_19
REMARK                            x       y       z     vdW  Elec       q    Type
REMARK                         _______ _______ _______ _____ _____    ______ ____
ROOT
ATOM      1  N   UNL     1       3.463   6.327  17.892  0.00  0.00    +0.000 N 
ATOM      2  C   UNL     1       4.705   6.660  17.330  0.00  0.00    +0.000 A 
ATOM      3  O   UNL     1       5.195   7.780  17.356  0.00  0.00    +0.000 OA
ATOM      4  C   UNL     1       5.343   5.556  16.732  0.00  0.00    +0.000 A 
ATOM      5  C   UNL     1       4.777   4.298  16.643  0.00  0.00    +0.000 A 
ATOM      6  N   UNL     1       5.603   3.423  16.070  0.00  0.00    +0.000 NA
ATOM      7  O   UNL     1       6.756   4.147  15.753  0.00  0.00    +0.000 OA
ATOM      8  N   UNL     1       6.544   5.505  16.183  0.00  0.00    +0.000 N 
ATOM      9  O   UNL     1       7.500   6.293  16.011  0.00  0.00    +0.000 OA
ATOM     10  N   UNL     1       3.504   4.057  17.128  0.00  0.00    +0.000 N 
ATOM     11  C   UNL     1       2.811   5.079  17.775  0.00  0.00    +0.000 A 
ATOM     12  O   UNL     1       1.684   4.903  18.243  0.00  0.00    +0.000 OA
ENDROOT
BRANCH   1  14
ATOM     13  C   UNL     1       2.013   8.334  17.707  0.00  0.00    +0.000 C 
ATOM     14  C   UNL     1       2.768   7.384  18.625  0.00  0.00    +0.000 C 
ENDBRANCH   1  14
BRANCH  10  15
ATOM     15  C   UNL     1       2.881   2.754  16.975  0.00  0.00    +0.000 C 
BRANCH  15  16
ATOM     16  O   UNL     1       3.553   1.837  17.832  0.00  0.00    +0.000 OA
BRANCH  16  17
ATOM     17  C   UNL     1       2.967   1.795  19.135  0.00  0.00    +0.000 C 
BRANCH  17  18
ATOM     18  C   UNL     1       3.934   2.431  20.134  0.00  0.00    +0.000 C 
BRANCH  18  19
ATOM     19  O   UNL     1       3.446   2.319  21.484  0.00  0.00    +0.000 OA
BRANCH  19  20
ATOM     20  C   UNL     1       2.256   2.921  21.731  0.00  0.00    +0.000 C 
ATOM     21  C   UNL     1       2.312   4.379  21.386  0.00  0.00    +0.000 C 
ATOM     22  O   UNL     1       1.263   2.363  22.179  0.00  0.00    +0.000 OA
ENDBRANCH  19  20
ENDBRANCH  18  19
ENDBRANCH  17  18
ENDBRANCH  16  17
ENDBRANCH  15  16
ENDBRANCH  10  15
TORSDOF 7
ENDMDL
MODEL 9
REMARK VINA RESULT:      -6.2      1.912      2.901
REMARK  Name = 
REMARK  9 active torsions:
REMARK  status: ('A' for Active; 'I' for Inactive)
REMARK    1  A    between atoms: C_1  and  C_2
REMARK    2  A    between atoms: C_2  and  N_3
REMARK    3  A    between atoms: N_12  and  C_13
REMARK    4  A    between atoms: C_13  and  O_14
REMARK    5  A    between atoms: O_14  and  C_15
REMARK    6  A    between atoms: C_15  and  C_16
REMARK    7  A    between atoms: C_16  and  O_17
REMARK    8  A    between atoms: O_17  and  C_18
REMARK    9  A    between atoms: C_18  and  C_19
REMARK                            x       y       z     vdW  Elec       q    Type
REMARK                         _______ _______ _______ _____ _____    ______ ____
ROOT
ATOM      1  N   UNL     1       2.988   6.648  18.590  0.00  0.00    +0.000 N 
ATOM      2  C   UNL     1       2.377   5.945  19.640  0.00  0.00    +0.000 A 
ATOM      3  O   UNL     1       1.707   6.466  20.521  0.00  0.00    +0.000 OA
ATOM      4  C   UNL     1       2.609   4.558  19.571  0.00  0.00    +0.000 A 
ATOM      5  C   UNL     1       3.411   3.960  18.616  0.00  0.00    +0.000 A 
ATOM      6  N   UNL     1       3.430   2.634  18.745  0.00  0.00    +0.000 NA
ATOM      7  O   UNL     1       2.619   2.353  19.848  0.00  0.00    +0.000 OA
ATOM      8  N   UNL     1       2.123   3.608  20.351  0.00  0.00    +0.000 N 
ATOM      9  O   UNL     1       1.340   3.541  21.324  0.00  0.00    +0.000 OA
ATOM     10  N   UNL     1       4.068   4.720  17.665  0.00  0.00    +0.000 N 
ATOM     11  C   UNL     1       3.866   6.100  17.629  0.00  0.00    +0.000 A 
ATOM     12  O   UNL     1       4.412   6.814  16.785  0.00  0.00    +0.000 OA
ENDROOT
BRANCH   1  14
ATOM     13  C   UNL     1       1.509   8.412  17.658  0.00  0.00    +0.000 C 
ATOM     14  C   UNL     1       2.721   8.084  18.518  0.00  0.00    +0.000 C 
ENDBRANCH   1  14
BRANCH  10  15
ATOM     15  C   UNL     1       4.963   4.102  16.703  0.00  0.00    +0.000 C 
BRANCH  15  16
ATOM     16  O   UNL     1       6.278   4.592  16.942  0.00  0.00    +0.000 OA
BRANCH  16  17
ATOM     17  C   UNL     1       7.113   4.468  15.789  0.00  0.00    +0.000 C 
BRANCH  17  18
ATOM     18  C   UNL     1       6.255   4.641  14.535  0.00  0.00    +0.000 C 
BRANCH  18  19
ATOM     19  O   UNL     1       6.282   3.461  13.711  0.00  0.00    +0.000 OA
BRANCH  19  20
ATOM     20  C   UNL     1       6.346   3.678  12.374  0.00  0.00    +0.000 C 
ATOM     21  C   UNL     1       5.128   3.140  11.686  0.00  0.00    +0.000 C 
ATOM     22  O   UNL     1       7.269   4.233  11.792  0.00  0.00    +0.000 OA
ENDBRANCH  19  20
ENDBRANCH  18  19
ENDBRANCH  17  18
ENDBRANCH  16  17
ENDBRANCH  15  16
ENDBRANCH  10  15
TORSDOF 7
ENDMDL
