MODEL 1
REMARK VINA RESULT:      -8.2      0.000      0.000
REMARK  Name = 
REMARK  5 active torsions:
REMARK  status: ('A' for Active; 'I' for Inactive)
REMARK    1  A    between atoms: C_1  and  N_2
REMARK    2  A    between atoms: N_2  and  C_3
REMARK    3  A    between atoms: N_2  and  S_9
REMARK    4  A    between atoms: S_9  and  C_12
REMARK    5  A    between atoms: C_16  and  C_17
REMARK                            x       y       z     vdW  Elec       q    Type
REMARK                         _______ _______ _______ _____ _____    ______ ____
ROOT
ATOM      1  C   UNL     1       4.374   5.827  17.173  0.00  0.00    +0.000 A 
ATOM      2  C   UNL     1       4.144   4.451  17.064  0.00  0.00    +0.000 A 
ATOM      3  C   UNL     1       3.161   3.850  17.847  0.00  0.00    +0.000 A 
ATOM      4  C   UNL     1       2.444   4.616  18.764  0.00  0.00    +0.000 A 
ATOM      5  C   UNL     1       2.717   5.985  18.932  0.00  0.00    +0.000 A 
ATOM      6  C   UNL     1       3.677   6.599  18.119  0.00  0.00    +0.000 A 
ENDROOT
BRANCH   5   7
ATOM      7  C   UNL     1       1.948   6.695  19.992  0.00  0.00    +0.000 C 
ATOM      8  O   UNL     1       1.597   6.030  20.962  0.00  0.00    +0.000 OA
ATOM      9  N   UNL     1       1.716   8.039  19.794  0.00  0.00    +0.000 N 
ATOM     10  C   UNL     1       1.138   8.804  20.774  0.00  0.00    +0.000 A 
ATOM     11  N   UNL     1       0.888   8.505  22.024  0.00  0.00    +0.000 NA
ATOM     12  C   UNL     1       0.252   9.564  22.635  0.00  0.00    +0.000 A 
ATOM     13  C   UNL     1       0.015  10.657  21.829  0.00  0.00    +0.000 A 
ATOM     14  S   UNL     1       0.688  10.376  20.273  0.00  0.00    +0.000 S 
ATOM     15  H   UNL     1       1.964   8.511  18.944  0.00  0.00    +0.000 HD
ENDBRANCH   5   7
BRANCH   1  16
ATOM     16  S   UNL     1       5.694   6.567  16.223  0.00  0.00    +0.000 S 
ATOM     17  O   UNL     1       6.393   7.468  17.117  0.00  0.00    +0.000 OA
ATOM     18  O   UNL     1       5.084   7.070  15.005  0.00  0.00    +0.000 OA
BRANCH  16  20
ATOM     19  C   UNL     1       7.243   4.439  16.928  0.00  0.00    +0.000 C 
ATOM     20  N   UNL     1       6.732   5.285  15.845  0.00  0.00    +0.000 N 
BRANCH  20  21
ATOM     21  C   UNL     1       6.747   4.779  14.511  0.00  0.00    +0.000 A 
ATOM     22  C   UNL     1       7.680   5.312  13.619  0.00  0.00    +0.000 A 
ATOM     23  C   UNL     1       7.726   4.863  12.300  0.00  0.00    +0.000 A 
ATOM     24  C   UNL     1       6.836   3.880  11.871  0.00  0.00    +0.000 A 
ATOM     25  C   UNL     1       5.913   3.335  12.765  0.00  0.00    +0.000 A 
ATOM     26  C   UNL     1       5.870   3.779  14.090  0.00  0.00    +0.000 A 
ENDBRANCH  20  21
ENDBRANCH  16  20
ENDBRANCH   1  16
TORSDOF 4
ENDMDL
MODEL 2
REMARK VINA RESULT:      -7.9      3.200      4.992
REMARK  Name = 
REMARK  5 active torsions:
REMARK  status: ('A' for Active; 'I' for Inactive)
REMARK    1  A    between atoms: C_1  and  N_2
REMARK    2  A    between atoms: N_2  and  C_3
REMARK    3  A    between atoms: N_2  and  S_9
REMARK    4  A    between atoms: S_9  and  C_12
REMARK    5  A    between atoms: C_16  and  C_17
REMARK                            x       y       z     vdW  Elec       q    Type
REMARK                         _______ _______ _______ _____ _____    ______ ____
ROOT
ATOM      1  C   UNL     1       4.128   5.842  18.223  0.00  0.00    +0.000 A 
ATOM      2  C   UNL     1       4.153   6.635  17.071  0.00  0.00    +0.000 A 
ATOM      3  C   UNL     1       3.417   7.818  17.031  0.00  0.00    +0.000 A 
ATOM      4  C   UNL     1       2.629   8.180  18.121  0.00  0.00    +0.000 A 
ATOM      5  C   UNL     1       2.541   7.352  19.255  0.00  0.00    +0.000 A 
ATOM      6  C   UNL     1       3.308   6.183  19.314  0.00  0.00    +0.000 A 
ENDROOT
BRANCH   5   7
ATOM      7  C   UNL     1       1.610   7.791  20.332  0.00  0.00    +0.000 C 
ATOM      8  O   UNL     1       1.265   6.942  21.148  0.00  0.00    +0.000 OA
ATOM      9  N   UNL     1       1.233   9.117  20.322  0.00  0.00    +0.000 N 
ATOM     10  C   UNL     1       0.491   9.644  21.347  0.00  0.00    +0.000 A 
ATOM     11  N   UNL     1       0.181   9.119  22.505  0.00  0.00    +0.000 NA
ATOM     12  C   UNL     1      -0.625   9.988  23.208  0.00  0.00    +0.000 A 
ATOM     13  C   UNL     1      -0.928  11.168  22.561  0.00  0.00    +0.000 A 
ATOM     14  S   UNL     1      -0.104  11.220  21.054  0.00  0.00    +0.000 S 
ATOM     15  H   UNL     1       1.489   9.747  19.584  0.00  0.00    +0.000 HD
ENDBRANCH   5   7
BRANCH   1  16
ATOM     16  S   UNL     1       5.010   4.287  18.229  0.00  0.00    +0.000 S 
ATOM     17  O   UNL     1       5.726   4.223  19.487  0.00  0.00    +0.000 OA
ATOM     18  O   UNL     1       5.731   4.225  16.972  0.00  0.00    +0.000 OA
BRANCH  16  20
ATOM     19  C   UNL     1       3.943   1.929  17.375  0.00  0.00    +0.000 C 
ATOM     20  N   UNL     1       3.802   3.101  18.246  0.00  0.00    +0.000 N 
BRANCH  20  21
ATOM     21  C   UNL     1       2.928   3.022  19.369  0.00  0.00    +0.000 A 
ATOM     22  C   UNL     1       1.583   3.346  19.176  0.00  0.00    +0.000 A 
ATOM     23  C   UNL     1       0.689   3.301  20.246  0.00  0.00    +0.000 A 
ATOM     24  C   UNL     1       1.141   2.931  21.511  0.00  0.00    +0.000 A 
ATOM     25  C   UNL     1       2.481   2.592  21.703  0.00  0.00    +0.000 A 
ATOM     26  C   UNL     1       3.378   2.632  20.631  0.00  0.00    +0.000 A 
ENDBRANCH  20  21
ENDBRANCH  16  20
ENDBRANCH   1  16
TORSDOF 4
ENDMDL
MODEL 3
REMARK VINA RESULT:      -7.8      3.029      4.064
REMARK  Name = 
REMARK  5 active torsions:
REMARK  status: ('A' for Active; 'I' for Inactive)
REMARK    1  A    between atoms: C_1  and  N_2
REMARK    2  A    between atoms: N_2  and  C_3
REMARK    3  A    between atoms: N_2  and  S_9
REMARK    4  A    between atoms: S_9  and  C_12
REMARK    5  A    between atoms: C_16  and  C_17
REMARK                            x       y       z     vdW  Elec       q    Type
REMARK                         _______ _______ _______ _____ _____    ______ ____
ROOT
ATOM      1  C   UNL     1       2.518   5.808  18.940  0.00  0.00    +0.000 A 
ATOM      2  C   UNL     1       2.998   6.433  17.784  0.00  0.00    +0.000 A 
ATOM      3  C   UNL     1       2.910   7.818  17.661  0.00  0.00    +0.000 A 
ATOM      4  C   UNL     1       2.305   8.565  18.670  0.00  0.00    +0.000 A 
ATOM      5  C   UNL     1       1.754   7.938  19.802  0.00  0.00    +0.000 A 
ATOM      6  C   UNL     1       1.876   6.551  19.946  0.00  0.00    +0.000 A 
ENDROOT
BRANCH   5   7
ATOM      7  C   UNL     1       1.062   8.819  20.783  0.00  0.00    +0.000 C 
ATOM      8  O   UNL     1       1.254   8.584  21.972  0.00  0.00    +0.000 OA
ATOM      9  N   UNL     1       0.280   9.830  20.265  0.00  0.00    +0.000 N 
ATOM     10  C   UNL     1      -0.285  10.772  21.085  0.00  0.00    +0.000 A 
ATOM     11  N   UNL     1      -0.075  11.001  22.356  0.00  0.00    +0.000 NA
ATOM     12  C   UNL     1      -0.899  12.019  22.786  0.00  0.00    +0.000 A 
ATOM     13  C   UNL     1      -1.739  12.545  21.827  0.00  0.00    +0.000 A 
ATOM     14  S   UNL     1      -1.423  11.789  20.315  0.00  0.00    +0.000 S 
ATOM     15  H   UNL     1       0.102   9.925  19.282  0.00  0.00    +0.000 HD
ENDBRANCH   5   7
BRANCH   1  16
ATOM     16  S   UNL     1       2.562   4.024  19.047  0.00  0.00    +0.000 S 
ATOM     17  O   UNL     1       2.242   3.522  17.727  0.00  0.00    +0.000 OA
ATOM     18  O   UNL     1       1.739   3.666  20.188  0.00  0.00    +0.000 OA
BRANCH  16  20
ATOM     19  C   UNL     1       4.491   2.399  20.081  0.00  0.00    +0.000 C 
ATOM     20  N   UNL     1       4.180   3.648  19.379  0.00  0.00    +0.000 N 
BRANCH  20  21
ATOM     21  C   UNL     1       5.206   4.285  18.621  0.00  0.00    +0.000 A 
ATOM     22  C   UNL     1       6.030   5.202  19.276  0.00  0.00    +0.000 A 
ATOM     23  C   UNL     1       7.039   5.864  18.576  0.00  0.00    +0.000 A 
ATOM     24  C   UNL     1       7.222   5.609  17.218  0.00  0.00    +0.000 A 
ATOM     25  C   UNL     1       6.409   4.682  16.565  0.00  0.00    +0.000 A 
ATOM     26  C   UNL     1       5.401   4.013  17.266  0.00  0.00    +0.000 A 
ENDBRANCH  20  21
ENDBRANCH  16  20
ENDBRANCH   1  16
TORSDOF 4
ENDMDL
MODEL 4
REMARK VINA RESULT:      -7.7      4.340      9.037
REMARK  Name = 
REMARK  5 active torsions:
REMARK  status: ('A' for Active; 'I' for Inactive)
REMARK    1  A    between atoms: C_1  and  N_2
REMARK    2  A    between atoms: N_2  and  C_3
REMARK    3  A    between atoms: N_2  and  S_9
REMARK    4  A    between atoms: S_9  and  C_12
REMARK    5  A    between atoms: C_16  and  C_17
REMARK                            x       y       z     vdW  Elec       q    Type
REMARK                         _______ _______ _______ _____ _____    ______ ____
ROOT
ATOM      1  C   UNL     1      -0.110  10.997  20.746  0.00  0.00    +0.000 A 
ATOM      2  C   UNL     1      -0.412  10.854  22.105  0.00  0.00    +0.000 A 
ATOM      3  C   UNL     1       0.062   9.747  22.806  0.00  0.00    +0.000 A 
ATOM      4  C   UNL     1       0.797   8.769  22.138  0.00  0.00    +0.000 A 
ATOM      5  C   UNL     1       1.044   8.868  20.757  0.00  0.00    +0.000 A 
ATOM      6  C   UNL     1       0.603   9.997  20.060  0.00  0.00    +0.000 A 
ENDROOT
BRANCH   5   7
ATOM      7  C   UNL     1       1.771   7.731  20.126  0.00  0.00    +0.000 C 
ATOM      8  O   UNL     1       2.354   7.962  19.072  0.00  0.00    +0.000 OA
ATOM      9  N   UNL     1       1.737   6.526  20.794  0.00  0.00    +0.000 N 
ATOM     10  C   UNL     1       2.486   5.462  20.363  0.00  0.00    +0.000 A 
ATOM     11  N   UNL     1       3.426   5.421  19.453  0.00  0.00    +0.000 NA
ATOM     12  C   UNL     1       3.878   4.127  19.312  0.00  0.00    +0.000 A 
ATOM     13  C   UNL     1       3.260   3.193  20.117  0.00  0.00    +0.000 A 
ATOM     14  S   UNL     1       2.131   3.983  21.144  0.00  0.00    +0.000 S 
ATOM     15  H   UNL     1       1.180   6.379  21.616  0.00  0.00    +0.000 HD
ENDBRANCH   5   7
BRANCH   1  16
ATOM     16  S   UNL     1      -0.794  12.379  19.842  0.00  0.00    +0.000 S 
ATOM     17  O   UNL     1      -0.091  12.433  18.577  0.00  0.00    +0.000 OA
ATOM     18  O   UNL     1      -0.761  13.512  20.748  0.00  0.00    +0.000 OA
BRANCH  16  20
ATOM     19  C   UNL     1      -3.470  12.588  20.311  0.00  0.00    +0.000 C 
ATOM     20  N   UNL     1      -2.402  11.947  19.537  0.00  0.00    +0.000 N 
BRANCH  20  21
ATOM     21  C   UNL     1      -2.727  11.333  18.292  0.00  0.00    +0.000 A 
ATOM     22  C   UNL     1      -3.862  11.786  17.615  0.00  0.00    +0.000 A 
ATOM     23  C   UNL     1      -4.232  11.208  16.401  0.00  0.00    +0.000 A 
ATOM     24  C   UNL     1      -3.468  10.174  15.864  0.00  0.00    +0.000 A 
ATOM     25  C   UNL     1      -2.326   9.730  16.532  0.00  0.00    +0.000 A 
ATOM     26  C   UNL     1      -1.949  10.312  17.746  0.00  0.00    +0.000 A 
ENDBRANCH  20  21
ENDBRANCH  16  20
ENDBRANCH   1  16
TORSDOF 4
ENDMDL
MODEL 5
REMARK VINA RESULT:      -7.7      4.545      6.935
REMARK  Name = 
REMARK  5 active torsions:
REMARK  status: ('A' for Active; 'I' for Inactive)
REMARK    1  A    between atoms: C_1  and  N_2
REMARK    2  A    between atoms: N_2  and  C_3
REMARK    3  A    between atoms: N_2  and  S_9
REMARK    4  A    between atoms: S_9  and  C_12
REMARK    5  A    between atoms: C_16  and  C_17
REMARK                            x       y       z     vdW  Elec       q    Type
REMARK                         _______ _______ _______ _____ _____    ______ ____
ROOT
ATOM      1  C   UNL     1       6.702   6.068  17.311  0.00  0.00    +0.000 A 
ATOM      2  C   UNL     1       7.322   5.273  18.281  0.00  0.00    +0.000 A 
ATOM      3  C   UNL     1       8.185   5.857  19.205  0.00  0.00    +0.000 A 
ATOM      4  C   UNL     1       8.458   7.222  19.130  0.00  0.00    +0.000 A 
ATOM      5  C   UNL     1       7.896   8.016  18.115  0.00  0.00    +0.000 A 
ATOM      6  C   UNL     1       6.999   7.439  17.209  0.00  0.00    +0.000 A 
ENDROOT
BRANCH   5   7
ATOM      7  C   UNL     1       8.313   9.446  18.077  0.00  0.00    +0.000 C 
ATOM      8  O   UNL     1       7.840  10.138  17.182  0.00  0.00    +0.000 OA
ATOM      9  N   UNL     1       9.181   9.864  19.063  0.00  0.00    +0.000 N 
ATOM     10  C   UNL     1       9.513  11.188  19.191  0.00  0.00    +0.000 A 
ATOM     11  N   UNL     1       8.995  12.236  18.603  0.00  0.00    +0.000 NA
ATOM     12  C   UNL     1       9.672  13.370  18.996  0.00  0.00    +0.000 A 
ATOM     13  C   UNL     1      10.712  13.162  19.877  0.00  0.00    +0.000 A 
ATOM     14  S   UNL     1      10.788  11.495  20.288  0.00  0.00    +0.000 S 
ATOM     15  H   UNL     1       9.592   9.232  19.725  0.00  0.00    +0.000 HD
ENDBRANCH   5   7
BRANCH   1  16
ATOM     16  S   UNL     1       5.663   5.292  16.082  0.00  0.00    +0.000 S 
ATOM     17  O   UNL     1       6.354   4.092  15.654  0.00  0.00    +0.000 OA
ATOM     18  O   UNL     1       5.328   6.327  15.121  0.00  0.00    +0.000 OA
BRANCH  16  20
ATOM     19  C   UNL     1       4.026   3.404  17.170  0.00  0.00    +0.000 C 
ATOM     20  N   UNL     1       4.267   4.828  16.921  0.00  0.00    +0.000 N 
BRANCH  20  21
ATOM     21  C   UNL     1       3.597   5.792  17.732  0.00  0.00    +0.000 A 
ATOM     22  C   UNL     1       3.208   5.409  19.017  0.00  0.00    +0.000 A 
ATOM     23  C   UNL     1       2.536   6.308  19.844  0.00  0.00    +0.000 A 
ATOM     24  C   UNL     1       2.252   7.593  19.384  0.00  0.00    +0.000 A 
ATOM     25  C   UNL     1       2.653   7.982  18.106  0.00  0.00    +0.000 A 
ATOM     26  C   UNL     1       3.332   7.084  17.277  0.00  0.00    +0.000 A 
ENDBRANCH  20  21
ENDBRANCH  16  20
ENDBRANCH   1  16
TORSDOF 4
ENDMDL
MODEL 6
REMARK VINA RESULT:      -7.7      2.329      3.242
REMARK  Name = 
REMARK  5 active torsions:
REMARK  status: ('A' for Active; 'I' for Inactive)
REMARK    1  A    between atoms: C_1  and  N_2
REMARK    2  A    between atoms: N_2  and  C_3
REMARK    3  A    between atoms: N_2  and  S_9
REMARK    4  A    between atoms: S_9  and  C_12
REMARK    5  A    between atoms: C_16  and  C_17
REMARK                            x       y       z     vdW  Elec       q    Type
REMARK                         _______ _______ _______ _____ _____    ______ ____
ROOT
ATOM      1  C   UNL     1       3.292   4.251  19.781  0.00  0.00    +0.000 A 
ATOM      2  C   UNL     1       2.329   3.427  20.373  0.00  0.00    +0.000 A 
ATOM      3  C   UNL     1       1.143   3.982  20.849  0.00  0.00    +0.000 A 
ATOM      4  C   UNL     1       0.943   5.358  20.769  0.00  0.00    +0.000 A 
ATOM      5  C   UNL     1       1.936   6.203  20.241  0.00  0.00    +0.000 A 
ATOM      6  C   UNL     1       3.111   5.645  19.728  0.00  0.00    +0.000 A 
ENDROOT
BRANCH   5   7
ATOM      7  C   UNL     1       1.654   7.666  20.274  0.00  0.00    +0.000 C 
ATOM      8  O   UNL     1       2.133   8.344  19.370  0.00  0.00    +0.000 OA
ATOM      9  N   UNL     1       0.866   8.122  21.309  0.00  0.00    +0.000 N 
ATOM     10  C   UNL     1       0.442   9.425  21.347  0.00  0.00    +0.000 A 
ATOM     11  N   UNL     1       0.521  10.353  20.427  0.00  0.00    +0.000 NA
ATOM     12  C   UNL     1       0.007  11.535  20.915  0.00  0.00    +0.000 A 
ATOM     13  C   UNL     1      -0.450  11.489  22.215  0.00  0.00    +0.000 A 
ATOM     14  S   UNL     1      -0.302   9.885  22.816  0.00  0.00    +0.000 S 
ATOM     15  H   UNL     1       0.565   7.530  22.061  0.00  0.00    +0.000 HD
ENDBRANCH   5   7
BRANCH   1  16
ATOM     16  S   UNL     1       4.843   3.538  19.251  0.00  0.00    +0.000 S 
ATOM     17  O   UNL     1       5.015   2.314  20.007  0.00  0.00    +0.000 OA
ATOM     18  O   UNL     1       5.829   4.599  19.339  0.00  0.00    +0.000 OA
BRANCH  16  20
ATOM     19  C   UNL     1       3.496   2.229  17.275  0.00  0.00    +0.000 C 
ATOM     20  N   UNL     1       4.601   3.127  17.626  0.00  0.00    +0.000 N 
BRANCH  20  21
ATOM     21  C   UNL     1       5.157   3.962  16.613  0.00  0.00    +0.000 A 
ATOM     22  C   UNL     1       4.720   5.287  16.544  0.00  0.00    +0.000 A 
ATOM     23  C   UNL     1       5.221   6.140  15.561  0.00  0.00    +0.000 A 
ATOM     24  C   UNL     1       6.160   5.669  14.646  0.00  0.00    +0.000 A 
ATOM     25  C   UNL     1       6.609   4.350  14.723  0.00  0.00    +0.000 A 
ATOM     26  C   UNL     1       6.113   3.493  15.711  0.00  0.00    +0.000 A 
ENDBRANCH  20  21
ENDBRANCH  16  20
ENDBRANCH   1  16
TORSDOF 4
ENDMDL
MODEL 7
REMARK VINA RESULT:      -7.6      2.044      2.444
REMARK  Name = 
REMARK  5 active torsions:
REMARK  status: ('A' for Active; 'I' for Inactive)
REMARK    1  A    between atoms: C_1  and  N_2
REMARK    2  A    between atoms: N_2  and  C_3
REMARK    3  A    between atoms: N_2  and  S_9
REMARK    4  A    between atoms: S_9  and  C_12
REMARK    5  A    between atoms: C_16  and  C_17
REMARK                            x       y       z     vdW  Elec       q    Type
REMARK                         _______ _______ _______ _____ _____    ______ ____
ROOT
ATOM      1  C   UNL     1       4.357   5.110  19.301  0.00  0.00    +0.000 A 
ATOM      2  C   UNL     1       3.652   3.981  19.731  0.00  0.00    +0.000 A 
ATOM      3  C   UNL     1       2.337   4.114  20.172  0.00  0.00    +0.000 A 
ATOM      4  C   UNL     1       1.749   5.376  20.223  0.00  0.00    +0.000 A 
ATOM      5  C   UNL     1       2.474   6.526  19.861  0.00  0.00    +0.000 A 
ATOM      6  C   UNL     1       3.781   6.391  19.381  0.00  0.00    +0.000 A 
ENDROOT
BRANCH   5   7
ATOM      7  C   UNL     1       1.778   7.833  20.026  0.00  0.00    +0.000 C 
ATOM      8  O   UNL     1       1.737   8.567  19.043  0.00  0.00    +0.000 OA
ATOM      9  N   UNL     1       1.229   8.092  21.264  0.00  0.00    +0.000 N 
ATOM     10  C   UNL     1       0.456   9.204  21.470  0.00  0.00    +0.000 A 
ATOM     11  N   UNL     1      -0.029  10.054  20.601  0.00  0.00    +0.000 NA
ATOM     12  C   UNL     1      -0.714  11.052  21.260  0.00  0.00    +0.000 A 
ATOM     13  C   UNL     1      -0.730  10.949  22.635  0.00  0.00    +0.000 A 
ATOM     14  S   UNL     1       0.074   9.506  23.109  0.00  0.00    +0.000 S 
ATOM     15  H   UNL     1       1.361   7.483  22.051  0.00  0.00    +0.000 HD
ENDBRANCH   5   7
BRANCH   1  16
ATOM     16  S   UNL     1       6.068   4.936  18.817  0.00  0.00    +0.000 S 
ATOM     17  O   UNL     1       6.254   3.548  18.446  0.00  0.00    +0.000 OA
ATOM     18  O   UNL     1       6.855   5.520  19.888  0.00  0.00    +0.000 OA
BRANCH  16  20
ATOM     19  C   UNL     1       6.853   7.204  17.524  0.00  0.00    +0.000 C 
ATOM     20  N   UNL     1       6.225   5.883  17.422  0.00  0.00    +0.000 N 
BRANCH  20  21
ATOM     21  C   UNL     1       6.163   5.248  16.147  0.00  0.00    +0.000 A 
ATOM     22  C   UNL     1       7.304   5.279  15.343  0.00  0.00    +0.000 A 
ATOM     23  C   UNL     1       7.290   4.687  14.080  0.00  0.00    +0.000 A 
ATOM     24  C   UNL     1       6.132   4.063  13.620  0.00  0.00    +0.000 A 
ATOM     25  C   UNL     1       4.995   4.017  14.428  0.00  0.00    +0.000 A 
ATOM     26  C   UNL     1       5.008   4.606  15.697  0.00  0.00    +0.000 A 
ENDBRANCH  20  21
ENDBRANCH  16  20
ENDBRANCH   1  16
TORSDOF 4
ENDMDL
MODEL 8
REMARK VINA RESULT:      -7.6      3.235      4.325
REMARK  Name = 
REMARK  5 active torsions:
REMARK  status: ('A' for Active; 'I' for Inactive)
REMARK    1  A    between atoms: C_1  and  N_2
REMARK    2  A    between atoms: N_2  and  C_3
REMARK    3  A    between atoms: N_2  and  S_9
REMARK    4  A    between atoms: S_9  and  C_12
REMARK    5  A    between atoms: C_16  and  C_17
REMARK                            x       y       z     vdW  Elec       q    Type
REMARK                         _______ _______ _______ _____ _____    ______ ____
ROOT
ATOM      1  C   UNL     1       2.613   6.613  19.008  0.00  0.00    +0.000 A 
ATOM      2  C   UNL     1       2.758   7.246  17.768  0.00  0.00    +0.000 A 
ATOM      3  C   UNL     1       2.327   8.562  17.610  0.00  0.00    +0.000 A 
ATOM      4  C   UNL     1       1.716   9.222  18.673  0.00  0.00    +0.000 A 
ATOM      5  C   UNL     1       1.500   8.570  19.901  0.00  0.00    +0.000 A 
ATOM      6  C   UNL     1       1.967   7.262  20.075  0.00  0.00    +0.000 A 
ENDROOT
BRANCH   5   7
ATOM      7  C   UNL     1       0.769   9.339  20.947  0.00  0.00    +0.000 C 
ATOM      8  O   UNL     1       0.945   8.997  22.111  0.00  0.00    +0.000 OA
ATOM      9  N   UNL     1      -0.027  10.376  20.510  0.00  0.00    +0.000 N 
ATOM     10  C   UNL     1      -0.630  11.223  21.403  0.00  0.00    +0.000 A 
ATOM     11  N   UNL     1      -0.449  11.336  22.694  0.00  0.00    +0.000 NA
ATOM     12  C   UNL     1      -1.305  12.290  23.200  0.00  0.00    +0.000 A 
ATOM     13  C   UNL     1      -2.140  12.885  22.278  0.00  0.00    +0.000 A 
ATOM     14  S   UNL     1      -1.778  12.283  20.710  0.00  0.00    +0.000 S 
ATOM     15  H   UNL     1      -0.190  10.560  19.536  0.00  0.00    +0.000 HD
ENDBRANCH   5   7
BRANCH   1  16
ATOM     16  S   UNL     1       3.095   4.900  19.173  0.00  0.00    +0.000 S 
ATOM     17  O   UNL     1       1.957   4.108  18.754  0.00  0.00    +0.000 OA
ATOM     18  O   UNL     1       3.634   4.758  20.512  0.00  0.00    +0.000 OA
BRANCH  16  20
ATOM     19  C   UNL     1       4.004   4.157  16.713  0.00  0.00    +0.000 C 
ATOM     20  N   UNL     1       4.335   4.685  18.040  0.00  0.00    +0.000 N 
BRANCH  20  21
ATOM     21  C   UNL     1       5.557   5.400  18.211  0.00  0.00    +0.000 A 
ATOM     22  C   UNL     1       5.884   6.373  17.263  0.00  0.00    +0.000 A 
ATOM     23  C   UNL     1       7.076   7.089  17.375  0.00  0.00    +0.000 A 
ATOM     24  C   UNL     1       7.942   6.831  18.437  0.00  0.00    +0.000 A 
ATOM     25  C   UNL     1       7.609   5.871  19.393  0.00  0.00    +0.000 A 
ATOM     26  C   UNL     1       6.412   5.155  19.285  0.00  0.00    +0.000 A 
ENDBRANCH  20  21
ENDBRANCH  16  20
ENDBRANCH   1  16
TORSDOF 4
ENDMDL
MODEL 9
REMARK VINA RESULT:      -7.6      1.851      2.421
REMARK  Name = 
REMARK  5 active torsions:
REMARK  status: ('A' for Active; 'I' for Inactive)
REMARK    1  A    between atoms: C_1  and  N_2
REMARK    2  A    between atoms: N_2  and  C_3
REMARK    3  A    between atoms: N_2  and  S_9
REMARK    4  A    between atoms: S_9  and  C_12
REMARK    5  A    between atoms: C_16  and  C_17
REMARK                            x       y       z     vdW  Elec       q    Type
REMARK                         _______ _______ _______ _____ _____    ______ ____
ROOT
ATOM      1  C   UNL     1       4.593   6.051  17.987  0.00  0.00    +0.000 A 
ATOM      2  C   UNL     1       4.339   5.234  19.094  0.00  0.00    +0.000 A 
ATOM      3  C   UNL     1       3.242   5.498  19.911  0.00  0.00    +0.000 A 
ATOM      4  C   UNL     1       2.431   6.599  19.644  0.00  0.00    +0.000 A 
ATOM      5  C   UNL     1       2.720   7.468  18.576  0.00  0.00    +0.000 A 
ATOM      6  C   UNL     1       3.798   7.182  17.731  0.00  0.00    +0.000 A 
ENDROOT
BRANCH   5   7
ATOM      7  C   UNL     1       1.836   8.658  18.425  0.00  0.00    +0.000 C 
ATOM      8  O   UNL     1       1.772   9.163  17.309  0.00  0.00    +0.000 OA
ATOM      9  N   UNL     1       1.158   9.072  19.551  0.00  0.00    +0.000 N 
ATOM     10  C   UNL     1       0.221  10.070  19.479  0.00  0.00    +0.000 A 
ATOM     11  N   UNL     1      -0.306  10.642  18.426  0.00  0.00    +0.000 NA
ATOM     12  C   UNL     1      -1.177  11.633  18.824  0.00  0.00    +0.000 A 
ATOM     13  C   UNL     1      -1.290  11.810  20.186  0.00  0.00    +0.000 A 
ATOM     14  S   UNL     1      -0.332  10.634  20.995  0.00  0.00    +0.000 S 
ATOM     15  H   UNL     1       1.309   8.663  20.455  0.00  0.00    +0.000 HD
ENDBRANCH   5   7
BRANCH   1  16
ATOM     16  S   UNL     1       6.050   5.749  16.997  0.00  0.00    +0.000 S 
ATOM     17  O   UNL     1       7.085   5.307  17.909  0.00  0.00    +0.000 OA
ATOM     18  O   UNL     1       6.245   6.938  16.188  0.00  0.00    +0.000 OA
BRANCH  16  20
ATOM     19  C   UNL     1       4.442   3.657  16.313  0.00  0.00    +0.000 C 
ATOM     20  N   UNL     1       5.636   4.448  15.996  0.00  0.00    +0.000 N 
BRANCH  20  21
ATOM     21  C   UNL     1       6.158   4.404  14.669  0.00  0.00    +0.000 A 
ATOM     22  C   UNL     1       5.466   3.650  13.719  0.00  0.00    +0.000 A 
ATOM     23  C   UNL     1       5.944   3.561  12.411  0.00  0.00    +0.000 A 
ATOM     24  C   UNL     1       7.115   4.227  12.054  0.00  0.00    +0.000 A 
ATOM     25  C   UNL     1       7.798   4.994  12.999  0.00  0.00    +0.000 A 
ATOM     26  C   UNL     1       7.319   5.088  14.310  0.00  0.00    +0.000 A 
ENDBRANCH  20  21
ENDBRANCH  16  20
ENDBRANCH   1  16
TORSDOF 4
ENDMDL
