MODEL 1
REMARK VINA RESULT:      -7.1      0.000      0.000
REMARK  Name = 
REMARK  5 active torsions:
REMARK  status: ('A' for Active; 'I' for Inactive)
REMARK    1  A    between atoms: C_1  and  O_2
REMARK    2  A    between atoms: O_2  and  C_3
REMARK    3  A    between atoms: C_6  and  N_7
REMARK    4  A    between atoms: N_10  and  C_11
REMARK    5  A    between atoms: C_25  and  C_26
REMARK                            x       y       z     vdW  Elec       q    Type
REMARK                         _______ _______ _______ _____ _____    ______ ____
ROOT
ATOM      1  C   UNL     1       0.161  16.505  18.853  0.00  0.00    +0.000 A 
ATOM      2  C   UNL     1      -1.091  16.783  19.389  0.00  0.00    +0.000 A 
ATOM      3  C   UNL     1      -1.704  15.888  20.271  0.00  0.00    +0.000 A 
ATOM      4  C   UNL     1      -1.127  14.658  20.636  0.00  0.00    +0.000 A 
ATOM      5  C   UNL     1       0.094  14.339  19.990  0.00  0.00    +0.000 A 
ATOM      6  C   UNL     1       0.741  15.262  19.119  0.00  0.00    +0.000 A 
ATOM      7  C   UNL     1       2.084  14.838  18.560  0.00  0.00    +0.000 C 
ATOM      8  C   UNL     1       2.003  13.392  18.055  0.00  0.00    +0.000 C 
ATOM      9  N   UNL     1       1.506  12.463  19.076  0.00  0.00    +0.000 N 
ATOM     10  C   UNL     1       1.507  11.074  19.016  0.00  0.00    +0.000 C 
ATOM     11  O   UNL     1       0.965  10.391  19.895  0.00  0.00    +0.000 OA
ATOM     12  N   UNL     1       2.169  10.523  17.956  0.00  0.00    +0.000 N 
ATOM     13  C   UNL     1       2.244   9.129  17.842  0.00  0.00    +0.000 A 
ATOM     14  C   UNL     1       1.118   8.320  17.943  0.00  0.00    +0.000 A 
ATOM     15  C   UNL     1       1.281   6.935  17.914  0.00  0.00    +0.000 A 
ATOM     16  C   UNL     1       2.558   6.373  17.800  0.00  0.00    +0.000 A 
ATOM     17  C   UNL     1       3.610   7.286  17.672  0.00  0.00    +0.000 A 
ATOM     18  N   UNL     1       3.481   8.636  17.654  0.00  0.00    +0.000 NA
ATOM     19  C   UNL     1       0.811  13.032  20.213  0.00  0.00    +0.000 C 
ATOM     20  H   UNL     1       3.051  10.954  17.754  0.00  0.00    +0.000 HD
ENDROOT
BRANCH   4  21
ATOM     21  N   UNL     1      -1.742  13.907  21.630  0.00  0.00    +0.000 N 
ATOM     22  C   UNL     1      -2.600  12.748  21.293  0.00  0.00    +0.000 C 
ATOM     23  C   UNL     1      -3.780  12.657  22.300  0.00  0.00    +0.000 C 
ATOM     24  N   UNL     1      -3.335  12.598  23.711  0.00  0.00    +0.000 NA
ATOM     25  C   UNL     1      -4.466  12.592  24.631  0.00  0.00    +0.000 C 
ATOM     26  C   UNL     1      -2.488  13.769  23.995  0.00  0.00    +0.000 C 
ATOM     27  C   UNL     1      -1.299  13.875  23.035  0.00  0.00    +0.000 C 
ENDBRANCH   4  21
BRANCH  16  28
ATOM     28  C   UNL     1       2.775   4.920  17.821  0.00  0.00    +0.000 A 
ATOM     29  C   UNL     1       1.739   3.996  17.806  0.00  0.00    +0.000 A 
ATOM     30  N   UNL     1       1.897   2.655  17.840  0.00  0.00    +0.000 NA
ATOM     31  C   UNL     1       3.163   2.220  17.886  0.00  0.00    +0.000 A 
ATOM     32  N   UNL     1       4.255   2.996  17.899  0.00  0.00    +0.000 NA
ATOM     33  C   UNL     1       4.029   4.328  17.870  0.00  0.00    +0.000 A 
ENDBRANCH  16  28
BRANCH   1  35
ATOM     34  C   UNL     1       0.053  18.112  17.132  0.00  0.00    +0.000 C 
ATOM     35  O   UNL     1       0.854  17.379  18.060  0.00  0.00    +0.000 OA
ENDBRANCH   1  35
TORSDOF 3
ENDMDL
MODEL 2
REMARK VINA RESULT:      -6.7      3.275     11.203
REMARK  Name = 
REMARK  5 active torsions:
REMARK  status: ('A' for Active; 'I' for Inactive)
REMARK    1  A    between atoms: C_1  and  O_2
REMARK    2  A    between atoms: O_2  and  C_3
REMARK    3  A    between atoms: C_6  and  N_7
REMARK    4  A    between atoms: N_10  and  C_11
REMARK    5  A    between atoms: C_25  and  C_26
REMARK                            x       y       z     vdW  Elec       q    Type
REMARK                         _______ _______ _______ _____ _____    ______ ____
ROOT
ATOM      1  C   UNL     1       2.730   2.314  18.575  0.00  0.00    +0.000 A 
ATOM      2  C   UNL     1       3.525   2.294  17.435  0.00  0.00    +0.000 A 
ATOM      3  C   UNL     1       4.345   3.381  17.119  0.00  0.00    +0.000 A 
ATOM      4  C   UNL     1       4.389   4.557  17.890  0.00  0.00    +0.000 A 
ATOM      5  C   UNL     1       3.486   4.606  18.983  0.00  0.00    +0.000 A 
ATOM      6  C   UNL     1       2.675   3.488  19.331  0.00  0.00    +0.000 A 
ATOM      7  C   UNL     1       1.816   3.634  20.571  0.00  0.00    +0.000 C 
ATOM      8  C   UNL     1       1.103   4.992  20.550  0.00  0.00    +0.000 C 
ATOM      9  N   UNL     1       2.030   6.116  20.378  0.00  0.00    +0.000 N 
ATOM     10  C   UNL     1       1.742   7.469  20.521  0.00  0.00    +0.000 C 
ATOM     11  O   UNL     1       2.581   8.338  20.249  0.00  0.00    +0.000 OA
ATOM     12  N   UNL     1       0.501   7.766  21.010  0.00  0.00    +0.000 N 
ATOM     13  C   UNL     1       0.147   9.106  21.215  0.00  0.00    +0.000 A 
ATOM     14  C   UNL     1       0.319  10.072  20.230  0.00  0.00    +0.000 A 
ATOM     15  C   UNL     1       0.031  11.402  20.537  0.00  0.00    +0.000 A 
ATOM     16  C   UNL     1      -0.407  11.757  21.819  0.00  0.00    +0.000 A 
ATOM     17  C   UNL     1      -0.574  10.694  22.714  0.00  0.00    +0.000 A 
ATOM     18  N   UNL     1      -0.345   9.387  22.435  0.00  0.00    +0.000 NA
ATOM     19  C   UNL     1       3.353   5.816  19.870  0.00  0.00    +0.000 C 
ATOM     20  H   UNL     1       0.215   7.191  21.779  0.00  0.00    +0.000 HD
ENDROOT
BRANCH   4  21
ATOM     21  N   UNL     1       5.341   5.519  17.579  0.00  0.00    +0.000 N 
ATOM     22  C   UNL     1       6.788   5.234  17.706  0.00  0.00    +0.000 C 
ATOM     23  C   UNL     1       7.537   6.511  18.178  0.00  0.00    +0.000 C 
ATOM     24  N   UNL     1       7.300   7.679  17.300  0.00  0.00    +0.000 NA
ATOM     25  C   UNL     1       7.953   8.878  17.814  0.00  0.00    +0.000 C 
ATOM     26  C   UNL     1       5.850   7.922  17.206  0.00  0.00    +0.000 C 
ATOM     27  C   UNL     1       5.084   6.689  16.719  0.00  0.00    +0.000 C 
ENDBRANCH   4  21
BRANCH  16  28
ATOM     28  C   UNL     1      -0.667  13.152  22.195  0.00  0.00    +0.000 A 
ATOM     29  C   UNL     1      -0.230  14.236  21.446  0.00  0.00    +0.000 A 
ATOM     30  N   UNL     1      -0.435  15.532  21.767  0.00  0.00    +0.000 NA
ATOM     31  C   UNL     1      -1.120  15.749  22.897  0.00  0.00    +0.000 A 
ATOM     32  N   UNL     1      -1.606  14.802  23.710  0.00  0.00    +0.000 NA
ATOM     33  C   UNL     1      -1.361  13.526  23.337  0.00  0.00    +0.000 A 
ENDBRANCH  16  28
BRANCH   1  35
ATOM     34  C   UNL     1       0.572   1.389  18.784  0.00  0.00    +0.000 C 
ATOM     35  O   UNL     1       1.978   1.248  18.990  0.00  0.00    +0.000 OA
ENDBRANCH   1  35
TORSDOF 3
ENDMDL
MODEL 3
REMARK VINA RESULT:      -6.4      5.450      7.868
REMARK  Name = 
REMARK  5 active torsions:
REMARK  status: ('A' for Active; 'I' for Inactive)
REMARK    1  A    between atoms: C_1  and  O_2
REMARK    2  A    between atoms: O_2  and  C_3
REMARK    3  A    between atoms: C_6  and  N_7
REMARK    4  A    between atoms: N_10  and  C_11
REMARK    5  A    between atoms: C_25  and  C_26
REMARK                            x       y       z     vdW  Elec       q    Type
REMARK                         _______ _______ _______ _____ _____    ______ ____
ROOT
ATOM      1  C   UNL     1      -7.009  11.141  20.398  0.00  0.00    +0.000 A 
ATOM      2  C   UNL     1      -7.608  11.283  21.644  0.00  0.00    +0.000 A 
ATOM      3  C   UNL     1      -7.179  12.274  22.533  0.00  0.00    +0.000 A 
ATOM      4  C   UNL     1      -6.112  13.146  22.249  0.00  0.00    +0.000 A 
ATOM      5  C   UNL     1      -5.439  12.911  21.023  0.00  0.00    +0.000 A 
ATOM      6  C   UNL     1      -5.894  11.928  20.099  0.00  0.00    +0.000 A 
ATOM      7  C   UNL     1      -5.143  11.833  18.786  0.00  0.00    +0.000 C 
ATOM      8  C   UNL     1      -3.632  11.847  19.052  0.00  0.00    +0.000 C 
ATOM      9  N   UNL     1      -3.209  13.000  19.854  0.00  0.00    +0.000 N 
ATOM     10  C   UNL     1      -1.906  13.420  20.095  0.00  0.00    +0.000 C 
ATOM     11  O   UNL     1      -1.663  14.350  20.876  0.00  0.00    +0.000 OA
ATOM     12  N   UNL     1      -0.930  12.769  19.394  0.00  0.00    +0.000 N 
ATOM     13  C   UNL     1       0.407  13.157  19.557  0.00  0.00    +0.000 A 
ATOM     14  C   UNL     1       0.985  13.297  20.813  0.00  0.00    +0.000 A 
ATOM     15  C   UNL     1       2.292  13.776  20.900  0.00  0.00    +0.000 A 
ATOM     16  C   UNL     1       3.000  14.124  19.743  0.00  0.00    +0.000 A 
ATOM     17  C   UNL     1       2.326  13.908  18.536  0.00  0.00    +0.000 A 
ATOM     18  N   UNL     1       1.073  13.404  18.415  0.00  0.00    +0.000 NA
ATOM     19  C   UNL     1      -4.234  13.707  20.595  0.00  0.00    +0.000 C 
ATOM     20  H   UNL     1      -1.151  12.617  18.430  0.00  0.00    +0.000 HD
ENDROOT
BRANCH   4  21
ATOM     21  N   UNL     1      -5.857  14.190  23.130  0.00  0.00    +0.000 N 
ATOM     22  C   UNL     1      -6.922  15.142  23.516  0.00  0.00    +0.000 C 
ATOM     23  C   UNL     1      -6.319  16.562  23.696  0.00  0.00    +0.000 C 
ATOM     24  N   UNL     1      -5.197  16.597  24.662  0.00  0.00    +0.000 NA
ATOM     25  C   UNL     1      -4.604  17.927  24.748  0.00  0.00    +0.000 C 
ATOM     26  C   UNL     1      -4.166  15.636  24.233  0.00  0.00    +0.000 C 
ATOM     27  C   UNL     1      -4.723  14.219  24.071  0.00  0.00    +0.000 C 
ENDBRANCH   4  21
BRANCH  16  28
ATOM     28  C   UNL     1       4.357  14.683  19.799  0.00  0.00    +0.000 A 
ATOM     29  C   UNL     1       5.018  14.959  20.987  0.00  0.00    +0.000 A 
ATOM     30  N   UNL     1       6.258  15.488  21.079  0.00  0.00    +0.000 NA
ATOM     31  C   UNL     1       6.867  15.747  19.915  0.00  0.00    +0.000 A 
ATOM     32  N   UNL     1       6.352  15.525  18.698  0.00  0.00    +0.000 NA
ATOM     33  C   UNL     1       5.106  15.002  18.674  0.00  0.00    +0.000 A 
ENDBRANCH  16  28
BRANCH   1  35
ATOM     34  C   UNL     1      -7.140   8.887  19.722  0.00  0.00    +0.000 C 
ATOM     35  O   UNL     1      -7.443  10.255  19.449  0.00  0.00    +0.000 OA
ENDBRANCH   1  35
TORSDOF 3
ENDMDL
MODEL 4
REMARK VINA RESULT:      -6.4      0.856      1.447
REMARK  Name = 
REMARK  5 active torsions:
REMARK  status: ('A' for Active; 'I' for Inactive)
REMARK    1  A    between atoms: C_1  and  O_2
REMARK    2  A    between atoms: O_2  and  C_3
REMARK    3  A    between atoms: C_6  and  N_7
REMARK    4  A    between atoms: N_10  and  C_11
REMARK    5  A    between atoms: C_25  and  C_26
REMARK                            x       y       z     vdW  Elec       q    Type
REMARK                         _______ _______ _______ _____ _____    ______ ____
ROOT
ATOM      1  C   UNL     1       1.114  16.914  18.409  0.00  0.00    +0.000 A 
ATOM      2  C   UNL     1      -0.174  17.356  18.690  0.00  0.00    +0.000 A 
ATOM      3  C   UNL     1      -1.053  16.563  19.434  0.00  0.00    +0.000 A 
ATOM      4  C   UNL     1      -0.716  15.280  19.902  0.00  0.00    +0.000 A 
ATOM      5  C   UNL     1       0.558  14.799  19.507  0.00  0.00    +0.000 A 
ATOM      6  C   UNL     1       1.471  15.616  18.781  0.00  0.00    +0.000 A 
ATOM      7  C   UNL     1       2.834  15.018  18.494  0.00  0.00    +0.000 C 
ATOM      8  C   UNL     1       2.672  13.581  17.980  0.00  0.00    +0.000 C 
ATOM      9  N   UNL     1       1.875  12.743  18.883  0.00  0.00    +0.000 N 
ATOM     10  C   UNL     1       1.714  11.364  18.822  0.00  0.00    +0.000 C 
ATOM     11  O   UNL     1       0.931  10.773  19.577  0.00  0.00    +0.000 OA
ATOM     12  N   UNL     1       2.495  10.712  17.910  0.00  0.00    +0.000 N 
ATOM     13  C   UNL     1       2.416   9.317  17.811  0.00  0.00    +0.000 A 
ATOM     14  C   UNL     1       1.200   8.655  17.688  0.00  0.00    +0.000 A 
ATOM     15  C   UNL     1       1.191   7.260  17.689  0.00  0.00    +0.000 A 
ATOM     16  C   UNL     1       2.386   6.543  17.826  0.00  0.00    +0.000 A 
ATOM     17  C   UNL     1       3.549   7.317  17.907  0.00  0.00    +0.000 A 
ATOM     18  N   UNL     1       3.595   8.672  17.867  0.00  0.00    +0.000 NA
ATOM     19  C   UNL     1       1.049  13.420  19.863  0.00  0.00    +0.000 C 
ATOM     20  H   UNL     1       3.446  11.027  17.886  0.00  0.00    +0.000 HD
ENDROOT
BRANCH   4  21
ATOM     21  N   UNL     1      -1.601  14.632  20.756  0.00  0.00    +0.000 N 
ATOM     22  C   UNL     1      -2.206  15.337  21.909  0.00  0.00    +0.000 C 
ATOM     23  C   UNL     1      -2.365  14.355  23.101  0.00  0.00    +0.000 C 
ATOM     24  N   UNL     1      -3.139  13.141  22.754  0.00  0.00    +0.000 NA
ATOM     25  C   UNL     1      -3.202  12.206  23.871  0.00  0.00    +0.000 C 
ATOM     26  C   UNL     1      -2.498  12.477  21.605  0.00  0.00    +0.000 C 
ATOM     27  C   UNL     1      -2.348  13.412  20.402  0.00  0.00    +0.000 C 
ENDBRANCH   4  21
BRANCH  16  28
ATOM     28  C   UNL     1       2.411   5.076  17.886  0.00  0.00    +0.000 A 
ATOM     29  C   UNL     1       3.555   4.324  17.653  0.00  0.00    +0.000 A 
ATOM     30  N   UNL     1       3.614   2.975  17.683  0.00  0.00    +0.000 NA
ATOM     31  C   UNL     1       2.465   2.349  17.968  0.00  0.00    +0.000 A 
ATOM     32  N   UNL     1       1.293   2.946  18.221  0.00  0.00    +0.000 NA
ATOM     33  C   UNL     1       1.298   4.297  18.168  0.00  0.00    +0.000 A 
ENDBRANCH  16  28
BRANCH   1  35
ATOM     34  C   UNL     1       1.632  18.213  16.512  0.00  0.00    +0.000 C 
ATOM     35  O   UNL     1       2.051  17.679  17.768  0.00  0.00    +0.000 OA
ENDBRANCH   1  35
TORSDOF 3
ENDMDL
MODEL 5
REMARK VINA RESULT:      -6.3      3.203     11.359
REMARK  Name = 
REMARK  5 active torsions:
REMARK  status: ('A' for Active; 'I' for Inactive)
REMARK    1  A    between atoms: C_1  and  O_2
REMARK    2  A    between atoms: O_2  and  C_3
REMARK    3  A    between atoms: C_6  and  N_7
REMARK    4  A    between atoms: N_10  and  C_11
REMARK    5  A    between atoms: C_25  and  C_26
REMARK                            x       y       z     vdW  Elec       q    Type
REMARK                         _______ _______ _______ _____ _____    ______ ____
ROOT
ATOM      1  C   UNL     1       2.252   2.589  19.624  0.00  0.00    +0.000 A 
ATOM      2  C   UNL     1       2.801   1.979  18.502  0.00  0.00    +0.000 A 
ATOM      3  C   UNL     1       3.665   2.684  17.658  0.00  0.00    +0.000 A 
ATOM      4  C   UNL     1       3.998   4.036  17.861  0.00  0.00    +0.000 A 
ATOM      5  C   UNL     1       3.339   4.673  18.943  0.00  0.00    +0.000 A 
ATOM      6  C   UNL     1       2.486   3.951  19.826  0.00  0.00    +0.000 A 
ATOM      7  C   UNL     1       1.910   4.725  20.995  0.00  0.00    +0.000 C 
ATOM      8  C   UNL     1       1.372   6.077  20.507  0.00  0.00    +0.000 C 
ATOM      9  N   UNL     1       2.374   6.851  19.765  0.00  0.00    +0.000 N 
ATOM     10  C   UNL     1       2.281   8.181  19.372  0.00  0.00    +0.000 C 
ATOM     11  O   UNL     1       3.147   8.702  18.656  0.00  0.00    +0.000 OA
ATOM     12  N   UNL     1       1.205   8.871  19.851  0.00  0.00    +0.000 N 
ATOM     13  C   UNL     1       1.058  10.227  19.527  0.00  0.00    +0.000 A 
ATOM     14  C   UNL     1       1.146  10.684  18.218  0.00  0.00    +0.000 A 
ATOM     15  C   UNL     1       1.083  12.057  17.981  0.00  0.00    +0.000 A 
ATOM     16  C   UNL     1       0.950  12.956  19.046  0.00  0.00    +0.000 A 
ATOM     17  C   UNL     1       0.838  12.376  20.314  0.00  0.00    +0.000 A 
ATOM     18  N   UNL     1       0.852  11.045  20.574  0.00  0.00    +0.000 NA
ATOM     19  C   UNL     1       3.527   6.134  19.258  0.00  0.00    +0.000 C 
ATOM     20  H   UNL     1       1.009   8.704  20.819  0.00  0.00    +0.000 HD
ENDROOT
BRANCH   4  21
ATOM     21  N   UNL     1       4.978   4.605  17.056  0.00  0.00    +0.000 N 
ATOM     22  C   UNL     1       4.658   5.717  16.133  0.00  0.00    +0.000 C 
ATOM     23  C   UNL     1       5.503   5.583  14.836  0.00  0.00    +0.000 C 
ATOM     24  N   UNL     1       6.959   5.510  15.098  0.00  0.00    +0.000 NA
ATOM     25  C   UNL     1       7.716   5.306  13.868  0.00  0.00    +0.000 C 
ATOM     26  C   UNL     1       7.224   4.391  16.018  0.00  0.00    +0.000 C 
ATOM     27  C   UNL     1       6.425   4.505  17.319  0.00  0.00    +0.000 C 
ENDBRANCH   4  21
BRANCH  16  28
ATOM     28  C   UNL     1       0.936  14.411  18.841  0.00  0.00    +0.000 A 
ATOM     29  C   UNL     1      -0.227  15.167  18.839  0.00  0.00    +0.000 A 
ATOM     30  N   UNL     1      -0.283  16.502  18.639  0.00  0.00    +0.000 NA
ATOM     31  C   UNL     1       0.894  17.108  18.434  0.00  0.00    +0.000 A 
ATOM     32  N   UNL     1       2.089  16.505  18.417  0.00  0.00    +0.000 NA
ATOM     33  C   UNL     1       2.077  15.169  18.617  0.00  0.00    +0.000 A 
ENDBRANCH  16  28
BRANCH   1  35
ATOM     34  C   UNL     1       1.833   2.153  21.902  0.00  0.00    +0.000 C 
ATOM     35  O   UNL     1       1.476   1.928  20.538  0.00  0.00    +0.000 OA
ENDBRANCH   1  35
TORSDOF 3
ENDMDL
MODEL 6
REMARK VINA RESULT:      -6.2      4.758      7.440
REMARK  Name = 
REMARK  5 active torsions:
REMARK  status: ('A' for Active; 'I' for Inactive)
REMARK    1  A    between atoms: C_1  and  O_2
REMARK    2  A    between atoms: O_2  and  C_3
REMARK    3  A    between atoms: C_6  and  N_7
REMARK    4  A    between atoms: N_10  and  C_11
REMARK    5  A    between atoms: C_25  and  C_26
REMARK                            x       y       z     vdW  Elec       q    Type
REMARK                         _______ _______ _______ _____ _____    ______ ____
ROOT
ATOM      1  C   UNL     1      -2.053  16.429  21.171  0.00  0.00    +0.000 A 
ATOM      2  C   UNL     1      -2.944  15.408  20.859  0.00  0.00    +0.000 A 
ATOM      3  C   UNL     1      -2.504  14.085  20.755  0.00  0.00    +0.000 A 
ATOM      4  C   UNL     1      -1.157  13.712  20.916  0.00  0.00    +0.000 A 
ATOM      5  C   UNL     1      -0.246  14.779  21.119  0.00  0.00    +0.000 A 
ATOM      6  C   UNL     1      -0.693  16.124  21.261  0.00  0.00    +0.000 A 
ATOM      7  C   UNL     1       0.370  17.163  21.561  0.00  0.00    +0.000 C 
ATOM      8  C   UNL     1       1.573  16.957  20.632  0.00  0.00    +0.000 C 
ATOM      9  N   UNL     1       2.101  15.588  20.685  0.00  0.00    +0.000 N 
ATOM     10  C   UNL     1       3.292  15.129  20.135  0.00  0.00    +0.000 C 
ATOM     11  O   UNL     1       3.587  13.926  20.151  0.00  0.00    +0.000 OA
ATOM     12  N   UNL     1       4.118  16.085  19.616  0.00  0.00    +0.000 N 
ATOM     13  C   UNL     1       5.353  15.706  19.074  0.00  0.00    +0.000 A 
ATOM     14  C   UNL     1       5.464  14.680  18.143  0.00  0.00    +0.000 A 
ATOM     15  C   UNL     1       6.735  14.294  17.717  0.00  0.00    +0.000 A 
ATOM     16  C   UNL     1       7.877  14.920  18.232  0.00  0.00    +0.000 A 
ATOM     17  C   UNL     1       7.638  15.961  19.136  0.00  0.00    +0.000 A 
ATOM     18  N   UNL     1       6.415  16.388  19.537  0.00  0.00    +0.000 NA
ATOM     19  C   UNL     1       1.241  14.564  21.242  0.00  0.00    +0.000 C 
ATOM     20  H   UNL     1       4.206  16.904  20.187  0.00  0.00    +0.000 HD
ENDROOT
BRANCH   4  21
ATOM     21  N   UNL     1      -0.842  12.358  20.941  0.00  0.00    +0.000 N 
ATOM     22  C   UNL     1      -1.249  11.499  22.076  0.00  0.00    +0.000 C 
ATOM     23  C   UNL     1      -0.152  10.433  22.348  0.00  0.00    +0.000 C 
ATOM     24  N   UNL     1       0.174   9.620  21.154  0.00  0.00    +0.000 NA
ATOM     25  C   UNL     1       1.259   8.683  21.423  0.00  0.00    +0.000 C 
ATOM     26  C   UNL     1       0.572  10.518  20.057  0.00  0.00    +0.000 C 
ATOM     27  C   UNL     1      -0.499  11.567  19.746  0.00  0.00    +0.000 C 
ENDBRANCH   4  21
BRANCH  16  28
ATOM     28  C   UNL     1       9.233  14.505  17.849  0.00  0.00    +0.000 A 
ATOM     29  C   UNL     1       9.616  13.177  17.728  0.00  0.00    +0.000 A 
ATOM     30  N   UNL     1      10.855  12.755  17.395  0.00  0.00    +0.000 NA
ATOM     31  C   UNL     1      11.754  13.721  17.165  0.00  0.00    +0.000 A 
ATOM     32  N   UNL     1      11.522  15.038  17.237  0.00  0.00    +0.000 NA
ATOM     33  C   UNL     1      10.264  15.394  17.582  0.00  0.00    +0.000 A 
ENDBRANCH  16  28
BRANCH   1  35
ATOM     34  C   UNL     1      -3.491  17.897  22.324  0.00  0.00    +0.000 C 
ATOM     35  O   UNL     1      -2.436  17.726  21.378  0.00  0.00    +0.000 OA
ENDBRANCH   1  35
TORSDOF 3
ENDMDL
MODEL 7
REMARK VINA RESULT:      -6.2      3.336      4.841
REMARK  Name = 
REMARK  5 active torsions:
REMARK  status: ('A' for Active; 'I' for Inactive)
REMARK    1  A    between atoms: C_1  and  O_2
REMARK    2  A    between atoms: O_2  and  C_3
REMARK    3  A    between atoms: C_6  and  N_7
REMARK    4  A    between atoms: N_10  and  C_11
REMARK    5  A    between atoms: C_25  and  C_26
REMARK                            x       y       z     vdW  Elec       q    Type
REMARK                         _______ _______ _______ _____ _____    ______ ____
ROOT
ATOM      1  C   UNL     1      -3.568  16.777  23.573  0.00  0.00    +0.000 A 
ATOM      2  C   UNL     1      -4.542  17.270  22.712  0.00  0.00    +0.000 A 
ATOM      3  C   UNL     1      -5.211  16.418  21.829  0.00  0.00    +0.000 A 
ATOM      4  C   UNL     1      -4.923  15.045  21.726  0.00  0.00    +0.000 A 
ATOM      5  C   UNL     1      -3.849  14.582  22.527  0.00  0.00    +0.000 A 
ATOM      6  C   UNL     1      -3.188  15.438  23.455  0.00  0.00    +0.000 A 
ATOM      7  C   UNL     1      -2.115  14.803  24.316  0.00  0.00    +0.000 C 
ATOM      8  C   UNL     1      -1.199  13.933  23.445  0.00  0.00    +0.000 C 
ATOM      9  N   UNL     1      -1.941  12.941  22.658  0.00  0.00    +0.000 N 
ATOM     10  C   UNL     1      -1.411  11.878  21.936  0.00  0.00    +0.000 C 
ATOM     11  O   UNL     1      -2.127  11.164  21.222  0.00  0.00    +0.000 OA
ATOM     12  N   UNL     1      -0.073  11.657  22.097  0.00  0.00    +0.000 N 
ATOM     13  C   UNL     1       0.531  10.583  21.429  0.00  0.00    +0.000 A 
ATOM     14  C   UNL     1       0.354  10.370  20.067  0.00  0.00    +0.000 A 
ATOM     15  C   UNL     1       0.909   9.228  19.488  0.00  0.00    +0.000 A 
ATOM     16  C   UNL     1       1.616   8.307  20.271  0.00  0.00    +0.000 A 
ATOM     17  C   UNL     1       1.756   8.646  21.621  0.00  0.00    +0.000 A 
ATOM     18  N   UNL     1       1.267   9.768  22.205  0.00  0.00    +0.000 NA
ATOM     19  C   UNL     1      -3.364  13.156  22.488  0.00  0.00    +0.000 C 
ATOM     20  H   UNL     1       0.243  11.721  23.045  0.00  0.00    +0.000 HD
ENDROOT
BRANCH   4  21
ATOM     21  N   UNL     1      -5.741  14.254  20.927  0.00  0.00    +0.000 N 
ATOM     22  C   UNL     1      -6.788  13.392  21.520  0.00  0.00    +0.000 C 
ATOM     23  C   UNL     1      -6.913  12.078  20.703  0.00  0.00    +0.000 C 
ATOM     24  N   UNL     1      -7.170  12.313  19.263  0.00  0.00    +0.000 NA
ATOM     25  C   UNL     1      -7.204  11.063  18.513  0.00  0.00    +0.000 C 
ATOM     26  C   UNL     1      -6.104  13.172  18.721  0.00  0.00    +0.000 C 
ATOM     27  C   UNL     1      -5.970  14.490  19.490  0.00  0.00    +0.000 C 
ENDBRANCH   4  21
BRANCH  16  28
ATOM     28  C   UNL     1       2.166   7.067  19.709  0.00  0.00    +0.000 A 
ATOM     29  C   UNL     1       2.018   5.826  20.312  0.00  0.00    +0.000 A 
ATOM     30  N   UNL     1       2.522   4.667  19.835  0.00  0.00    +0.000 NA
ATOM     31  C   UNL     1       3.207   4.761  18.688  0.00  0.00    +0.000 A 
ATOM     32  N   UNL     1       3.421   5.887  17.996  0.00  0.00    +0.000 NA
ATOM     33  C   UNL     1       2.897   7.013  18.530  0.00  0.00    +0.000 A 
ENDBRANCH  16  28
BRANCH   1  35
ATOM     34  C   UNL     1      -2.162  18.617  24.009  0.00  0.00    +0.000 C 
ATOM     35  O   UNL     1      -2.945  17.539  24.524  0.00  0.00    +0.000 OA
ENDBRANCH   1  35
TORSDOF 3
ENDMDL
MODEL 8
REMARK VINA RESULT:      -6.1      5.395      8.002
REMARK  Name = 
REMARK  5 active torsions:
REMARK  status: ('A' for Active; 'I' for Inactive)
REMARK    1  A    between atoms: C_1  and  O_2
REMARK    2  A    between atoms: O_2  and  C_3
REMARK    3  A    between atoms: C_6  and  N_7
REMARK    4  A    between atoms: N_10  and  C_11
REMARK    5  A    between atoms: C_25  and  C_26
REMARK                            x       y       z     vdW  Elec       q    Type
REMARK                         _______ _______ _______ _____ _____    ______ ____
ROOT
ATOM      1  C   UNL     1      -5.281  13.911  22.689  0.00  0.00    +0.000 A 
ATOM      2  C   UNL     1      -6.120  13.721  21.597  0.00  0.00    +0.000 A 
ATOM      3  C   UNL     1      -5.649  13.100  20.437  0.00  0.00    +0.000 A 
ATOM      4  C   UNL     1      -4.318  12.673  20.284  0.00  0.00    +0.000 A 
ATOM      5  C   UNL     1      -3.449  12.978  21.362  0.00  0.00    +0.000 A 
ATOM      6  C   UNL     1      -3.931  13.578  22.561  0.00  0.00    +0.000 A 
ATOM      7  C   UNL     1      -2.920  13.774  23.673  0.00  0.00    +0.000 C 
ATOM      8  C   UNL     1      -1.630  14.375  23.100  0.00  0.00    +0.000 C 
ATOM      9  N   UNL     1      -1.086  13.592  21.986  0.00  0.00    +0.000 N 
ATOM     10  C   UNL     1       0.160  13.739  21.388  0.00  0.00    +0.000 C 
ATOM     11  O   UNL     1       0.473  13.089  20.381  0.00  0.00    +0.000 OA
ATOM     12  N   UNL     1       1.015  14.612  21.998  0.00  0.00    +0.000 N 
ATOM     13  C   UNL     1       2.303  14.791  21.475  0.00  0.00    +0.000 A 
ATOM     14  C   UNL     1       2.521  15.055  20.128  0.00  0.00    +0.000 A 
ATOM     15  C   UNL     1       3.833  15.129  19.662  0.00  0.00    +0.000 A 
ATOM     16  C   UNL     1       4.909  14.925  20.534  0.00  0.00    +0.000 A 
ATOM     17  C   UNL     1       4.567  14.701  21.872  0.00  0.00    +0.000 A 
ATOM     18  N   UNL     1       3.303  14.666  22.365  0.00  0.00    +0.000 NA
ATOM     19  C   UNL     1      -1.978  12.654  21.334  0.00  0.00    +0.000 C 
ATOM     20  H   UNL     1       1.034  14.536  22.997  0.00  0.00    +0.000 HD
ENDROOT
BRANCH   4  21
ATOM     21  N   UNL     1      -3.984  11.935  19.154  0.00  0.00    +0.000 N 
ATOM     22  C   UNL     1      -2.587  11.515  18.900  0.00  0.00    +0.000 C 
ATOM     23  C   UNL     1      -2.296  11.550  17.375  0.00  0.00    +0.000 C 
ATOM     24  N   UNL     1      -3.249  10.738  16.584  0.00  0.00    +0.000 NA
ATOM     25  C   UNL     1      -2.996  10.855  15.153  0.00  0.00    +0.000 C 
ATOM     26  C   UNL     1      -4.620  11.194  16.870  0.00  0.00    +0.000 C 
ATOM     27  C   UNL     1      -4.949  11.149  18.365  0.00  0.00    +0.000 C 
ENDBRANCH   4  21
BRANCH  16  28
ATOM     28  C   UNL     1       6.302  14.940  20.069  0.00  0.00    +0.000 A 
ATOM     29  C   UNL     1       6.660  15.150  18.745  0.00  0.00    +0.000 A 
ATOM     30  N   UNL     1       7.928  15.156  18.277  0.00  0.00    +0.000 NA
ATOM     31  C   UNL     1       8.885  14.945  19.189  0.00  0.00    +0.000 A 
ATOM     32  N   UNL     1       8.684  14.737  20.497  0.00  0.00    +0.000 NA
ATOM     33  C   UNL     1       7.394  14.736  20.901  0.00  0.00    +0.000 A 
ENDBRANCH  16  28
BRANCH   1  35
ATOM     34  C   UNL     1      -6.287  15.727  23.806  0.00  0.00    +0.000 C 
ATOM     35  O   UNL     1      -5.704  14.426  23.885  0.00  0.00    +0.000 OA
ENDBRANCH   1  35
TORSDOF 3
ENDMDL
MODEL 9
REMARK VINA RESULT:      -6.1      3.033     10.313
REMARK  Name = 
REMARK  5 active torsions:
REMARK  status: ('A' for Active; 'I' for Inactive)
REMARK    1  A    between atoms: C_1  and  O_2
REMARK    2  A    between atoms: O_2  and  C_3
REMARK    3  A    between atoms: C_6  and  N_7
REMARK    4  A    between atoms: N_10  and  C_11
REMARK    5  A    between atoms: C_25  and  C_26
REMARK                            x       y       z     vdW  Elec       q    Type
REMARK                         _______ _______ _______ _____ _____    ______ ____
ROOT
ATOM      1  C   UNL     1       6.222   5.415  16.463  0.00  0.00    +0.000 A 
ATOM      2  C   UNL     1       6.622   4.294  17.181  0.00  0.00    +0.000 A 
ATOM      3  C   UNL     1       5.758   3.689  18.099  0.00  0.00    +0.000 A 
ATOM      4  C   UNL     1       4.472   4.186  18.380  0.00  0.00    +0.000 A 
ATOM      5  C   UNL     1       4.125   5.395  17.725  0.00  0.00    +0.000 A 
ATOM      6  C   UNL     1       4.987   5.995  16.763  0.00  0.00    +0.000 A 
ATOM      7  C   UNL     1       4.465   7.237  16.068  0.00  0.00    +0.000 C 
ATOM      8  C   UNL     1       3.856   8.192  17.103  0.00  0.00    +0.000 C 
ATOM      9  N   UNL     1       2.833   7.548  17.935  0.00  0.00    +0.000 N 
ATOM     10  C   UNL     1       1.954   8.170  18.813  0.00  0.00    +0.000 C 
ATOM     11  O   UNL     1       1.201   7.514  19.544  0.00  0.00    +0.000 OA
ATOM     12  N   UNL     1       1.952   9.536  18.787  0.00  0.00    +0.000 N 
ATOM     13  C   UNL     1       1.069  10.238  19.619  0.00  0.00    +0.000 A 
ATOM     14  C   UNL     1       0.964   9.966  20.978  0.00  0.00    +0.000 A 
ATOM     15  C   UNL     1      -0.002  10.639  21.725  0.00  0.00    +0.000 A 
ATOM     16  C   UNL     1      -0.860  11.560  21.111  0.00  0.00    +0.000 A 
ATOM     17  C   UNL     1      -0.636  11.776  19.746  0.00  0.00    +0.000 A 
ATOM     18  N   UNL     1       0.322  11.170  19.001  0.00  0.00    +0.000 NA
ATOM     19  C   UNL     1       2.815   6.099  17.965  0.00  0.00    +0.000 C 
ATOM     20  H   UNL     1       1.976   9.929  17.866  0.00  0.00    +0.000 HD
ENDROOT
BRANCH   4  21
ATOM     21  N   UNL     1       3.635   3.433  19.195  0.00  0.00    +0.000 N 
ATOM     22  C   UNL     1       2.237   3.146  18.800  0.00  0.00    +0.000 C 
ATOM     23  C   UNL     1       1.326   3.137  20.057  0.00  0.00    +0.000 C 
ATOM     24  N   UNL     1       1.788   2.195  21.101  0.00  0.00    +0.000 NA
ATOM     25  C   UNL     1       0.956   2.268  22.297  0.00  0.00    +0.000 C 
ATOM     26  C   UNL     1       3.178   2.521  21.460  0.00  0.00    +0.000 C 
ATOM     27  C   UNL     1       4.110   2.514  20.245  0.00  0.00    +0.000 C 
ENDBRANCH   4  21
BRANCH  16  28
ATOM     28  C   UNL     1      -1.925  12.248  21.853  0.00  0.00    +0.000 A 
ATOM     29  C   UNL     1      -2.296  11.904  23.145  0.00  0.00    +0.000 A 
ATOM     30  N   UNL     1      -3.279  12.501  23.853  0.00  0.00    +0.000 NA
ATOM     31  C   UNL     1      -3.919  13.499  23.231  0.00  0.00    +0.000 A 
ATOM     32  N   UNL     1      -3.662  13.940  21.993  0.00  0.00    +0.000 NA
ATOM     33  C   UNL     1      -2.671  13.297  21.335  0.00  0.00    +0.000 A 
ENDBRANCH  16  28
BRANCH   1  35
ATOM     34  C   UNL     1       7.154   5.206  14.308  0.00  0.00    +0.000 C 
ATOM     35  O   UNL     1       6.983   5.996  15.485  0.00  0.00    +0.000 OA
ENDBRANCH   1  35
TORSDOF 3
ENDMDL
