MODEL 1
REMARK VINA RESULT:      -8.6      0.000      0.000
REMARK  Name = 
REMARK  4 active torsions:
REMARK  status: ('A' for Active; 'I' for Inactive)
REMARK    1  A    between atoms: C_2  and  O_3
REMARK    2  A    between atoms: C_2  and  C_4
REMARK    3  A    between atoms: C_4  and  C_5
REMARK    4  A    between atoms: C_13  and  N_14
REMARK                            x       y       z     vdW  Elec       q    Type
REMARK                         _______ _______ _______ _____ _____    ______ ____
ROOT
ATOM      1  C   UNL     1      -0.747  11.197  22.536  0.00  0.00    +0.000 A 
ATOM      2  C   UNL     1      -0.397   9.998  23.207  0.00  0.00    +0.000 A 
ATOM      3  C   UNL     1       0.301   9.216  22.316  0.00  0.00    +0.000 A 
ATOM      4  N   UNL     1       0.407   9.880  21.108  0.00  0.00    +0.000 N 
ATOM      5  C   UNL     1       1.057   9.366  19.947  0.00  0.00    +0.000 A 
ATOM      6  C   UNL     1       1.105  10.117  18.778  0.00  0.00    +0.000 A 
ATOM      7  N   UNL     1       1.755   9.697  17.667  0.00  0.00    +0.000 NA
ATOM      8  C   UNL     1       2.359   8.487  17.761  0.00  0.00    +0.000 A 
ATOM      9  C   UNL     1       2.295   7.704  18.910  0.00  0.00    +0.000 A 
ATOM     10  N   UNL     1       1.636   8.135  20.022  0.00  0.00    +0.000 NA
ATOM     11  C   UNL     1      -0.219  11.100  21.260  0.00  0.00    +0.000 A 
ENDROOT
BRANCH   9  12
ATOM     12  N   UNL     1       2.895   6.409  18.883  0.00  0.00    +0.000 N 
ATOM     13  N   UNL     1       4.000   6.183  18.117  0.00  0.00    +0.000 NA
ATOM     14  C   UNL     1       4.198   4.872  18.207  0.00  0.00    +0.000 A 
ATOM     15 CL   UNL     1       5.486   4.144  17.379  0.00  0.00    +0.000 Cl
ATOM     16  C   UNL     1       3.247   4.218  19.015  0.00  0.00    +0.000 A 
ATOM     17  C   UNL     1       2.972   2.886  19.375  0.00  0.00    +0.000 A 
ATOM     18  C   UNL     1       1.905   2.622  20.238  0.00  0.00    +0.000 A 
ATOM     19  C   UNL     1       1.148   3.662  20.767  0.00  0.00    +0.000 A 
ATOM     20  C   UNL     1       1.409   4.992  20.423  0.00  0.00    +0.000 A 
ATOM     21  C   UNL     1       2.451   5.251  19.516  0.00  0.00    +0.000 A 
ENDBRANCH   9  12
BRANCH   1  22
ATOM     22  C   UNL     1      -1.523  12.349  23.098  0.00  0.00    +0.000 C 
BRANCH  22  24
ATOM     23  O   UNL     1      -3.574  12.524  21.845  0.00  0.00    +0.000 OA
ATOM     24  C   UNL     1      -3.020  12.242  22.901  0.00  0.00    +0.000 C 
BRANCH  24  25
ATOM     25  O   UNL     1      -3.735  11.879  23.993  0.00  0.00    +0.000 OA
ATOM     26  H   UNL     1      -3.598  12.465  24.764  0.00  0.00    +0.000 HD
ENDBRANCH  24  25
ENDBRANCH  22  24
ENDBRANCH   1  22
TORSDOF 4
ENDMDL
MODEL 2
REMARK VINA RESULT:      -8.3      1.035      1.243
REMARK  Name = 
REMARK  4 active torsions:
REMARK  status: ('A' for Active; 'I' for Inactive)
REMARK    1  A    between atoms: C_2  and  O_3
REMARK    2  A    between atoms: C_2  and  C_4
REMARK    3  A    between atoms: C_4  and  C_5
REMARK    4  A    between atoms: C_13  and  N_14
REMARK                            x       y       z     vdW  Elec       q    Type
REMARK                         _______ _______ _______ _____ _____    ______ ____
ROOT
ATOM      1  C   UNL     1      -0.653  11.030  22.494  0.00  0.00    +0.000 A 
ATOM      2  C   UNL     1      -0.404   9.771  23.096  0.00  0.00    +0.000 A 
ATOM      3  C   UNL     1       0.280   9.004  22.181  0.00  0.00    +0.000 A 
ATOM      4  N   UNL     1       0.474   9.735  21.024  0.00  0.00    +0.000 N 
ATOM      5  C   UNL     1       1.137   9.255  19.856  0.00  0.00    +0.000 A 
ATOM      6  C   UNL     1       1.276  10.074  18.740  0.00  0.00    +0.000 A 
ATOM      7  N   UNL     1       1.942   9.685  17.628  0.00  0.00    +0.000 NA
ATOM      8  C   UNL     1       2.468   8.435  17.664  0.00  0.00    +0.000 A 
ATOM      9  C   UNL     1       2.310   7.587  18.757  0.00  0.00    +0.000 A 
ATOM     10  N   UNL     1       1.635   7.988  19.870  0.00  0.00    +0.000 NA
ATOM     11  C   UNL     1      -0.082  10.980  21.233  0.00  0.00    +0.000 A 
ENDROOT
BRANCH   9  12
ATOM     12  N   UNL     1       2.831   6.260  18.665  0.00  0.00    +0.000 N 
ATOM     13  N   UNL     1       3.789   5.963  17.743  0.00  0.00    +0.000 NA
ATOM     14  C   UNL     1       3.930   4.645  17.831  0.00  0.00    +0.000 A 
ATOM     15 CL   UNL     1       5.034   3.836  16.830  0.00  0.00    +0.000 Cl
ATOM     16  C   UNL     1       3.085   4.055  18.790  0.00  0.00    +0.000 A 
ATOM     17  C   UNL     1       2.800   2.746  19.219  0.00  0.00    +0.000 A 
ATOM     18  C   UNL     1       1.869   2.553  20.242  0.00  0.00    +0.000 A 
ATOM     19  C   UNL     1       1.258   3.640  20.859  0.00  0.00    +0.000 A 
ATOM     20  C   UNL     1       1.532   4.949  20.448  0.00  0.00    +0.000 A 
ATOM     21  C   UNL     1       2.431   5.137  19.386  0.00  0.00    +0.000 A 
ENDBRANCH   9  12
BRANCH   1  22
ATOM     22  C   UNL     1      -1.378  12.191  23.102  0.00  0.00    +0.000 C 
BRANCH  22  24
ATOM     23  O   UNL     1       0.148  14.034  22.814  0.00  0.00    +0.000 OA
ATOM     24  C   UNL     1      -0.946  13.540  22.567  0.00  0.00    +0.000 C 
BRANCH  24  25
ATOM     25  O   UNL     1      -1.874  14.216  21.848  0.00  0.00    +0.000 OA
ATOM     26  H   UNL     1      -1.769  15.187  21.886  0.00  0.00    +0.000 HD
ENDBRANCH  24  25
ENDBRANCH  22  24
ENDBRANCH   1  22
TORSDOF 4
ENDMDL
MODEL 3
REMARK VINA RESULT:      -8.2      1.321      1.463
REMARK  Name = 
REMARK  4 active torsions:
REMARK  status: ('A' for Active; 'I' for Inactive)
REMARK    1  A    between atoms: C_2  and  O_3
REMARK    2  A    between atoms: C_2  and  C_4
REMARK    3  A    between atoms: C_4  and  C_5
REMARK    4  A    between atoms: C_13  and  N_14
REMARK                            x       y       z     vdW  Elec       q    Type
REMARK                         _______ _______ _______ _____ _____    ______ ____
ROOT
ATOM      1  C   UNL     1      -0.579  10.520  22.442  0.00  0.00    +0.000 A 
ATOM      2  C   UNL     1      -0.113   9.330  23.054  0.00  0.00    +0.000 A 
ATOM      3  C   UNL     1       0.629   8.648  22.116  0.00  0.00    +0.000 A 
ATOM      4  N   UNL     1       0.650   9.368  20.936  0.00  0.00    +0.000 N 
ATOM      5  C   UNL     1       1.315   8.961  19.742  0.00  0.00    +0.000 A 
ATOM      6  C   UNL     1       1.271   9.761  18.606  0.00  0.00    +0.000 A 
ATOM      7  N   UNL     1       1.929   9.445  17.465  0.00  0.00    +0.000 NA
ATOM      8  C   UNL     1       2.638   8.289  17.496  0.00  0.00    +0.000 A 
ATOM      9  C   UNL     1       2.667   7.457  18.611  0.00  0.00    +0.000 A 
ATOM     10  N   UNL     1       1.999   7.783  19.753  0.00  0.00    +0.000 NA
ATOM     11  C   UNL     1      -0.075  10.522  21.153  0.00  0.00    +0.000 A 
ENDROOT
BRANCH   9  12
ATOM     12  N   UNL     1       3.375   6.221  18.516  0.00  0.00    +0.000 N 
ATOM     13  N   UNL     1       4.734   6.218  18.404  0.00  0.00    +0.000 NA
ATOM     14  C   UNL     1       5.041   4.942  18.191  0.00  0.00    +0.000 A 
ATOM     15 CL   UNL     1       6.657   4.478  17.975  0.00  0.00    +0.000 Cl
ATOM     16  C   UNL     1       3.917   4.095  18.157  0.00  0.00    +0.000 A 
ATOM     17  C   UNL     1       3.687   2.729  17.911  0.00  0.00    +0.000 A 
ATOM     18  C   UNL     1       2.382   2.236  17.976  0.00  0.00    +0.000 A 
ATOM     19  C   UNL     1       1.325   3.073  18.318  0.00  0.00    +0.000 A 
ATOM     20  C   UNL     1       1.534   4.434  18.569  0.00  0.00    +0.000 A 
ATOM     21  C   UNL     1       2.841   4.936  18.454  0.00  0.00    +0.000 A 
ENDBRANCH   9  12
BRANCH   1  22
ATOM     22  C   UNL     1      -1.438  11.577  23.068  0.00  0.00    +0.000 C 
BRANCH  22  24
ATOM     23  O   UNL     1      -1.995  13.474  21.690  0.00  0.00    +0.000 OA
ATOM     24  C   UNL     1      -1.228  12.963  22.497  0.00  0.00    +0.000 C 
BRANCH  24  25
ATOM     25  O   UNL     1      -0.090  13.592  22.878  0.00  0.00    +0.000 OA
ATOM     26  H   UNL     1       0.119  14.384  22.344  0.00  0.00    +0.000 HD
ENDBRANCH  24  25
ENDBRANCH  22  24
ENDBRANCH   1  22
TORSDOF 4
ENDMDL
MODEL 4
REMARK VINA RESULT:      -8.0      1.257      2.367
REMARK  Name = 
REMARK  4 active torsions:
REMARK  status: ('A' for Active; 'I' for Inactive)
REMARK    1  A    between atoms: C_2  and  O_3
REMARK    2  A    between atoms: C_2  and  C_4
REMARK    3  A    between atoms: C_4  and  C_5
REMARK    4  A    between atoms: C_13  and  N_14
REMARK                            x       y       z     vdW  Elec       q    Type
REMARK                         _______ _______ _______ _____ _____    ______ ____
ROOT
ATOM      1  C   UNL     1      -0.850  11.257  22.550  0.00  0.00    +0.000 A 
ATOM      2  C   UNL     1      -0.565  10.021  23.183  0.00  0.00    +0.000 A 
ATOM      3  C   UNL     1       0.145   9.254  22.287  0.00  0.00    +0.000 A 
ATOM      4  N   UNL     1       0.321   9.963  21.114  0.00  0.00    +0.000 N 
ATOM      5  C   UNL     1       1.002   9.477  19.959  0.00  0.00    +0.000 A 
ATOM      6  C   UNL     1       1.120  10.273  18.826  0.00  0.00    +0.000 A 
ATOM      7  N   UNL     1       1.803   9.879  17.724  0.00  0.00    +0.000 NA
ATOM      8  C   UNL     1       2.365   8.647  17.792  0.00  0.00    +0.000 A 
ATOM      9  C   UNL     1       2.230   7.820  18.903  0.00  0.00    +0.000 A 
ATOM     10  N   UNL     1       1.539   8.226  20.005  0.00  0.00    +0.000 NA
ATOM     11  C   UNL     1      -0.274  11.196  21.293  0.00  0.00    +0.000 A 
ENDROOT
BRANCH   9  12
ATOM     12  N   UNL     1       2.791   6.509  18.844  0.00  0.00    +0.000 N 
ATOM     13  N   UNL     1       2.383   5.550  19.723  0.00  0.00    +0.000 NA
ATOM     14  C   UNL     1       3.196   4.525  19.489  0.00  0.00    +0.000 A 
ATOM     15 CL   UNL     1       3.047   3.095  20.388  0.00  0.00    +0.000 Cl
ATOM     16  C   UNL     1       4.139   4.779  18.474  0.00  0.00    +0.000 A 
ATOM     17  C   UNL     1       5.223   4.087  17.906  0.00  0.00    +0.000 A 
ATOM     18  C   UNL     1       5.946   4.688  16.872  0.00  0.00    +0.000 A 
ATOM     19  C   UNL     1       5.578   5.937  16.382  0.00  0.00    +0.000 A 
ATOM     20  C   UNL     1       4.500   6.638  16.934  0.00  0.00    +0.000 A 
ATOM     21  C   UNL     1       3.806   6.053  18.006  0.00  0.00    +0.000 A 
ENDBRANCH   9  12
BRANCH   1  22
ATOM     22  C   UNL     1      -1.613  12.410  23.128  0.00  0.00    +0.000 C 
BRANCH  22  24
ATOM     23  O   UNL     1      -3.730  12.572  21.989  0.00  0.00    +0.000 OA
ATOM     24  C   UNL     1      -3.117  12.279  23.008  0.00  0.00    +0.000 C 
BRANCH  24  25
ATOM     25  O   UNL     1      -3.767  11.883  24.128  0.00  0.00    +0.000 OA
ATOM     26  H   UNL     1      -4.645  12.297  24.240  0.00  0.00    +0.000 HD
ENDBRANCH  24  25
ENDBRANCH  22  24
ENDBRANCH   1  22
TORSDOF 4
ENDMDL
MODEL 5
REMARK VINA RESULT:      -7.9      4.848      8.176
REMARK  Name = 
REMARK  4 active torsions:
REMARK  status: ('A' for Active; 'I' for Inactive)
REMARK    1  A    between atoms: C_2  and  O_3
REMARK    2  A    between atoms: C_2  and  C_4
REMARK    3  A    between atoms: C_4  and  C_5
REMARK    4  A    between atoms: C_13  and  N_14
REMARK                            x       y       z     vdW  Elec       q    Type
REMARK                         _______ _______ _______ _____ _____    ______ ____
ROOT
ATOM      1  C   UNL     1       3.120   3.835  20.094  0.00  0.00    +0.000 A 
ATOM      2  C   UNL     1       2.136   4.206  21.045  0.00  0.00    +0.000 A 
ATOM      3  C   UNL     1       1.744   5.493  20.752  0.00  0.00    +0.000 A 
ATOM      4  N   UNL     1       2.444   5.945  19.649  0.00  0.00    +0.000 N 
ATOM      5  C   UNL     1       2.305   7.240  19.068  0.00  0.00    +0.000 A 
ATOM      6  C   UNL     1       3.061   7.597  17.958  0.00  0.00    +0.000 A 
ATOM      7  N   UNL     1       2.928   8.794  17.338  0.00  0.00    +0.000 NA
ATOM      8  C   UNL     1       2.007   9.633  17.872  0.00  0.00    +0.000 A 
ATOM      9  C   UNL     1       1.263   9.309  19.004  0.00  0.00    +0.000 A 
ATOM     10  N   UNL     1       1.407   8.103  19.622  0.00  0.00    +0.000 NA
ATOM     11  C   UNL     1       3.268   4.916  19.242  0.00  0.00    +0.000 A 
ENDROOT
BRANCH   9  12
ATOM     12  N   UNL     1       0.378  10.293  19.538  0.00  0.00    +0.000 N 
ATOM     13  N   UNL     1       0.638  10.863  20.748  0.00  0.00    +0.000 NA
ATOM     14  C   UNL     1      -0.437  11.602  21.000  0.00  0.00    +0.000 A 
ATOM     15 CL   UNL     1      -0.545  12.491  22.440  0.00  0.00    +0.000 Cl
ATOM     16  C   UNL     1      -1.411  11.536  19.984  0.00  0.00    +0.000 A 
ATOM     17  C   UNL     1      -2.705  12.051  19.790  0.00  0.00    +0.000 A 
ATOM     18  C   UNL     1      -3.381  11.761  18.601  0.00  0.00    +0.000 A 
ATOM     19  C   UNL     1      -2.770  11.006  17.606  0.00  0.00    +0.000 A 
ATOM     20  C   UNL     1      -1.482  10.488  17.780  0.00  0.00    +0.000 A 
ATOM     21  C   UNL     1      -0.825  10.740  18.996  0.00  0.00    +0.000 A 
ENDBRANCH   9  12
BRANCH   1  22
ATOM     22  C   UNL     1       3.850   2.529  20.017  0.00  0.00    +0.000 C 
BRANCH  22  24
ATOM     23  O   UNL     1       2.543   1.920  18.086  0.00  0.00    +0.000 OA
ATOM     24  C   UNL     1       3.531   1.714  18.781  0.00  0.00    +0.000 C 
BRANCH  24  25
ATOM     25  O   UNL     1       4.370   0.684  18.520  0.00  0.00    +0.000 OA
ATOM     26  H   UNL     1       4.303  -0.050  19.162  0.00  0.00    +0.000 HD
ENDBRANCH  24  25
ENDBRANCH  22  24
ENDBRANCH   1  22
TORSDOF 4
ENDMDL
MODEL 6
REMARK VINA RESULT:      -7.8      4.674      7.968
REMARK  Name = 
REMARK  4 active torsions:
REMARK  status: ('A' for Active; 'I' for Inactive)
REMARK    1  A    between atoms: C_2  and  O_3
REMARK    2  A    between atoms: C_2  and  C_4
REMARK    3  A    between atoms: C_4  and  C_5
REMARK    4  A    between atoms: C_13  and  N_14
REMARK                            x       y       z     vdW  Elec       q    Type
REMARK                         _______ _______ _______ _____ _____    ______ ____
ROOT
ATOM      1  C   UNL     1       3.091   3.773  20.079  0.00  0.00    +0.000 A 
ATOM      2  C   UNL     1       2.171   4.190  21.073  0.00  0.00    +0.000 A 
ATOM      3  C   UNL     1       1.810   5.486  20.782  0.00  0.00    +0.000 A 
ATOM      4  N   UNL     1       2.468   5.900  19.639  0.00  0.00    +0.000 N 
ATOM      5  C   UNL     1       2.346   7.192  19.049  0.00  0.00    +0.000 A 
ATOM      6  C   UNL     1       3.057   7.508  17.897  0.00  0.00    +0.000 A 
ATOM      7  N   UNL     1       2.935   8.701  17.268  0.00  0.00    +0.000 NA
ATOM      8  C   UNL     1       2.073   9.580  17.836  0.00  0.00    +0.000 A 
ATOM      9  C   UNL     1       1.377   9.297  19.008  0.00  0.00    +0.000 A 
ATOM     10  N   UNL     1       1.509   8.094  19.634  0.00  0.00    +0.000 NA
ATOM     11  C   UNL     1       3.234   4.837  19.205  0.00  0.00    +0.000 A 
ENDROOT
BRANCH   9  12
ATOM     12  N   UNL     1       0.555  10.319  19.572  0.00  0.00    +0.000 N 
ATOM     13  N   UNL     1       0.341  11.479  18.890  0.00  0.00    +0.000 NA
ATOM     14  C   UNL     1      -0.326  12.244  19.747  0.00  0.00    +0.000 A 
ATOM     15 CL   UNL     1      -0.793  13.813  19.307  0.00  0.00    +0.000 Cl
ATOM     16  C   UNL     1      -0.559  11.621  20.989  0.00  0.00    +0.000 A 
ATOM     17  C   UNL     1      -1.136  11.995  22.216  0.00  0.00    +0.000 A 
ATOM     18  C   UNL     1      -1.193  11.061  23.253  0.00  0.00    +0.000 A 
ATOM     19  C   UNL     1      -0.723   9.765  23.067  0.00  0.00    +0.000 A 
ATOM     20  C   UNL     1      -0.149   9.374  21.852  0.00  0.00    +0.000 A 
ATOM     21  C   UNL     1      -0.048  10.330  20.828  0.00  0.00    +0.000 A 
ENDBRANCH   9  12
BRANCH   1  22
ATOM     22  C   UNL     1       3.769   2.440  19.983  0.00  0.00    +0.000 C 
BRANCH  22  24
ATOM     23  O   UNL     1       2.502   1.926  17.999  0.00  0.00    +0.000 OA
ATOM     24  C   UNL     1       3.476   1.687  18.702  0.00  0.00    +0.000 C 
BRANCH  24  25
ATOM     25  O   UNL     1       4.322   0.671  18.407  0.00  0.00    +0.000 OA
ATOM     26  H   UNL     1       4.673   0.705  17.495  0.00  0.00    +0.000 HD
ENDBRANCH  24  25
ENDBRANCH  22  24
ENDBRANCH   1  22
TORSDOF 4
ENDMDL
MODEL 7
REMARK VINA RESULT:      -7.8      5.279      8.787
REMARK  Name = 
REMARK  4 active torsions:
REMARK  status: ('A' for Active; 'I' for Inactive)
REMARK    1  A    between atoms: C_2  and  O_3
REMARK    2  A    between atoms: C_2  and  C_4
REMARK    3  A    between atoms: C_4  and  C_5
REMARK    4  A    between atoms: C_13  and  N_14
REMARK                            x       y       z     vdW  Elec       q    Type
REMARK                         _______ _______ _______ _____ _____    ______ ____
ROOT
ATOM      1  C   UNL     1       4.955   5.376  16.752  0.00  0.00    +0.000 A 
ATOM      2  C   UNL     1       4.810   6.663  16.176  0.00  0.00    +0.000 A 
ATOM      3  C   UNL     1       3.936   7.373  16.968  0.00  0.00    +0.000 A 
ATOM      4  N   UNL     1       3.527   6.580  18.024  0.00  0.00    +0.000 N 
ATOM      5  C   UNL     1       2.611   6.983  19.040  0.00  0.00    +0.000 A 
ATOM      6  C   UNL     1       2.262   6.104  20.060  0.00  0.00    +0.000 A 
ATOM      7  N   UNL     1       1.440   6.455  21.077  0.00  0.00    +0.000 NA
ATOM      8  C   UNL     1       0.968   7.725  21.039  0.00  0.00    +0.000 A 
ATOM      9  C   UNL     1       1.277   8.611  20.010  0.00  0.00    +0.000 A 
ATOM     10  N   UNL     1       2.104   8.246  18.990  0.00  0.00    +0.000 NA
ATOM     11  C   UNL     1       4.172   5.367  17.894  0.00  0.00    +0.000 A 
ENDROOT
BRANCH   9  12
ATOM     12  N   UNL     1       0.665   9.900  20.018  0.00  0.00    +0.000 N 
ATOM     13  N   UNL     1       0.964  10.794  21.003  0.00  0.00    +0.000 NA
ATOM     14  C   UNL     1       0.127  11.804  20.794  0.00  0.00    +0.000 A 
ATOM     15 CL   UNL     1       0.146  13.154  21.818  0.00  0.00    +0.000 Cl
ATOM     16  C   UNL     1      -0.727  11.603  19.692  0.00  0.00    +0.000 A 
ATOM     17  C   UNL     1      -1.796  12.300  19.101  0.00  0.00    +0.000 A 
ATOM     18  C   UNL     1      -2.414  11.764  17.968  0.00  0.00    +0.000 A 
ATOM     19  C   UNL     1      -1.956  10.578  17.406  0.00  0.00    +0.000 A 
ATOM     20  C   UNL     1      -0.892   9.872  17.978  0.00  0.00    +0.000 A 
ATOM     21  C   UNL     1      -0.305  10.388  19.146  0.00  0.00    +0.000 A 
ENDBRANCH   9  12
BRANCH   1  22
ATOM     22  C   UNL     1       5.796   4.249  16.237  0.00  0.00    +0.000 C 
BRANCH  22  24
ATOM     23  O   UNL     1       7.726   5.166  15.123  0.00  0.00    +0.000 OA
ATOM     24  C   UNL     1       7.266   4.586  16.099  0.00  0.00    +0.000 C 
BRANCH  24  25
ATOM     25  O   UNL     1       8.069   4.142  17.095  0.00  0.00    +0.000 OA
ATOM     26  H   UNL     1       7.614   3.563  17.738  0.00  0.00    +0.000 HD
ENDBRANCH  24  25
ENDBRANCH  22  24
ENDBRANCH   1  22
TORSDOF 4
ENDMDL
MODEL 8
REMARK VINA RESULT:      -7.8      5.296      8.974
REMARK  Name = 
REMARK  4 active torsions:
REMARK  status: ('A' for Active; 'I' for Inactive)
REMARK    1  A    between atoms: C_2  and  O_3
REMARK    2  A    between atoms: C_2  and  C_4
REMARK    3  A    between atoms: C_4  and  C_5
REMARK    4  A    between atoms: C_13  and  N_14
REMARK                            x       y       z     vdW  Elec       q    Type
REMARK                         _______ _______ _______ _____ _____    ______ ____
ROOT
ATOM      1  C   UNL     1       5.527   4.734  15.671  0.00  0.00    +0.000 A 
ATOM      2  C   UNL     1       5.389   6.142  15.587  0.00  0.00    +0.000 A 
ATOM      3  C   UNL     1       4.573   6.539  16.622  0.00  0.00    +0.000 A 
ATOM      4  N   UNL     1       4.193   5.432  17.357  0.00  0.00    +0.000 N 
ATOM      5  C   UNL     1       3.337   5.463  18.497  0.00  0.00    +0.000 A 
ATOM      6  C   UNL     1       3.014   4.287  19.165  0.00  0.00    +0.000 A 
ATOM      7  N   UNL     1       2.250   4.269  20.283  0.00  0.00    +0.000 NA
ATOM      8  C   UNL     1       1.811   5.477  20.715  0.00  0.00    +0.000 A 
ATOM      9  C   UNL     1       2.094   6.662  20.042  0.00  0.00    +0.000 A 
ATOM     10  N   UNL     1       2.862   6.669  18.916  0.00  0.00    +0.000 NA
ATOM     11  C   UNL     1       4.799   4.335  16.779  0.00  0.00    +0.000 A 
ENDROOT
BRANCH   9  12
ATOM     12  N   UNL     1       1.518   7.873  20.530  0.00  0.00    +0.000 N 
ATOM     13  N   UNL     1       1.162   7.982  21.842  0.00  0.00    +0.000 NA
ATOM     14  C   UNL     1       0.537   9.152  21.915  0.00  0.00    +0.000 A 
ATOM     15 CL   UNL     1      -0.096   9.690  23.393  0.00  0.00    +0.000 Cl
ATOM     16  C   UNL     1       0.465   9.826  20.681  0.00  0.00    +0.000 A 
ATOM     17  C   UNL     1      -0.119  11.016  20.211  0.00  0.00    +0.000 A 
ATOM     18  C   UNL     1       0.039  11.367  18.868  0.00  0.00    +0.000 A 
ATOM     19  C   UNL     1       0.796  10.574  18.012  0.00  0.00    +0.000 A 
ATOM     20  C   UNL     1       1.387   9.388  18.463  0.00  0.00    +0.000 A 
ATOM     21  C   UNL     1       1.185   9.013  19.801  0.00  0.00    +0.000 A 
ENDBRANCH   9  12
BRANCH   1  22
ATOM     22  C   UNL     1       6.313   3.849  14.752  0.00  0.00    +0.000 C 
BRANCH  22  24
ATOM     23  O   UNL     1       6.945   4.359  12.483  0.00  0.00    +0.000 OA
ATOM     24  C   UNL     1       7.076   4.596  13.678  0.00  0.00    +0.000 C 
BRANCH  24  25
ATOM     25  O   UNL     1       7.979   5.504  14.119  0.00  0.00    +0.000 OA
ATOM     26  H   UNL     1       7.861   6.394  13.732  0.00  0.00    +0.000 HD
ENDBRANCH  24  25
ENDBRANCH  22  24
ENDBRANCH   1  22
TORSDOF 4
ENDMDL
MODEL 9
REMARK VINA RESULT:      -7.8      1.666      2.824
REMARK  Name = 
REMARK  4 active torsions:
REMARK  status: ('A' for Active; 'I' for Inactive)
REMARK    1  A    between atoms: C_2  and  O_3
REMARK    2  A    between atoms: C_2  and  C_4
REMARK    3  A    between atoms: C_4  and  C_5
REMARK    4  A    between atoms: C_13  and  N_14
REMARK                            x       y       z     vdW  Elec       q    Type
REMARK                         _______ _______ _______ _____ _____    ______ ____
ROOT
ATOM      1  C   UNL     1      -0.721  10.689  22.495  0.00  0.00    +0.000 A 
ATOM      2  C   UNL     1      -0.162   9.581  23.179  0.00  0.00    +0.000 A 
ATOM      3  C   UNL     1       0.587   8.870  22.268  0.00  0.00    +0.000 A 
ATOM      4  N   UNL     1       0.521   9.493  21.035  0.00  0.00    +0.000 N 
ATOM      5  C   UNL     1       1.166   9.030  19.851  0.00  0.00    +0.000 A 
ATOM      6  C   UNL     1       1.032   9.731  18.658  0.00  0.00    +0.000 A 
ATOM      7  N   UNL     1       1.666   9.364  17.519  0.00  0.00    +0.000 NA
ATOM      8  C   UNL     1       2.444   8.257  17.611  0.00  0.00    +0.000 A 
ATOM      9  C   UNL     1       2.565   7.520  18.786  0.00  0.00    +0.000 A 
ATOM     10  N   UNL     1       1.920   7.898  19.926  0.00  0.00    +0.000 NA
ATOM     11  C   UNL     1      -0.265  10.617  21.190  0.00  0.00    +0.000 A 
ENDROOT
BRANCH   9  12
ATOM     12  N   UNL     1       3.343   6.324  18.759  0.00  0.00    +0.000 N 
ATOM     13  N   UNL     1       2.922   5.218  19.436  0.00  0.00    +0.000 NA
ATOM     14  C   UNL     1       3.932   4.361  19.323  0.00  0.00    +0.000 A 
ATOM     15 CL   UNL     1       3.836   2.830  20.044  0.00  0.00    +0.000 Cl
ATOM     16  C   UNL     1       5.018   4.872  18.586  0.00  0.00    +0.000 A 
ATOM     17  C   UNL     1       6.305   4.422  18.239  0.00  0.00    +0.000 A 
ATOM     18  C   UNL     1       7.124   5.242  17.459  0.00  0.00    +0.000 A 
ATOM     19  C   UNL     1       6.663   6.470  16.996  0.00  0.00    +0.000 A 
ATOM     20  C   UNL     1       5.385   6.932  17.328  0.00  0.00    +0.000 A 
ATOM     21  C   UNL     1       4.582   6.127  18.154  0.00  0.00    +0.000 A 
ENDBRANCH   9  12
BRANCH   1  22
ATOM     22  C   UNL     1      -1.620  11.741  23.071  0.00  0.00    +0.000 C 
BRANCH  22  24
ATOM     23  O   UNL     1      -0.288  13.722  23.403  0.00  0.00    +0.000 OA
ATOM     24  C   UNL     1      -1.179  13.160  22.778  0.00  0.00    +0.000 C 
BRANCH  24  25
ATOM     25  O   UNL     1      -1.882  13.811  21.821  0.00  0.00    +0.000 OA
ATOM     26  H   UNL     1      -1.941  14.776  21.964  0.00  0.00    +0.000 HD
ENDBRANCH  24  25
ENDBRANCH  22  24
ENDBRANCH   1  22
TORSDOF 4
ENDMDL
