MODEL 1
REMARK VINA RESULT:      -8.1      0.000      0.000
REMARK  Name = 
REMARK  11 active torsions:
REMARK  status: ('A' for Active; 'I' for Inactive)
REMARK    1  A    between atoms: C_1  and  O_2
REMARK    2  A    between atoms: O_2  and  C_3
REMARK    3  A    between atoms: C_5  and  C_6
REMARK    4  A    between atoms: C_9  and  C_10
REMARK    5  A    between atoms: C_13  and  N_14
REMARK    6  A    between atoms: N_17  and  C_18
REMARK    7  A    between atoms: C_21  and  N_22
REMARK    8  A    between atoms: C_28  and  O_29
REMARK    9  A    between atoms: O_29  and  C_30
REMARK   10  A    between atoms: C_31  and  O_32
REMARK   11  A    between atoms: O_32  and  C_33
REMARK                            x       y       z     vdW  Elec       q    Type
REMARK                         _______ _______ _______ _____ _____    ______ ____
ROOT
ATOM      1  C   UNL     1       2.537   6.342  19.632  0.00  0.00    +0.000 A 
ATOM      2  N   UNL     1       1.933   5.584  20.565  0.00  0.00    +0.000 NA
ATOM      3  O   UNL     1       1.127   6.494  21.258  0.00  0.00    +0.000 OA
ATOM      4  C   UNL     1       1.334   7.711  20.677  0.00  0.00    +0.000 A 
ATOM      5  N   UNL     1       2.199   7.672  19.693  0.00  0.00    +0.000 NA
ENDROOT
BRANCH   1   8
ATOM      6  C   UNL     1       5.242   6.098  17.018  0.00  0.00    +0.000 A 
ATOM      7  C   UNL     1       4.294   6.644  17.901  0.00  0.00    +0.000 A 
ATOM      8  C   UNL     1       3.376   5.830  18.559  0.00  0.00    +0.000 A 
ATOM      9  C   UNL     1       3.339   4.473  18.231  0.00  0.00    +0.000 A 
ATOM     10  C   UNL     1       4.216   3.918  17.288  0.00  0.00    +0.000 A 
ATOM     11  C   UNL     1       5.190   4.729  16.667  0.00  0.00    +0.000 A 
BRANCH   6  13
ATOM     12  C   UNL     1       7.294   7.235  17.355  0.00  0.00    +0.000 C 
ATOM     13  O   UNL     1       6.210   6.909  16.480  0.00  0.00    +0.000 OA
ENDBRANCH   6  13
BRANCH  10  14
ATOM     14  O   UNL     1       3.985   2.572  17.139  0.00  0.00    +0.000 OA
ATOM     15  C   UNL     1       3.356   1.843  18.179  0.00  0.00    +0.000 C 
ENDBRANCH  10  14
BRANCH  11  16
ATOM     16  O   UNL     1       6.000   4.096  15.766  0.00  0.00    +0.000 OA
ATOM     17  C   UNL     1       5.781   4.221  14.372  0.00  0.00    +0.000 C 
ENDBRANCH  11  16
ENDBRANCH   1   8
BRANCH   4  18
ATOM     18  C   UNL     1       0.592   8.857  21.176  0.00  0.00    +0.000 A 
ATOM     19  C   UNL     1       0.273   9.047  22.521  0.00  0.00    +0.000 A 
ATOM     20  C   UNL     1      -0.446  10.183  22.932  0.00  0.00    +0.000 A 
ATOM     21  C   UNL     1      -0.889  11.175  22.031  0.00  0.00    +0.000 A 
ATOM     22  C   UNL     1      -0.582  10.928  20.677  0.00  0.00    +0.000 A 
ATOM     23  C   UNL     1       0.149   9.808  20.250  0.00  0.00    +0.000 A 
BRANCH  21  24
ATOM     24  N   UNL     1      -1.608  12.275  22.477  0.00  0.00    +0.000 N 
ATOM     25  C   UNL     1      -2.853  12.131  23.259  0.00  0.00    +0.000 C 
ATOM     26  C   UNL     1      -3.775  13.348  22.997  0.00  0.00    +0.000 C 
ATOM     27  N   UNL     1      -3.119  14.655  23.246  0.00  0.00    +0.000 NA
ATOM     28  C   UNL     1      -4.007  15.749  22.852  0.00  0.00    +0.000 C 
ATOM     29  C   UNL     1      -1.853  14.727  22.478  0.00  0.00    +0.000 C 
ATOM     30  C   UNL     1      -0.913  13.541  22.795  0.00  0.00    +0.000 C 
ENDBRANCH  21  24
BRANCH  22  31
ATOM     31  N   UNL     1      -1.069  11.787  19.613  0.00  0.00    +0.000 N 
ATOM     32  O   UNL     1      -0.357  12.734  19.252  0.00  0.00    +0.000 OA
ATOM     33  O   UNL     1      -2.198  11.526  19.164  0.00  0.00    +0.000 OA
ENDBRANCH  22  31
ENDBRANCH   4  18
TORSDOF 7
ENDMDL
MODEL 2
REMARK VINA RESULT:      -8.1      0.565      1.143
REMARK  Name = 
REMARK  11 active torsions:
REMARK  status: ('A' for Active; 'I' for Inactive)
REMARK    1  A    between atoms: C_1  and  O_2
REMARK    2  A    between atoms: O_2  and  C_3
REMARK    3  A    between atoms: C_5  and  C_6
REMARK    4  A    between atoms: C_9  and  C_10
REMARK    5  A    between atoms: C_13  and  N_14
REMARK    6  A    between atoms: N_17  and  C_18
REMARK    7  A    between atoms: C_21  and  N_22
REMARK    8  A    between atoms: C_28  and  O_29
REMARK    9  A    between atoms: O_29  and  C_30
REMARK   10  A    between atoms: C_31  and  O_32
REMARK   11  A    between atoms: O_32  and  C_33
REMARK                            x       y       z     vdW  Elec       q    Type
REMARK                         _______ _______ _______ _____ _____    ______ ____
ROOT
ATOM      1  C   UNL     1       2.560   6.315  19.607  0.00  0.00    +0.000 A 
ATOM      2  N   UNL     1       1.877   5.539  20.468  0.00  0.00    +0.000 NA
ATOM      3  O   UNL     1       1.095   6.451  21.185  0.00  0.00    +0.000 OA
ATOM      4  C   UNL     1       1.392   7.686  20.687  0.00  0.00    +0.000 A 
ATOM      5  N   UNL     1       2.294   7.656  19.736  0.00  0.00    +0.000 NA
ENDROOT
BRANCH   1   8
ATOM      6  C   UNL     1       5.266   6.132  16.989  0.00  0.00    +0.000 A 
ATOM      7  C   UNL     1       4.303   6.657  17.868  0.00  0.00    +0.000 A 
ATOM      8  C   UNL     1       3.413   5.820  18.536  0.00  0.00    +0.000 A 
ATOM      9  C   UNL     1       3.419   4.460  18.221  0.00  0.00    +0.000 A 
ATOM     10  C   UNL     1       4.310   3.923  17.281  0.00  0.00    +0.000 A 
ATOM     11  C   UNL     1       5.257   4.759  16.651  0.00  0.00    +0.000 A 
BRANCH   6  13
ATOM     12  C   UNL     1       7.278   7.342  17.311  0.00  0.00    +0.000 C 
ATOM     13  O   UNL     1       6.206   6.969  16.440  0.00  0.00    +0.000 OA
ENDBRANCH   6  13
BRANCH  10  14
ATOM     14  O   UNL     1       4.122   2.570  17.146  0.00  0.00    +0.000 OA
ATOM     15  C   UNL     1       3.317   1.871  18.079  0.00  0.00    +0.000 C 
ENDBRANCH  10  14
BRANCH  11  16
ATOM     16  O   UNL     1       6.085   4.145  15.753  0.00  0.00    +0.000 OA
ATOM     17  C   UNL     1       5.784   4.134  14.369  0.00  0.00    +0.000 C 
ENDBRANCH  11  16
ENDBRANCH   1   8
BRANCH   4  18
ATOM     18  C   UNL     1       0.695   8.842  21.228  0.00  0.00    +0.000 A 
ATOM     19  C   UNL     1       0.339   8.973  22.571  0.00  0.00    +0.000 A 
ATOM     20  C   UNL     1      -0.333  10.122  23.024  0.00  0.00    +0.000 A 
ATOM     21  C   UNL     1      -0.690  11.186  22.168  0.00  0.00    +0.000 A 
ATOM     22  C   UNL     1      -0.347  10.999  20.813  0.00  0.00    +0.000 A 
ATOM     23  C   UNL     1       0.337   9.866  20.345  0.00  0.00    +0.000 A 
BRANCH  21  24
ATOM     24  N   UNL     1      -1.365  12.297  22.653  0.00  0.00    +0.000 N 
ATOM     25  C   UNL     1      -0.755  13.642  22.658  0.00  0.00    +0.000 C 
ATOM     26  C   UNL     1      -1.339  14.474  23.828  0.00  0.00    +0.000 C 
ATOM     27  N   UNL     1      -2.821  14.543  23.827  0.00  0.00    +0.000 NA
ATOM     28  C   UNL     1      -3.295  15.230  25.028  0.00  0.00    +0.000 C 
ATOM     29  C   UNL     1      -3.380  13.171  23.771  0.00  0.00    +0.000 C 
ATOM     30  C   UNL     1      -2.839  12.372  22.563  0.00  0.00    +0.000 C 
ENDBRANCH  21  24
BRANCH  22  31
ATOM     31  N   UNL     1      -0.750  11.943  19.785  0.00  0.00    +0.000 N 
ATOM     32  O   UNL     1      -1.882  11.828  19.295  0.00  0.00    +0.000 OA
ATOM     33  O   UNL     1       0.099  12.784  19.443  0.00  0.00    +0.000 OA
ENDBRANCH  22  31
ENDBRANCH   4  18
TORSDOF 7
ENDMDL
MODEL 3
REMARK VINA RESULT:      -8.0      2.236      3.023
REMARK  Name = 
REMARK  11 active torsions:
REMARK  status: ('A' for Active; 'I' for Inactive)
REMARK    1  A    between atoms: C_1  and  O_2
REMARK    2  A    between atoms: O_2  and  C_3
REMARK    3  A    between atoms: C_5  and  C_6
REMARK    4  A    between atoms: C_9  and  C_10
REMARK    5  A    between atoms: C_13  and  N_14
REMARK    6  A    between atoms: N_17  and  C_18
REMARK    7  A    between atoms: C_21  and  N_22
REMARK    8  A    between atoms: C_28  and  O_29
REMARK    9  A    between atoms: O_29  and  C_30
REMARK   10  A    between atoms: C_31  and  O_32
REMARK   11  A    between atoms: O_32  and  C_33
REMARK                            x       y       z     vdW  Elec       q    Type
REMARK                         _______ _______ _______ _____ _____    ______ ____
ROOT
ATOM      1  C   UNL     1       2.448   7.606  18.198  0.00  0.00    +0.000 A 
ATOM      2  N   UNL     1       2.673   8.478  17.199  0.00  0.00    +0.000 NA
ATOM      3  O   UNL     1       2.060   9.655  17.644  0.00  0.00    +0.000 OA
ATOM      4  C   UNL     1       1.519   9.369  18.864  0.00  0.00    +0.000 A 
ATOM      5  N   UNL     1       1.714   8.127  19.236  0.00  0.00    +0.000 NA
ENDROOT
BRANCH   1   8
ATOM      6  C   UNL     1       4.906   4.789  18.679  0.00  0.00    +0.000 A 
ATOM      7  C   UNL     1       4.387   6.064  18.391  0.00  0.00    +0.000 A 
ATOM      8  C   UNL     1       3.014   6.268  18.278  0.00  0.00    +0.000 A 
ATOM      9  C   UNL     1       2.171   5.156  18.337  0.00  0.00    +0.000 A 
ATOM     10  C   UNL     1       2.671   3.861  18.535  0.00  0.00    +0.000 A 
ATOM     11  C   UNL     1       4.056   3.659  18.715  0.00  0.00    +0.000 A 
BRANCH   6  13
ATOM     12  C   UNL     1       7.086   4.775  17.749  0.00  0.00    +0.000 C 
ATOM     13  O   UNL     1       6.252   4.644  18.904  0.00  0.00    +0.000 OA
ENDBRANCH   6  13
BRANCH  10  14
ATOM     14  O   UNL     1       1.651   2.941  18.555  0.00  0.00    +0.000 OA
ATOM     15  C   UNL     1       0.840   2.810  19.710  0.00  0.00    +0.000 C 
ENDBRANCH  10  14
BRANCH  11  16
ATOM     16  O   UNL     1       4.446   2.363  18.904  0.00  0.00    +0.000 OA
ATOM     17  C   UNL     1       4.521   1.804  20.204  0.00  0.00    +0.000 C 
ENDBRANCH  11  16
ENDBRANCH   1   8
BRANCH   4  18
ATOM     18  C   UNL     1       0.837  10.428  19.589  0.00  0.00    +0.000 A 
ATOM     19  C   UNL     1       0.702  11.731  19.112  0.00  0.00    +0.000 A 
ATOM     20  C   UNL     1       0.026  12.705  19.869  0.00  0.00    +0.000 A 
ATOM     21  C   UNL     1      -0.536  12.434  21.135  0.00  0.00    +0.000 A 
ATOM     22  C   UNL     1      -0.345  11.116  21.600  0.00  0.00    +0.000 A 
ATOM     23  C   UNL     1       0.313  10.127  20.852  0.00  0.00    +0.000 A 
BRANCH  21  24
ATOM     24  N   UNL     1      -1.184  13.427  21.856  0.00  0.00    +0.000 N 
ATOM     25  C   UNL     1      -0.449  14.364  22.729  0.00  0.00    +0.000 C 
ATOM     26  C   UNL     1      -1.368  14.821  23.891  0.00  0.00    +0.000 C 
ATOM     27  N   UNL     1      -2.661  15.390  23.438  0.00  0.00    +0.000 NA
ATOM     28  C   UNL     1      -3.518  15.673  24.590  0.00  0.00    +0.000 C 
ATOM     29  C   UNL     1      -3.332  14.433  22.527  0.00  0.00    +0.000 C 
ATOM     30  C   UNL     1      -2.429  14.033  21.337  0.00  0.00    +0.000 C 
ENDBRANCH  21  24
BRANCH  22  31
ATOM     31  N   UNL     1      -0.756  10.709  22.932  0.00  0.00    +0.000 N 
ATOM     32  O   UNL     1      -1.889  11.027  23.319  0.00  0.00    +0.000 OA
ATOM     33  O   UNL     1       0.087  10.093  23.608  0.00  0.00    +0.000 OA
ENDBRANCH  22  31
ENDBRANCH   4  18
TORSDOF 7
ENDMDL
MODEL 4
REMARK VINA RESULT:      -7.7      1.635      2.165
REMARK  Name = 
REMARK  11 active torsions:
REMARK  status: ('A' for Active; 'I' for Inactive)
REMARK    1  A    between atoms: C_1  and  O_2
REMARK    2  A    between atoms: O_2  and  C_3
REMARK    3  A    between atoms: C_5  and  C_6
REMARK    4  A    between atoms: C_9  and  C_10
REMARK    5  A    between atoms: C_13  and  N_14
REMARK    6  A    between atoms: N_17  and  C_18
REMARK    7  A    between atoms: C_21  and  N_22
REMARK    8  A    between atoms: C_28  and  O_29
REMARK    9  A    between atoms: O_29  and  C_30
REMARK   10  A    between atoms: C_31  and  O_32
REMARK   11  A    between atoms: O_32  and  C_33
REMARK                            x       y       z     vdW  Elec       q    Type
REMARK                         _______ _______ _______ _____ _____    ______ ____
ROOT
ATOM      1  C   UNL     1       2.696   6.985  19.071  0.00  0.00    +0.000 A 
ATOM      2  N   UNL     1       2.263   6.541  20.265  0.00  0.00    +0.000 NA
ATOM      3  O   UNL     1       1.360   7.528  20.676  0.00  0.00    +0.000 OA
ATOM      4  C   UNL     1       1.347   8.471  19.691  0.00  0.00    +0.000 A 
ATOM      5  N   UNL     1       2.159   8.193  18.700  0.00  0.00    +0.000 NA
ENDROOT
BRANCH   1   8
ATOM      6  C   UNL     1       5.592   6.041  16.851  0.00  0.00    +0.000 A 
ATOM      7  C   UNL     1       4.657   6.821  17.553  0.00  0.00    +0.000 A 
ATOM      8  C   UNL     1       3.552   6.234  18.164  0.00  0.00    +0.000 A 
ATOM      9  C   UNL     1       3.329   4.871  17.963  0.00  0.00    +0.000 A 
ATOM     10  C   UNL     1       4.199   4.087  17.193  0.00  0.00    +0.000 A 
ATOM     11  C   UNL     1       5.355   4.665  16.626  0.00  0.00    +0.000 A 
BRANCH   6  13
ATOM     12  C   UNL     1       7.543   7.297  17.337  0.00  0.00    +0.000 C 
ATOM     13  O   UNL     1       6.732   6.631  16.364  0.00  0.00    +0.000 OA
ENDBRANCH   6  13
BRANCH  10  14
ATOM     14  O   UNL     1       3.769   2.784  17.143  0.00  0.00    +0.000 OA
ATOM     15  C   UNL     1       2.536   2.423  17.741  0.00  0.00    +0.000 C 
ENDBRANCH  10  14
BRANCH  11  16
ATOM     16  O   UNL     1       6.144   3.821  15.896  0.00  0.00    +0.000 OA
ATOM     17  C   UNL     1       6.180   3.892  14.481  0.00  0.00    +0.000 C 
ENDBRANCH  11  16
ENDBRANCH   1   8
BRANCH   4  18
ATOM     18  C   UNL     1       0.461   9.615  19.833  0.00  0.00    +0.000 A 
ATOM     19  C   UNL     1      -0.035  10.349  18.756  0.00  0.00    +0.000 A 
ATOM     20  C   UNL     1      -0.891  11.444  18.969  0.00  0.00    +0.000 A 
ATOM     21  C   UNL     1      -1.285  11.867  20.257  0.00  0.00    +0.000 A 
ATOM     22  C   UNL     1      -0.732  11.125  21.321  0.00  0.00    +0.000 A 
ATOM     23  C   UNL     1       0.111  10.018  21.126  0.00  0.00    +0.000 A 
BRANCH  21  24
ATOM     24  N   UNL     1      -2.120  12.962  20.424  0.00  0.00    +0.000 N 
ATOM     25  C   UNL     1      -1.642  14.347  20.235  0.00  0.00    +0.000 C 
ATOM     26  C   UNL     1      -2.460  15.307  21.135  0.00  0.00    +0.000 C 
ATOM     27  N   UNL     1      -3.927  15.200  20.940  0.00  0.00    +0.000 NA
ATOM     28  C   UNL     1      -4.627  16.039  21.913  0.00  0.00    +0.000 C 
ATOM     29  C   UNL     1      -4.345  13.786  21.091  0.00  0.00    +0.000 C 
ATOM     30  C   UNL     1      -3.567  12.845  20.142  0.00  0.00    +0.000 C 
ENDBRANCH  21  24
BRANCH  22  31
ATOM     31  N   UNL     1      -0.940  11.504  22.707  0.00  0.00    +0.000 N 
ATOM     32  O   UNL     1      -0.454  12.572  23.102  0.00  0.00    +0.000 OA
ATOM     33  O   UNL     1      -1.568  10.697  23.413  0.00  0.00    +0.000 OA
ENDBRANCH  22  31
ENDBRANCH   4  18
TORSDOF 7
ENDMDL
MODEL 5
REMARK VINA RESULT:      -7.7      1.697      3.017
REMARK  Name = 
REMARK  11 active torsions:
REMARK  status: ('A' for Active; 'I' for Inactive)
REMARK    1  A    between atoms: C_1  and  O_2
REMARK    2  A    between atoms: O_2  and  C_3
REMARK    3  A    between atoms: C_5  and  C_6
REMARK    4  A    between atoms: C_9  and  C_10
REMARK    5  A    between atoms: C_13  and  N_14
REMARK    6  A    between atoms: N_17  and  C_18
REMARK    7  A    between atoms: C_21  and  N_22
REMARK    8  A    between atoms: C_28  and  O_29
REMARK    9  A    between atoms: O_29  and  C_30
REMARK   10  A    between atoms: C_31  and  O_32
REMARK   11  A    between atoms: O_32  and  C_33
REMARK                            x       y       z     vdW  Elec       q    Type
REMARK                         _______ _______ _______ _____ _____    ______ ____
ROOT
ATOM      1  C   UNL     1       2.025   7.536  19.409  0.00  0.00    +0.000 A 
ATOM      2  N   UNL     1       2.167   8.488  18.469  0.00  0.00    +0.000 NA
ATOM      3  O   UNL     1       1.444   9.569  18.983  0.00  0.00    +0.000 OA
ATOM      4  C   UNL     1       0.933   9.156  20.178  0.00  0.00    +0.000 A 
ATOM      5  N   UNL     1       1.244   7.917  20.472  0.00  0.00    +0.000 NA
ENDROOT
BRANCH   1   8
ATOM      6  C   UNL     1       2.991   3.996  20.274  0.00  0.00    +0.000 A 
ATOM      7  C   UNL     1       2.484   5.302  20.396  0.00  0.00    +0.000 A 
ATOM      8  C   UNL     1       2.716   6.255  19.408  0.00  0.00    +0.000 A 
ATOM      9  C   UNL     1       3.564   5.920  18.351  0.00  0.00    +0.000 A 
ATOM     10  C   UNL     1       4.155   4.653  18.250  0.00  0.00    +0.000 A 
ATOM     11  C   UNL     1       3.869   3.664  19.216  0.00  0.00    +0.000 A 
BRANCH   6  13
ATOM     12  C   UNL     1       1.238   2.869  21.402  0.00  0.00    +0.000 C 
ATOM     13  O   UNL     1       2.644   3.047  21.202  0.00  0.00    +0.000 OA
ENDBRANCH   6  13
BRANCH  10  14
ATOM     14  O   UNL     1       4.943   4.567  17.129  0.00  0.00    +0.000 OA
ATOM     15  C   UNL     1       6.344   4.754  17.233  0.00  0.00    +0.000 C 
ENDBRANCH  10  14
BRANCH  11  16
ATOM     16  O   UNL     1       4.488   2.459  19.031  0.00  0.00    +0.000 OA
ATOM     17  C   UNL     1       3.770   1.331  18.563  0.00  0.00    +0.000 C 
ENDBRANCH  11  16
ENDBRANCH   1   8
BRANCH   4  18
ATOM     18  C   UNL     1       0.152  10.097  20.965  0.00  0.00    +0.000 A 
ATOM     19  C   UNL     1      -0.060   9.970  22.338  0.00  0.00    +0.000 A 
ATOM     20  C   UNL     1      -0.825  10.922  23.035  0.00  0.00    +0.000 A 
ATOM     21  C   UNL     1      -1.423  12.034  22.404  0.00  0.00    +0.000 A 
ATOM     22  C   UNL     1      -1.219  12.106  21.010  0.00  0.00    +0.000 A 
ATOM     23  C   UNL     1      -0.444  11.174  20.300  0.00  0.00    +0.000 A 
BRANCH  21  24
ATOM     24  N   UNL     1      -2.182  12.942  23.126  0.00  0.00    +0.000 N 
ATOM     25  C   UNL     1      -3.423  12.546  23.823  0.00  0.00    +0.000 C 
ATOM     26  C   UNL     1      -4.388  13.756  23.895  0.00  0.00    +0.000 C 
ATOM     27  N   UNL     1      -3.780  14.965  24.502  0.00  0.00    +0.000 NA
ATOM     28  C   UNL     1      -4.707  16.094  24.415  0.00  0.00    +0.000 C 
ATOM     29  C   UNL     1      -2.516  15.290  23.800  0.00  0.00    +0.000 C 
ATOM     30  C   UNL     1      -1.534  14.095  23.789  0.00  0.00    +0.000 C 
ENDBRANCH  21  24
BRANCH  22  31
ATOM     31  N   UNL     1      -1.864  13.119  20.194  0.00  0.00    +0.000 N 
ATOM     32  O   UNL     1      -1.218  14.134  19.901  0.00  0.00    +0.000 OA
ATOM     33  O   UNL     1      -3.047  12.904  19.878  0.00  0.00    +0.000 OA
ENDBRANCH  22  31
ENDBRANCH   4  18
TORSDOF 7
ENDMDL
MODEL 6
REMARK VINA RESULT:      -7.7      1.819      2.449
REMARK  Name = 
REMARK  11 active torsions:
REMARK  status: ('A' for Active; 'I' for Inactive)
REMARK    1  A    between atoms: C_1  and  O_2
REMARK    2  A    between atoms: O_2  and  C_3
REMARK    3  A    between atoms: C_5  and  C_6
REMARK    4  A    between atoms: C_9  and  C_10
REMARK    5  A    between atoms: C_13  and  N_14
REMARK    6  A    between atoms: N_17  and  C_18
REMARK    7  A    between atoms: C_21  and  N_22
REMARK    8  A    between atoms: C_28  and  O_29
REMARK    9  A    between atoms: O_29  and  C_30
REMARK   10  A    between atoms: C_31  and  O_32
REMARK   11  A    between atoms: O_32  and  C_33
REMARK                            x       y       z     vdW  Elec       q    Type
REMARK                         _______ _______ _______ _____ _____    ______ ____
ROOT
ATOM      1  C   UNL     1       2.187   7.223  19.402  0.00  0.00    +0.000 A 
ATOM      2  N   UNL     1       2.407   8.189  18.492  0.00  0.00    +0.000 NA
ATOM      3  O   UNL     1       1.690   9.282  18.992  0.00  0.00    +0.000 OA
ATOM      4  C   UNL     1       1.104   8.860  20.149  0.00  0.00    +0.000 A 
ATOM      5  N   UNL     1       1.362   7.606  20.431  0.00  0.00    +0.000 NA
ENDROOT
BRANCH   1   8
ATOM      6  C   UNL     1       4.855   4.562  19.281  0.00  0.00    +0.000 A 
ATOM      7  C   UNL     1       4.183   5.779  19.070  0.00  0.00    +0.000 A 
ATOM      8  C   UNL     1       2.839   5.922  19.408  0.00  0.00    +0.000 A 
ATOM      9  C   UNL     1       2.143   4.795  19.849  0.00  0.00    +0.000 A 
ATOM     10  C   UNL     1       2.768   3.547  19.985  0.00  0.00    +0.000 A 
ATOM     11  C   UNL     1       4.145   3.414  19.704  0.00  0.00    +0.000 A 
BRANCH   6  13
ATOM     12  C   UNL     1       6.668   5.172  17.883  0.00  0.00    +0.000 C 
ATOM     13  O   UNL     1       6.206   4.489  19.052  0.00  0.00    +0.000 OA
ENDBRANCH   6  13
BRANCH  10  14
ATOM     14  O   UNL     1       1.879   2.601  20.432  0.00  0.00    +0.000 OA
ATOM     15  C   UNL     1       1.539   2.544  21.806  0.00  0.00    +0.000 C 
ENDBRANCH  10  14
BRANCH  11  16
ATOM     16  O   UNL     1       4.665   2.161  19.869  0.00  0.00    +0.000 OA
ATOM     17  C   UNL     1       4.367   1.119  18.957  0.00  0.00    +0.000 C 
ENDBRANCH  11  16
ENDBRANCH   1   8
BRANCH   4  18
ATOM     18  C   UNL     1       0.311   9.808  20.914  0.00  0.00    +0.000 A 
ATOM     19  C   UNL     1       0.094   9.705  22.288  0.00  0.00    +0.000 A 
ATOM     20  C   UNL     1      -0.683  10.663  22.964  0.00  0.00    +0.000 A 
ATOM     21  C   UNL     1      -1.289  11.756  22.309  0.00  0.00    +0.000 A 
ATOM     22  C   UNL     1      -1.080  11.804  20.915  0.00  0.00    +0.000 A 
ATOM     23  C   UNL     1      -0.293  10.867  20.226  0.00  0.00    +0.000 A 
BRANCH  21  24
ATOM     24  N   UNL     1      -2.060  12.671  23.011  0.00  0.00    +0.000 N 
ATOM     25  C   UNL     1      -3.271  12.266  23.754  0.00  0.00    +0.000 C 
ATOM     26  C   UNL     1      -4.273  13.447  23.799  0.00  0.00    +0.000 C 
ATOM     27  N   UNL     1      -3.690  14.700  24.339  0.00  0.00    +0.000 NA
ATOM     28  C   UNL     1      -4.655  15.794  24.227  0.00  0.00    +0.000 C 
ATOM     29  C   UNL     1      -2.454  15.033  23.594  0.00  0.00    +0.000 C 
ATOM     30  C   UNL     1      -1.435  13.870  23.609  0.00  0.00    +0.000 C 
ENDBRANCH  21  24
BRANCH  22  31
ATOM     31  N   UNL     1      -1.732  12.795  20.077  0.00  0.00    +0.000 N 
ATOM     32  O   UNL     1      -2.881  12.559  19.677  0.00  0.00    +0.000 OA
ATOM     33  O   UNL     1      -1.064  13.803  19.790  0.00  0.00    +0.000 OA
ENDBRANCH  22  31
ENDBRANCH   4  18
TORSDOF 7
ENDMDL
MODEL 7
REMARK VINA RESULT:      -7.6      2.412      3.137
REMARK  Name = 
REMARK  11 active torsions:
REMARK  status: ('A' for Active; 'I' for Inactive)
REMARK    1  A    between atoms: C_1  and  O_2
REMARK    2  A    between atoms: O_2  and  C_3
REMARK    3  A    between atoms: C_5  and  C_6
REMARK    4  A    between atoms: C_9  and  C_10
REMARK    5  A    between atoms: C_13  and  N_14
REMARK    6  A    between atoms: N_17  and  C_18
REMARK    7  A    between atoms: C_21  and  N_22
REMARK    8  A    between atoms: C_28  and  O_29
REMARK    9  A    between atoms: O_29  and  C_30
REMARK   10  A    between atoms: C_31  and  O_32
REMARK   11  A    between atoms: O_32  and  C_33
REMARK                            x       y       z     vdW  Elec       q    Type
REMARK                         _______ _______ _______ _____ _____    ______ ____
ROOT
ATOM      1  C   UNL     1       2.520   7.539  18.089  0.00  0.00    +0.000 A 
ATOM      2  N   UNL     1       2.975   8.496  17.261  0.00  0.00    +0.000 NA
ATOM      3  O   UNL     1       2.126   9.580  17.511  0.00  0.00    +0.000 OA
ATOM      4  C   UNL     1       1.239   9.163  18.459  0.00  0.00    +0.000 A 
ATOM      5  N   UNL     1       1.427   7.919  18.830  0.00  0.00    +0.000 NA
ENDROOT
BRANCH   1   8
ATOM      6  C   UNL     1       5.117   4.944  18.944  0.00  0.00    +0.000 A 
ATOM      7  C   UNL     1       4.537   6.154  18.525  0.00  0.00    +0.000 A 
ATOM      8  C   UNL     1       3.164   6.253  18.310  0.00  0.00    +0.000 A 
ATOM      9  C   UNL     1       2.394   5.093  18.404  0.00  0.00    +0.000 A 
ATOM     10  C   UNL     1       2.961   3.854  18.734  0.00  0.00    +0.000 A 
ATOM     11  C   UNL     1       4.341   3.764  19.016  0.00  0.00    +0.000 A 
BRANCH   6  13
ATOM     12  C   UNL     1       7.350   4.947  18.152  0.00  0.00    +0.000 C 
ATOM     13  O   UNL     1       6.451   4.910  19.264  0.00  0.00    +0.000 OA
ENDBRANCH   6  13
BRANCH  10  14
ATOM     14  O   UNL     1       2.004   2.870  18.764  0.00  0.00    +0.000 OA
ATOM     15  C   UNL     1       0.906   2.978  19.653  0.00  0.00    +0.000 C 
ENDBRANCH  10  14
BRANCH  11  16
ATOM     16  O   UNL     1       4.801   2.516  19.332  0.00  0.00    +0.000 OA
ATOM     17  C   UNL     1       4.679   2.002  20.646  0.00  0.00    +0.000 C 
ENDBRANCH  11  16
ENDBRANCH   1   8
BRANCH   4  18
ATOM     18  C   UNL     1       0.243  10.104  18.944  0.00  0.00    +0.000 A 
ATOM     19  C   UNL     1      -0.872  10.501  18.205  0.00  0.00    +0.000 A 
ATOM     20  C   UNL     1      -1.797  11.415  18.741  0.00  0.00    +0.000 A 
ATOM     21  C   UNL     1      -1.654  11.983  20.025  0.00  0.00    +0.000 A 
ATOM     22  C   UNL     1      -0.496  11.587  20.725  0.00  0.00    +0.000 A 
ATOM     23  C   UNL     1       0.430  10.663  20.213  0.00  0.00    +0.000 A 
BRANCH  21  24
ATOM     24  N   UNL     1      -2.583  12.892  20.511  0.00  0.00    +0.000 N 
ATOM     25  C   UNL     1      -2.302  14.341  20.571  0.00  0.00    +0.000 C 
ATOM     26  C   UNL     1      -3.098  14.978  21.738  0.00  0.00    +0.000 C 
ATOM     27  N   UNL     1      -4.555  14.702  21.683  0.00  0.00    +0.000 NA
ATOM     28  C   UNL     1      -5.212  15.223  22.882  0.00  0.00    +0.000 C 
ATOM     29  C   UNL     1      -4.779  13.241  21.574  0.00  0.00    +0.000 C 
ATOM     30  C   UNL     1      -4.031  12.627  20.368  0.00  0.00    +0.000 C 
ENDBRANCH  21  24
BRANCH  22  31
ATOM     31  N   UNL     1      -0.139  12.170  22.007  0.00  0.00    +0.000 N 
ATOM     32  O   UNL     1      -0.598  11.651  23.034  0.00  0.00    +0.000 OA
ATOM     33  O   UNL     1       0.580  13.183  21.973  0.00  0.00    +0.000 OA
ENDBRANCH  22  31
ENDBRANCH   4  18
TORSDOF 7
ENDMDL
MODEL 8
REMARK VINA RESULT:      -7.6      2.085      3.604
REMARK  Name = 
REMARK  11 active torsions:
REMARK  status: ('A' for Active; 'I' for Inactive)
REMARK    1  A    between atoms: C_1  and  O_2
REMARK    2  A    between atoms: O_2  and  C_3
REMARK    3  A    between atoms: C_5  and  C_6
REMARK    4  A    between atoms: C_9  and  C_10
REMARK    5  A    between atoms: C_13  and  N_14
REMARK    6  A    between atoms: N_17  and  C_18
REMARK    7  A    between atoms: C_21  and  N_22
REMARK    8  A    between atoms: C_28  and  O_29
REMARK    9  A    between atoms: O_29  and  C_30
REMARK   10  A    between atoms: C_31  and  O_32
REMARK   11  A    between atoms: O_32  and  C_33
REMARK                            x       y       z     vdW  Elec       q    Type
REMARK                         _______ _______ _______ _____ _____    ______ ____
ROOT
ATOM      1  C   UNL     1       2.202   8.036  18.418  0.00  0.00    +0.000 A 
ATOM      2  N   UNL     1       2.634   8.957  17.539  0.00  0.00    +0.000 NA
ATOM      3  O   UNL     1       1.828  10.070  17.805  0.00  0.00    +0.000 OA
ATOM      4  C   UNL     1       0.986   9.702  18.813  0.00  0.00    +0.000 A 
ATOM      5  N   UNL     1       1.164   8.464  19.208  0.00  0.00    +0.000 NA
ENDROOT
BRANCH   1   8
ATOM      6  C   UNL     1       2.975   4.641  19.865  0.00  0.00    +0.000 A 
ATOM      7  C   UNL     1       2.535   5.973  19.764  0.00  0.00    +0.000 A 
ATOM      8  C   UNL     1       2.826   6.739  18.638  0.00  0.00    +0.000 A 
ATOM      9  C   UNL     1       3.667   6.195  17.666  0.00  0.00    +0.000 A 
ATOM     10  C   UNL     1       4.192   4.900  17.784  0.00  0.00    +0.000 A 
ATOM     11  C   UNL     1       3.846   4.098  18.893  0.00  0.00    +0.000 A 
BRANCH   6  13
ATOM     12  C   UNL     1       1.224   3.395  20.863  0.00  0.00    +0.000 C 
ATOM     13  O   UNL     1       2.569   3.876  20.930  0.00  0.00    +0.000 OA
ENDBRANCH   6  13
BRANCH  10  14
ATOM     14  O   UNL     1       4.986   4.594  16.707  0.00  0.00    +0.000 OA
ATOM     15  C   UNL     1       5.358   5.609  15.791  0.00  0.00    +0.000 C 
ENDBRANCH  10  14
BRANCH  11  16
ATOM     16  O   UNL     1       4.403   2.850  18.918  0.00  0.00    +0.000 OA
ATOM     17  C   UNL     1       3.669   1.711  18.504  0.00  0.00    +0.000 C 
ENDBRANCH  11  16
ENDBRANCH   1   8
BRANCH   4  18
ATOM     18  C   UNL     1       0.044  10.682  19.327  0.00  0.00    +0.000 A 
ATOM     19  C   UNL     1      -0.779  11.464  18.517  0.00  0.00    +0.000 A 
ATOM     20  C   UNL     1      -1.671  12.392  19.085  0.00  0.00    +0.000 A 
ATOM     21  C   UNL     1      -1.779  12.593  20.477  0.00  0.00    +0.000 A 
ATOM     22  C   UNL     1      -0.904  11.813  21.261  0.00  0.00    +0.000 A 
ATOM     23  C   UNL     1      -0.019  10.870  20.712  0.00  0.00    +0.000 A 
BRANCH  21  24
ATOM     24  N   UNL     1      -2.662  13.529  20.997  0.00  0.00    +0.000 N 
ATOM     25  C   UNL     1      -2.368  14.976  20.978  0.00  0.00    +0.000 C 
ATOM     26  C   UNL     1      -3.068  15.665  22.177  0.00  0.00    +0.000 C 
ATOM     27  N   UNL     1      -4.526  15.402  22.244  0.00  0.00    +0.000 NA
ATOM     28  C   UNL     1      -5.087  15.975  23.468  0.00  0.00    +0.000 C 
ATOM     29  C   UNL     1      -4.768  13.940  22.209  0.00  0.00    +0.000 C 
ATOM     30  C   UNL     1      -4.118  13.272  20.975  0.00  0.00    +0.000 C 
ENDBRANCH  21  24
BRANCH  22  31
ATOM     31  N   UNL     1      -0.804  11.986  22.699  0.00  0.00    +0.000 N 
ATOM     32  O   UNL     1      -0.324  13.043  23.130  0.00  0.00    +0.000 OA
ATOM     33  O   UNL     1      -1.180  11.030  23.399  0.00  0.00    +0.000 OA
ENDBRANCH  22  31
ENDBRANCH   4  18
TORSDOF 7
ENDMDL
MODEL 9
REMARK VINA RESULT:      -7.6      0.978      1.179
REMARK  Name = 
REMARK  11 active torsions:
REMARK  status: ('A' for Active; 'I' for Inactive)
REMARK    1  A    between atoms: C_1  and  O_2
REMARK    2  A    between atoms: O_2  and  C_3
REMARK    3  A    between atoms: C_5  and  C_6
REMARK    4  A    between atoms: C_9  and  C_10
REMARK    5  A    between atoms: C_13  and  N_14
REMARK    6  A    between atoms: N_17  and  C_18
REMARK    7  A    between atoms: C_21  and  N_22
REMARK    8  A    between atoms: C_28  and  O_29
REMARK    9  A    between atoms: O_29  and  C_30
REMARK   10  A    between atoms: C_31  and  O_32
REMARK   11  A    between atoms: O_32  and  C_33
REMARK                            x       y       z     vdW  Elec       q    Type
REMARK                         _______ _______ _______ _____ _____    ______ ____
ROOT
ATOM      1  C   UNL     1       2.387   6.984  19.444  0.00  0.00    +0.000 A 
ATOM      2  N   UNL     1       1.935   6.405  20.571  0.00  0.00    +0.000 NA
ATOM      3  O   UNL     1       1.110   7.383  21.136  0.00  0.00    +0.000 OA
ATOM      4  C   UNL     1       1.154   8.456  20.296  0.00  0.00    +0.000 A 
ATOM      5  N   UNL     1       1.935   8.267  19.259  0.00  0.00    +0.000 NA
ENDROOT
BRANCH   1   8
ATOM      6  C   UNL     1       5.122   6.236  16.960  0.00  0.00    +0.000 A 
ATOM      7  C   UNL     1       4.238   6.953  17.785  0.00  0.00    +0.000 A 
ATOM      8  C   UNL     1       3.177   6.313  18.422  0.00  0.00    +0.000 A 
ATOM      9  C   UNL     1       2.940   4.969  18.128  0.00  0.00    +0.000 A 
ATOM     10  C   UNL     1       3.754   4.253  17.238  0.00  0.00    +0.000 A 
ATOM     11  C   UNL     1       4.869   4.882  16.642  0.00  0.00    +0.000 A 
BRANCH   6  13
ATOM     12  C   UNL     1       7.334   6.997  17.341  0.00  0.00    +0.000 C 
ATOM     13  O   UNL     1       6.226   6.868  16.445  0.00  0.00    +0.000 OA
ENDBRANCH   6  13
BRANCH  10  14
ATOM     14  O   UNL     1       3.320   2.957  17.113  0.00  0.00    +0.000 OA
ATOM     15  C   UNL     1       3.463   2.055  18.197  0.00  0.00    +0.000 C 
ENDBRANCH  10  14
BRANCH  11  16
ATOM     16  O   UNL     1       5.604   4.102  15.793  0.00  0.00    +0.000 OA
ATOM     17  C   UNL     1       5.576   4.316  14.393  0.00  0.00    +0.000 C 
ENDBRANCH  11  16
ENDBRANCH   1   8
BRANCH   4  18
ATOM     18  C   UNL     1       0.355   9.627  20.617  0.00  0.00    +0.000 A 
ATOM     19  C   UNL     1       0.098  10.056  21.919  0.00  0.00    +0.000 A 
ATOM     20  C   UNL     1      -0.683  11.202  22.154  0.00  0.00    +0.000 A 
ATOM     21  C   UNL     1      -1.252  11.966  21.113  0.00  0.00    +0.000 A 
ATOM     22  C   UNL     1      -1.003  11.478  19.813  0.00  0.00    +0.000 A 
ATOM     23  C   UNL     1      -0.213  10.346  19.558  0.00  0.00    +0.000 A 
BRANCH  21  24
ATOM     24  N   UNL     1      -2.029  13.082  21.389  0.00  0.00    +0.000 N 
ATOM     25  C   UNL     1      -3.412  12.967  21.895  0.00  0.00    +0.000 C 
ATOM     26  C   UNL     1      -4.238  14.195  21.436  0.00  0.00    +0.000 C 
ATOM     27  N   UNL     1      -3.624  15.495  21.803  0.00  0.00    +0.000 NA
ATOM     28  C   UNL     1      -4.392  16.597  21.223  0.00  0.00    +0.000 C 
ATOM     29  C   UNL     1      -2.225  15.538  21.316  0.00  0.00    +0.000 C 
ATOM     30  C   UNL     1      -1.393  14.342  21.833  0.00  0.00    +0.000 C 
ENDBRANCH  21  24
BRANCH  22  31
ATOM     31  N   UNL     1      -1.616  12.077  18.641  0.00  0.00    +0.000 N 
ATOM     32  O   UNL     1      -2.786  11.773  18.371  0.00  0.00    +0.000 OA
ATOM     33  O   UNL     1      -0.897  12.833  17.965  0.00  0.00    +0.000 OA
ENDBRANCH  22  31
ENDBRANCH   4  18
TORSDOF 7
ENDMDL
