MODEL 1
REMARK VINA RESULT:      -9.0      0.000      0.000
REMARK  Name = 
REMARK  5 active torsions:
REMARK  status: ('A' for Active; 'I' for Inactive)
REMARK    1  A    between atoms: C_2  and  C_3
REMARK    2  A    between atoms: C_7  and  S_8
REMARK    3  A    between atoms: S_8  and  N_11
REMARK    4  A    between atoms: N_11  and  C_12
REMARK    5  A    between atoms: C_15  and  C_16
REMARK                            x       y       z     vdW  Elec       q    Type
REMARK                         _______ _______ _______ _____ _____    ______ ____
ROOT
ATOM      1  C   UNL     1       2.163   6.810  18.980  0.00  0.00    +0.000 A 
ATOM      2  C   UNL     1       2.035   6.701  20.372  0.00  0.00    +0.000 A 
ATOM      3  C   UNL     1       2.023   5.445  20.999  0.00  0.00    +0.000 A 
ATOM      4  C   UNL     1       2.181   4.283  20.237  0.00  0.00    +0.000 A 
ATOM      5  C   UNL     1       2.293   4.386  18.854  0.00  0.00    +0.000 A 
ATOM      6  C   UNL     1       2.183   5.634  18.217  0.00  0.00    +0.000 A 
ENDROOT
BRANCH   1   8
ATOM      7  O   UNL     1       2.983   8.298  17.387  0.00  0.00    +0.000 OA
ATOM      8  C   UNL     1       2.250   8.172  18.370  0.00  0.00    +0.000 C 
ATOM      9  N   UNL     1       1.505   9.240  18.876  0.00  0.00    +0.000 N 
ATOM     10  C   UNL     1       1.583  10.559  18.207  0.00  0.00    +0.000 C 
ATOM     11  C   UNL     1       1.370  11.784  19.163  0.00  0.00    +0.000 C 
ATOM     12  N   UNL     1       0.345  11.542  20.185  0.00  0.00    +0.000 NA
ATOM     13  C   UNL     1       0.213  12.538  21.239  0.00  0.00    +0.000 C 
ATOM     14  C   UNL     1      -0.587  11.789  22.301  0.00  0.00    +0.000 C 
ATOM     15  C   UNL     1      -0.271  10.319  22.066  0.00  0.00    +0.000 C 
ATOM     16  C   UNL     1       0.645  10.281  20.872  0.00  0.00    +0.000 C 
ATOM     17  C   UNL     1       0.412   9.166  19.853  0.00  0.00    +0.000 C 
ENDBRANCH   1   8
BRANCH   5  18
ATOM     18  S   UNL     1       2.582   2.949  17.855  0.00  0.00    +0.000 S 
ATOM     19  O   UNL     1       2.117   1.799  18.602  0.00  0.00    +0.000 OA
ATOM     20  O   UNL     1       2.098   3.218  16.520  0.00  0.00    +0.000 OA
BRANCH  18  21
ATOM     21  N   UNL     1       4.267   2.822  17.793  0.00  0.00    +0.000 N 
ATOM     22  H   UNL     1       4.561   2.064  17.184  0.00  0.00    +0.000 HD
BRANCH  21  23
ATOM     23  C   UNL     1       5.088   3.987  17.827  0.00  0.00    +0.000 A 
ATOM     24  C   UNL     1       5.260   4.704  16.644  0.00  0.00    +0.000 A 
ATOM     25  C   UNL     1       6.047   5.861  16.622  0.00  0.00    +0.000 A 
ATOM     26  C   UNL     1       6.653   6.340  17.790  0.00  0.00    +0.000 A 
ATOM     27  C   UNL     1       6.435   5.633  18.990  0.00  0.00    +0.000 A 
ATOM     28  C   UNL     1       5.682   4.444  19.003  0.00  0.00    +0.000 A 
BRANCH  26  29
ATOM     29  C   UNL     1       7.612   7.520  17.715  0.00  0.00    +0.000 C 
ATOM     30  F   UNL     1       6.986   8.725  17.831  0.00  0.00    +0.000 F 
ATOM     31  F   UNL     1       8.567   7.494  18.683  0.00  0.00    +0.000 F 
ATOM     32  F   UNL     1       8.288   7.585  16.534  0.00  0.00    +0.000 F 
ENDBRANCH  26  29
ENDBRANCH  21  23
ENDBRANCH  18  21
ENDBRANCH   5  18
TORSDOF 5
ENDMDL
MODEL 2
REMARK VINA RESULT:      -8.9      0.295      1.142
REMARK  Name = 
REMARK  5 active torsions:
REMARK  status: ('A' for Active; 'I' for Inactive)
REMARK    1  A    between atoms: C_2  and  C_3
REMARK    2  A    between atoms: C_7  and  S_8
REMARK    3  A    between atoms: S_8  and  N_11
REMARK    4  A    between atoms: N_11  and  C_12
REMARK    5  A    between atoms: C_15  and  C_16
REMARK                            x       y       z     vdW  Elec       q    Type
REMARK                         _______ _______ _______ _____ _____    ______ ____
ROOT
ATOM      1  C   UNL     1       2.188   6.739  19.186  0.00  0.00    +0.000 A 
ATOM      2  C   UNL     1       2.123   6.565  20.576  0.00  0.00    +0.000 A 
ATOM      3  C   UNL     1       2.166   5.283  21.145  0.00  0.00    +0.000 A 
ATOM      4  C   UNL     1       2.317   4.160  20.325  0.00  0.00    +0.000 A 
ATOM      5  C   UNL     1       2.367   4.327  18.945  0.00  0.00    +0.000 A 
ATOM      6  C   UNL     1       2.202   5.599  18.370  0.00  0.00    +0.000 A 
ENDROOT
BRANCH   1   8
ATOM      7  O   UNL     1       2.957   8.331  17.670  0.00  0.00    +0.000 OA
ATOM      8  C   UNL     1       2.218   8.128  18.635  0.00  0.00    +0.000 C 
ATOM      9  N   UNL     1       1.416   9.137  19.174  0.00  0.00    +0.000 N 
ATOM     10  C   UNL     1       1.440  10.486  18.563  0.00  0.00    +0.000 C 
ATOM     11  C   UNL     1       1.156  11.657  19.566  0.00  0.00    +0.000 C 
ATOM     12  N   UNL     1       0.130  11.324  20.562  0.00  0.00    +0.000 NA
ATOM     13  C   UNL     1      -0.063  12.266  21.654  0.00  0.00    +0.000 C 
ATOM     14  C   UNL     1      -0.841  11.436  22.672  0.00  0.00    +0.000 C 
ATOM     15  C   UNL     1      -0.451   9.994  22.379  0.00  0.00    +0.000 C 
ATOM     16  C   UNL     1       0.482  10.051  21.199  0.00  0.00    +0.000 C 
ATOM     17  C   UNL     1       0.315   8.971  20.131  0.00  0.00    +0.000 C 
ENDBRANCH   1   8
BRANCH   5  18
ATOM     18  S   UNL     1       2.646   2.943  17.870  0.00  0.00    +0.000 S 
ATOM     19  O   UNL     1       2.183   1.756  18.560  0.00  0.00    +0.000 OA
ATOM     20  O   UNL     1       2.152   3.282  16.555  0.00  0.00    +0.000 OA
BRANCH  18  21
ATOM     21  N   UNL     1       4.329   2.816  17.789  0.00  0.00    +0.000 N 
ATOM     22  H   UNL     1       4.616   2.013  17.237  0.00  0.00    +0.000 HD
BRANCH  21  23
ATOM     23  C   UNL     1       5.146   3.982  17.717  0.00  0.00    +0.000 A 
ATOM     24  C   UNL     1       5.814   4.388  18.870  0.00  0.00    +0.000 A 
ATOM     25  C   UNL     1       6.637   5.520  18.855  0.00  0.00    +0.000 A 
ATOM     26  C   UNL     1       6.833   6.250  17.676  0.00  0.00    +0.000 A 
ATOM     27  C   UNL     1       6.188   5.804  16.503  0.00  0.00    +0.000 A 
ATOM     28  C   UNL     1       5.324   4.693  16.530  0.00  0.00    +0.000 A 
BRANCH  26  29
ATOM     29  C   UNL     1       7.622   7.551  17.714  0.00  0.00    +0.000 C 
ATOM     30  F   UNL     1       8.394   7.739  16.606  0.00  0.00    +0.000 F 
ATOM     31  F   UNL     1       6.831   8.652  17.816  0.00  0.00    +0.000 F 
ATOM     32  F   UNL     1       8.487   7.621  18.763  0.00  0.00    +0.000 F 
ENDBRANCH  26  29
ENDBRANCH  21  23
ENDBRANCH  18  21
ENDBRANCH   5  18
TORSDOF 5
ENDMDL
MODEL 3
REMARK VINA RESULT:      -8.4      3.035      3.701
REMARK  Name = 
REMARK  5 active torsions:
REMARK  status: ('A' for Active; 'I' for Inactive)
REMARK    1  A    between atoms: C_2  and  C_3
REMARK    2  A    between atoms: C_7  and  S_8
REMARK    3  A    between atoms: S_8  and  N_11
REMARK    4  A    between atoms: N_11  and  C_12
REMARK    5  A    between atoms: C_15  and  C_16
REMARK                            x       y       z     vdW  Elec       q    Type
REMARK                         _______ _______ _______ _____ _____    ______ ____
ROOT
ATOM      1  C   UNL     1       2.438   7.217  19.020  0.00  0.00    +0.000 A 
ATOM      2  C   UNL     1       1.639   6.532  19.946  0.00  0.00    +0.000 A 
ATOM      3  C   UNL     1       2.072   5.327  20.520  0.00  0.00    +0.000 A 
ATOM      4  C   UNL     1       3.334   4.816  20.201  0.00  0.00    +0.000 A 
ATOM      5  C   UNL     1       4.123   5.485  19.270  0.00  0.00    +0.000 A 
ATOM      6  C   UNL     1       3.639   6.625  18.606  0.00  0.00    +0.000 A 
ENDROOT
BRANCH   1   8
ATOM      7  O   UNL     1       2.403   8.893  17.403  0.00  0.00    +0.000 OA
ATOM      8  C   UNL     1       1.965   8.536  18.498  0.00  0.00    +0.000 C 
ATOM      9  N   UNL     1       1.043   9.307  19.211  0.00  0.00    +0.000 N 
ATOM     10  C   UNL     1       0.565  10.584  18.631  0.00  0.00    +0.000 C 
ATOM     11  C   UNL     1       0.180  11.673  19.691  0.00  0.00    +0.000 C 
ATOM     12  N   UNL     1      -0.484  11.113  20.874  0.00  0.00    +0.000 NA
ATOM     13  C   UNL     1      -0.701  12.012  21.999  0.00  0.00    +0.000 C 
ATOM     14  C   UNL     1      -0.990  11.043  23.143  0.00  0.00    +0.000 C 
ATOM     15  C   UNL     1      -0.284   9.753  22.751  0.00  0.00    +0.000 C 
ATOM     16  C   UNL     1       0.331  10.014  21.402  0.00  0.00    +0.000 C 
ATOM     17  C   UNL     1       0.255   8.885  20.375  0.00  0.00    +0.000 C 
ENDBRANCH   1   8
BRANCH   5  18
ATOM     18  S   UNL     1       5.765   4.923  18.899  0.00  0.00    +0.000 S 
ATOM     19  O   UNL     1       6.638   5.406  19.950  0.00  0.00    +0.000 OA
ATOM     20  O   UNL     1       5.702   3.518  18.568  0.00  0.00    +0.000 OA
BRANCH  18  21
ATOM     21  N   UNL     1       6.188   5.779  17.504  0.00  0.00    +0.000 N 
ATOM     22  H   UNL     1       6.972   6.403  17.673  0.00  0.00    +0.000 HD
BRANCH  21  23
ATOM     23  C   UNL     1       6.107   5.166  16.219  0.00  0.00    +0.000 A 
ATOM     24  C   UNL     1       7.232   5.211  15.399  0.00  0.00    +0.000 A 
ATOM     25  C   UNL     1       7.212   4.617  14.132  0.00  0.00    +0.000 A 
ATOM     26  C   UNL     1       6.076   3.939  13.673  0.00  0.00    +0.000 A 
ATOM     27  C   UNL     1       4.958   3.860  14.531  0.00  0.00    +0.000 A 
ATOM     28  C   UNL     1       4.963   4.498  15.785  0.00  0.00    +0.000 A 
BRANCH  26  29
ATOM     29  C   UNL     1       6.030   3.419  12.243  0.00  0.00    +0.000 C 
ATOM     30  F   UNL     1       5.963   2.060  12.172  0.00  0.00    +0.000 F 
ATOM     31  F   UNL     1       4.967   3.890  11.539  0.00  0.00    +0.000 F 
ATOM     32  F   UNL     1       7.132   3.757  11.517  0.00  0.00    +0.000 F 
ENDBRANCH  26  29
ENDBRANCH  21  23
ENDBRANCH  18  21
ENDBRANCH   5  18
TORSDOF 5
ENDMDL
MODEL 4
REMARK VINA RESULT:      -8.3      3.064      3.703
REMARK  Name = 
REMARK  5 active torsions:
REMARK  status: ('A' for Active; 'I' for Inactive)
REMARK    1  A    between atoms: C_2  and  C_3
REMARK    2  A    between atoms: C_7  and  S_8
REMARK    3  A    between atoms: S_8  and  N_11
REMARK    4  A    between atoms: N_11  and  C_12
REMARK    5  A    between atoms: C_15  and  C_16
REMARK                            x       y       z     vdW  Elec       q    Type
REMARK                         _______ _______ _______ _____ _____    ______ ____
ROOT
ATOM      1  C   UNL     1       2.472   7.185  19.004  0.00  0.00    +0.000 A 
ATOM      2  C   UNL     1       1.662   6.457  19.886  0.00  0.00    +0.000 A 
ATOM      3  C   UNL     1       2.094   5.233  20.420  0.00  0.00    +0.000 A 
ATOM      4  C   UNL     1       3.366   4.745  20.105  0.00  0.00    +0.000 A 
ATOM      5  C   UNL     1       4.168   5.456  19.217  0.00  0.00    +0.000 A 
ATOM      6  C   UNL     1       3.686   6.618  18.590  0.00  0.00    +0.000 A 
ENDROOT
BRANCH   1   8
ATOM      7  O   UNL     1       2.446   8.919  17.450  0.00  0.00    +0.000 OA
ATOM      8  C   UNL     1       1.999   8.520  18.526  0.00  0.00    +0.000 C 
ATOM      9  N   UNL     1       1.064   9.259  19.256  0.00  0.00    +0.000 N 
ATOM     10  C   UNL     1       0.585  10.553  18.718  0.00  0.00    +0.000 C 
ATOM     11  C   UNL     1       0.182  11.601  19.813  0.00  0.00    +0.000 C 
ATOM     12  N   UNL     1      -0.493  10.993  20.967  0.00  0.00    +0.000 NA
ATOM     13  C   UNL     1      -0.728  11.848  22.122  0.00  0.00    +0.000 C 
ATOM     14  C   UNL     1      -1.024  10.836  23.226  0.00  0.00    +0.000 C 
ATOM     15  C   UNL     1      -0.306   9.565  22.794  0.00  0.00    +0.000 C 
ATOM     16  C   UNL     1       0.323   9.880  21.463  0.00  0.00    +0.000 C 
ATOM     17  C   UNL     1       0.265   8.790  20.394  0.00  0.00    +0.000 C 
ENDBRANCH   1   8
BRANCH   5  18
ATOM     18  S   UNL     1       5.821   4.923  18.855  0.00  0.00    +0.000 S 
ATOM     19  O   UNL     1       6.671   5.379  19.936  0.00  0.00    +0.000 OA
ATOM     20  O   UNL     1       5.777   3.529  18.478  0.00  0.00    +0.000 OA
BRANCH  18  21
ATOM     21  N   UNL     1       6.258   5.828  17.496  0.00  0.00    +0.000 N 
ATOM     22  H   UNL     1       7.009   6.479  17.708  0.00  0.00    +0.000 HD
BRANCH  21  23
ATOM     23  C   UNL     1       6.249   5.243  16.196  0.00  0.00    +0.000 A 
ATOM     24  C   UNL     1       5.043   4.744  15.709  0.00  0.00    +0.000 A 
ATOM     25  C   UNL     1       4.974   4.168  14.436  0.00  0.00    +0.000 A 
ATOM     26  C   UNL     1       6.104   4.108  13.612  0.00  0.00    +0.000 A 
ATOM     27  C   UNL     1       7.310   4.657  14.097  0.00  0.00    +0.000 A 
ATOM     28  C   UNL     1       7.389   5.194  15.395  0.00  0.00    +0.000 A 
BRANCH  26  29
ATOM     29  C   UNL     1       6.038   3.357  12.289  0.00  0.00    +0.000 C 
ATOM     30  F   UNL     1       5.002   3.759  11.500  0.00  0.00    +0.000 F 
ATOM     31  F   UNL     1       7.163   3.498  11.539  0.00  0.00    +0.000 F 
ATOM     32  F   UNL     1       5.864   2.016  12.444  0.00  0.00    +0.000 F 
ENDBRANCH  26  29
ENDBRANCH  21  23
ENDBRANCH  18  21
ENDBRANCH   5  18
TORSDOF 5
ENDMDL
MODEL 5
REMARK VINA RESULT:      -8.1      3.194      3.891
REMARK  Name = 
REMARK  5 active torsions:
REMARK  status: ('A' for Active; 'I' for Inactive)
REMARK    1  A    between atoms: C_2  and  C_3
REMARK    2  A    between atoms: C_7  and  S_8
REMARK    3  A    between atoms: S_8  and  N_11
REMARK    4  A    between atoms: N_11  and  C_12
REMARK    5  A    between atoms: C_15  and  C_16
REMARK                            x       y       z     vdW  Elec       q    Type
REMARK                         _______ _______ _______ _____ _____    ______ ____
ROOT
ATOM      1  C   UNL     1       2.844   7.222  18.642  0.00  0.00    +0.000 A 
ATOM      2  C   UNL     1       2.108   6.262  19.350  0.00  0.00    +0.000 A 
ATOM      3  C   UNL     1       2.720   5.097  19.836  0.00  0.00    +0.000 A 
ATOM      4  C   UNL     1       4.092   4.901  19.651  0.00  0.00    +0.000 A 
ATOM      5  C   UNL     1       4.824   5.843  18.935  0.00  0.00    +0.000 A 
ATOM      6  C   UNL     1       4.186   6.949  18.345  0.00  0.00    +0.000 A 
ENDROOT
BRANCH   1   8
ATOM      7  O   UNL     1       2.449   8.923  17.101  0.00  0.00    +0.000 OA
ATOM      8  C   UNL     1       2.162   8.482  18.215  0.00  0.00    +0.000 C 
ATOM      9  N   UNL     1       1.218   9.107  19.035  0.00  0.00    +0.000 N 
ATOM     10  C   UNL     1       0.530  10.325  18.549  0.00  0.00    +0.000 C 
ATOM     11  C   UNL     1       0.108  11.326  19.680  0.00  0.00    +0.000 C 
ATOM     12  N   UNL     1      -0.369  10.651  20.894  0.00  0.00    +0.000 NA
ATOM     13  C   UNL     1      -0.595  11.482  22.068  0.00  0.00    +0.000 C 
ATOM     14  C   UNL     1      -0.653  10.453  23.194  0.00  0.00    +0.000 C 
ATOM     15  C   UNL     1       0.173   9.277  22.691  0.00  0.00    +0.000 C 
ATOM     16  C   UNL     1       0.625   9.653  21.305  0.00  0.00    +0.000 C 
ATOM     17  C   UNL     1       0.599   8.553  20.245  0.00  0.00    +0.000 C 
ENDBRANCH   1   8
BRANCH   5  18
ATOM     18  S   UNL     1       6.581   5.682  18.749  0.00  0.00    +0.000 S 
ATOM     19  O   UNL     1       7.018   6.717  17.834  0.00  0.00    +0.000 OA
ATOM     20  O   UNL     1       7.167   5.553  20.064  0.00  0.00    +0.000 OA
BRANCH  18  21
ATOM     21  N   UNL     1       6.777   4.215  17.933  0.00  0.00    +0.000 N 
ATOM     22  H   UNL     1       6.436   3.434  18.485  0.00  0.00    +0.000 HD
BRANCH  21  23
ATOM     23  C   UNL     1       6.609   4.139  16.519  0.00  0.00    +0.000 A 
ATOM     24  C   UNL     1       5.474   3.499  16.027  0.00  0.00    +0.000 A 
ATOM     25  C   UNL     1       5.254   3.403  14.648  0.00  0.00    +0.000 A 
ATOM     26  C   UNL     1       6.149   3.974  13.736  0.00  0.00    +0.000 A 
ATOM     27  C   UNL     1       7.272   4.659  14.246  0.00  0.00    +0.000 A 
ATOM     28  C   UNL     1       7.517   4.715  15.631  0.00  0.00    +0.000 A 
BRANCH  26  29
ATOM     29  C   UNL     1       5.960   3.741  12.243  0.00  0.00    +0.000 C 
ATOM     30  F   UNL     1       6.670   4.613  11.474  0.00  0.00    +0.000 F 
ATOM     31  F   UNL     1       6.333   2.495  11.846  0.00  0.00    +0.000 F 
ATOM     32  F   UNL     1       4.667   3.884  11.840  0.00  0.00    +0.000 F 
ENDBRANCH  26  29
ENDBRANCH  21  23
ENDBRANCH  18  21
ENDBRANCH   5  18
TORSDOF 5
ENDMDL
MODEL 6
REMARK VINA RESULT:      -8.0      2.467      3.256
REMARK  Name = 
REMARK  5 active torsions:
REMARK  status: ('A' for Active; 'I' for Inactive)
REMARK    1  A    between atoms: C_2  and  C_3
REMARK    2  A    between atoms: C_7  and  S_8
REMARK    3  A    between atoms: S_8  and  N_11
REMARK    4  A    between atoms: N_11  and  C_12
REMARK    5  A    between atoms: C_15  and  C_16
REMARK                            x       y       z     vdW  Elec       q    Type
REMARK                         _______ _______ _______ _____ _____    ______ ____
ROOT
ATOM      1  C   UNL     1       1.749   7.782  20.192  0.00  0.00    +0.000 A 
ATOM      2  C   UNL     1       2.091   8.074  18.864  0.00  0.00    +0.000 A 
ATOM      3  C   UNL     1       2.484   7.057  17.980  0.00  0.00    +0.000 A 
ATOM      4  C   UNL     1       2.498   5.726  18.410  0.00  0.00    +0.000 A 
ATOM      5  C   UNL     1       2.173   5.434  19.731  0.00  0.00    +0.000 A 
ATOM      6  C   UNL     1       1.898   6.465  20.646  0.00  0.00    +0.000 A 
ENDROOT
BRANCH   1   8
ATOM      7  O   UNL     1       1.648   8.887  22.239  0.00  0.00    +0.000 OA
ATOM      8  C   UNL     1       1.262   8.890  21.070  0.00  0.00    +0.000 C 
ATOM      9  N   UNL     1       0.433   9.898  20.569  0.00  0.00    +0.000 N 
ATOM     10  C   UNL     1       0.016  11.003  21.462  0.00  0.00    +0.000 C 
ATOM     11  C   UNL     1      -1.387  11.617  21.123  0.00  0.00    +0.000 C 
ATOM     12  N   UNL     1      -1.639  11.708  19.680  0.00  0.00    +0.000 NA
ATOM     13  C   UNL     1      -2.985  12.077  19.265  0.00  0.00    +0.000 C 
ATOM     14  C   UNL     1      -3.000  11.666  17.795  0.00  0.00    +0.000 C 
ATOM     15  C   UNL     1      -1.971  10.550  17.690  0.00  0.00    +0.000 C 
ATOM     16  C   UNL     1      -1.385  10.399  19.069  0.00  0.00    +0.000 C 
ATOM     17  C   UNL     1       0.122  10.163  19.159  0.00  0.00    +0.000 C 
ENDBRANCH   1   8
BRANCH   5  18
ATOM     18  S   UNL     1       2.091   3.755  20.299  0.00  0.00    +0.000 S 
ATOM     19  O   UNL     1       1.924   3.790  21.737  0.00  0.00    +0.000 OA
ATOM     20  O   UNL     1       1.163   3.035  19.457  0.00  0.00    +0.000 OA
BRANCH  18  21
ATOM     21  N   UNL     1       3.644   3.148  20.018  0.00  0.00    +0.000 N 
ATOM     22  H   UNL     1       3.734   2.190  20.345  0.00  0.00    +0.000 HD
BRANCH  21  23
ATOM     23  C   UNL     1       4.366   3.507  18.843  0.00  0.00    +0.000 A 
ATOM     24  C   UNL     1       3.892   3.051  17.615  0.00  0.00    +0.000 A 
ATOM     25  C   UNL     1       4.556   3.381  16.428  0.00  0.00    +0.000 A 
ATOM     26  C   UNL     1       5.690   4.201  16.444  0.00  0.00    +0.000 A 
ATOM     27  C   UNL     1       6.136   4.695  17.688  0.00  0.00    +0.000 A 
ATOM     28  C   UNL     1       5.496   4.325  18.885  0.00  0.00    +0.000 A 
BRANCH  26  29
ATOM     29  C   UNL     1       6.473   4.436  15.160  0.00  0.00    +0.000 C 
ATOM     30  F   UNL     1       7.803   4.640  15.375  0.00  0.00    +0.000 F 
ATOM     31  F   UNL     1       6.385   3.398  14.285  0.00  0.00    +0.000 F 
ATOM     32  F   UNL     1       6.053   5.533  14.471  0.00  0.00    +0.000 F 
ENDBRANCH  26  29
ENDBRANCH  21  23
ENDBRANCH  18  21
ENDBRANCH   5  18
TORSDOF 5
ENDMDL
MODEL 7
REMARK VINA RESULT:      -7.9      2.849      3.725
REMARK  Name = 
REMARK  5 active torsions:
REMARK  status: ('A' for Active; 'I' for Inactive)
REMARK    1  A    between atoms: C_2  and  C_3
REMARK    2  A    between atoms: C_7  and  S_8
REMARK    3  A    between atoms: S_8  and  N_11
REMARK    4  A    between atoms: N_11  and  C_12
REMARK    5  A    between atoms: C_15  and  C_16
REMARK                            x       y       z     vdW  Elec       q    Type
REMARK                         _______ _______ _______ _____ _____    ______ ____
ROOT
ATOM      1  C   UNL     1       1.565   8.654  19.627  0.00  0.00    +0.000 A 
ATOM      2  C   UNL     1       2.148   8.898  18.376  0.00  0.00    +0.000 A 
ATOM      3  C   UNL     1       2.801   7.874  17.672  0.00  0.00    +0.000 A 
ATOM      4  C   UNL     1       2.840   6.580  18.200  0.00  0.00    +0.000 A 
ATOM      5  C   UNL     1       2.276   6.337  19.448  0.00  0.00    +0.000 A 
ATOM      6  C   UNL     1       1.730   7.387  20.205  0.00  0.00    +0.000 A 
ENDROOT
BRANCH   1   8
ATOM      7  O   UNL     1       1.152  10.045  21.448  0.00  0.00    +0.000 OA
ATOM      8  C   UNL     1       0.813   9.757  20.299  0.00  0.00    +0.000 C 
ATOM      9  N   UNL     1      -0.204  10.448  19.635  0.00  0.00    +0.000 N 
ATOM     10  C   UNL     1      -0.887  11.568  20.322  0.00  0.00    +0.000 C 
ATOM     11  C   UNL     1      -2.380  11.779  19.891  0.00  0.00    +0.000 C 
ATOM     12  N   UNL     1      -2.599  11.559  18.456  0.00  0.00    +0.000 NA
ATOM     13  C   UNL     1      -3.979  11.536  17.993  0.00  0.00    +0.000 C 
ATOM     14  C   UNL     1      -3.854  10.882  16.619  0.00  0.00    +0.000 C 
ATOM     15  C   UNL     1      -2.598  10.027  16.705  0.00  0.00    +0.000 C 
ATOM     16  C   UNL     1      -2.038  10.256  18.084  0.00  0.00    +0.000 C 
ATOM     17  C   UNL     1      -0.520  10.387  18.203  0.00  0.00    +0.000 C 
ENDBRANCH   1   8
BRANCH   5  18
ATOM     18  S   UNL     1       2.224   4.695  20.119  0.00  0.00    +0.000 S 
ATOM     19  O   UNL     1       2.009   4.815  21.547  0.00  0.00    +0.000 OA
ATOM     20  O   UNL     1       1.344   3.895  19.297  0.00  0.00    +0.000 OA
BRANCH  18  21
ATOM     21  N   UNL     1       3.801   4.119  19.926  0.00  0.00    +0.000 N 
ATOM     22  H   UNL     1       3.972   3.299  20.501  0.00  0.00    +0.000 HD
BRANCH  21  23
ATOM     23  C   UNL     1       4.446   4.170  18.655  0.00  0.00    +0.000 A 
ATOM     24  C   UNL     1       5.721   4.728  18.588  0.00  0.00    +0.000 A 
ATOM     25  C   UNL     1       6.404   4.795  17.368  0.00  0.00    +0.000 A 
ATOM     26  C   UNL     1       5.838   4.276  16.198  0.00  0.00    +0.000 A 
ATOM     27  C   UNL     1       4.566   3.672  16.286  0.00  0.00    +0.000 A 
ATOM     28  C   UNL     1       3.860   3.647  17.503  0.00  0.00    +0.000 A 
BRANCH  26  29
ATOM     29  C   UNL     1       6.539   4.481  14.862  0.00  0.00    +0.000 C 
ATOM     30  F   UNL     1       7.851   4.827  14.996  0.00  0.00    +0.000 F 
ATOM     31  F   UNL     1       6.518   3.374  14.073  0.00  0.00    +0.000 F 
ATOM     32  F   UNL     1       5.986   5.476  14.115  0.00  0.00    +0.000 F 
ENDBRANCH  26  29
ENDBRANCH  21  23
ENDBRANCH  18  21
ENDBRANCH   5  18
TORSDOF 5
ENDMDL
MODEL 8
REMARK VINA RESULT:      -7.9      2.654      3.284
REMARK  Name = 
REMARK  5 active torsions:
REMARK  status: ('A' for Active; 'I' for Inactive)
REMARK    1  A    between atoms: C_2  and  C_3
REMARK    2  A    between atoms: C_7  and  S_8
REMARK    3  A    between atoms: S_8  and  N_11
REMARK    4  A    between atoms: N_11  and  C_12
REMARK    5  A    between atoms: C_15  and  C_16
REMARK                            x       y       z     vdW  Elec       q    Type
REMARK                         _______ _______ _______ _____ _____    ______ ____
ROOT
ATOM      1  C   UNL     1       2.264   7.119  19.299  0.00  0.00    +0.000 A 
ATOM      2  C   UNL     1       1.587   6.778  20.478  0.00  0.00    +0.000 A 
ATOM      3  C   UNL     1       1.771   5.524  21.081  0.00  0.00    +0.000 A 
ATOM      4  C   UNL     1       2.673   4.610  20.526  0.00  0.00    +0.000 A 
ATOM      5  C   UNL     1       3.336   4.938  19.347  0.00  0.00    +0.000 A 
ATOM      6  C   UNL     1       3.059   6.144  18.681  0.00  0.00    +0.000 A 
ENDROOT
BRANCH   1   8
ATOM      7  O   UNL     1       2.735   8.771  17.727  0.00  0.00    +0.000 OA
ATOM      8  C   UNL     1       2.093   8.495  18.742  0.00  0.00    +0.000 C 
ATOM      9  N   UNL     1       1.217   9.410  19.332  0.00  0.00    +0.000 N 
ATOM     10  C   UNL     1       1.041  10.745  18.715  0.00  0.00    +0.000 C 
ATOM     11  C   UNL     1       0.693  11.888  19.732  0.00  0.00    +0.000 C 
ATOM     12  N   UNL     1      -0.216  11.449  20.798  0.00  0.00    +0.000 NA
ATOM     13  C   UNL     1      -0.442  12.376  21.898  0.00  0.00    +0.000 C 
ATOM     14  C   UNL     1      -1.045  11.472  22.971  0.00  0.00    +0.000 C 
ATOM     15  C   UNL     1      -0.510  10.082  22.657  0.00  0.00    +0.000 C 
ATOM     16  C   UNL     1       0.325  10.233  21.414  0.00  0.00    +0.000 C 
ATOM     17  C   UNL     1       0.213   9.128  20.364  0.00  0.00    +0.000 C 
ENDBRANCH   1   8
BRANCH   5  18
ATOM     18  S   UNL     1       4.553   3.848  18.655  0.00  0.00    +0.000 S 
ATOM     19  O   UNL     1       5.329   3.309  19.753  0.00  0.00    +0.000 OA
ATOM     20  O   UNL     1       3.897   2.977  17.707  0.00  0.00    +0.000 OA
BRANCH  18  21
ATOM     21  N   UNL     1       5.590   4.876  17.803  0.00  0.00    +0.000 N 
ATOM     22  H   UNL     1       6.354   5.201  18.388  0.00  0.00    +0.000 HD
BRANCH  21  23
ATOM     23  C   UNL     1       5.874   4.647  16.425  0.00  0.00    +0.000 A 
ATOM     24  C   UNL     1       4.816   4.314  15.583  0.00  0.00    +0.000 A 
ATOM     25  C   UNL     1       5.035   4.087  14.219  0.00  0.00    +0.000 A 
ATOM     26  C   UNL     1       6.314   4.222  13.666  0.00  0.00    +0.000 A 
ATOM     27  C   UNL     1       7.371   4.605  14.519  0.00  0.00    +0.000 A 
ATOM     28  C   UNL     1       7.158   4.787  15.898  0.00  0.00    +0.000 A 
BRANCH  26  29
ATOM     29  C   UNL     1       6.553   3.841  12.212  0.00  0.00    +0.000 C 
ATOM     30  F   UNL     1       7.122   2.611  12.070  0.00  0.00    +0.000 F 
ATOM     31  F   UNL     1       5.413   3.819  11.471  0.00  0.00    +0.000 F 
ATOM     32  F   UNL     1       7.395   4.695  11.567  0.00  0.00    +0.000 F 
ENDBRANCH  26  29
ENDBRANCH  21  23
ENDBRANCH  18  21
ENDBRANCH   5  18
TORSDOF 5
ENDMDL
MODEL 9
REMARK VINA RESULT:      -7.9      2.274      3.082
REMARK  Name = 
REMARK  5 active torsions:
REMARK  status: ('A' for Active; 'I' for Inactive)
REMARK    1  A    between atoms: C_2  and  C_3
REMARK    2  A    between atoms: C_7  and  S_8
REMARK    3  A    between atoms: S_8  and  N_11
REMARK    4  A    between atoms: N_11  and  C_12
REMARK    5  A    between atoms: C_15  and  C_16
REMARK                            x       y       z     vdW  Elec       q    Type
REMARK                         _______ _______ _______ _____ _____    ______ ____
ROOT
ATOM      1  C   UNL     1       1.746   7.606  20.235  0.00  0.00    +0.000 A 
ATOM      2  C   UNL     1       2.050   7.843  18.887  0.00  0.00    +0.000 A 
ATOM      3  C   UNL     1       2.396   6.788  18.029  0.00  0.00    +0.000 A 
ATOM      4  C   UNL     1       2.400   5.473  18.506  0.00  0.00    +0.000 A 
ATOM      5  C   UNL     1       2.114   5.235  19.847  0.00  0.00    +0.000 A 
ATOM      6  C   UNL     1       1.887   6.303  20.732  0.00  0.00    +0.000 A 
ENDROOT
BRANCH   1   8
ATOM      7  O   UNL     1       1.696   8.762  22.256  0.00  0.00    +0.000 OA
ATOM      8  C   UNL     1       1.308   8.753  21.087  0.00  0.00    +0.000 C 
ATOM      9  N   UNL     1       0.521   9.783  20.563  0.00  0.00    +0.000 N 
ATOM     10  C   UNL     1       0.152  10.925  21.431  0.00  0.00    +0.000 C 
ATOM     11  C   UNL     1      -1.224  11.589  21.079  0.00  0.00    +0.000 C 
ATOM     12  N   UNL     1      -1.475  11.657  19.634  0.00  0.00    +0.000 NA
ATOM     13  C   UNL     1      -2.805  12.072  19.212  0.00  0.00    +0.000 C 
ATOM     14  C   UNL     1      -2.841  11.628  17.752  0.00  0.00    +0.000 C 
ATOM     15  C   UNL     1      -1.860  10.467  17.672  0.00  0.00    +0.000 C 
ATOM     16  C   UNL     1      -1.277  10.325  19.053  0.00  0.00    +0.000 C 
ATOM     17  C   UNL     1       0.218  10.028  19.148  0.00  0.00    +0.000 C 
ENDBRANCH   1   8
BRANCH   5  18
ATOM     18  S   UNL     1       2.021   3.579  20.477  0.00  0.00    +0.000 S 
ATOM     19  O   UNL     1       2.026   3.664  21.923  0.00  0.00    +0.000 OA
ATOM     20  O   UNL     1       0.969   2.883  19.774  0.00  0.00    +0.000 OA
BRANCH  18  21
ATOM     21  N   UNL     1       3.501   2.888  20.040  0.00  0.00    +0.000 N 
ATOM     22  H   UNL     1       3.483   1.877  20.141  0.00  0.00    +0.000 HD
BRANCH  21  23
ATOM     23  C   UNL     1       4.267   3.423  18.964  0.00  0.00    +0.000 A 
ATOM     24  C   UNL     1       5.315   4.287  19.270  0.00  0.00    +0.000 A 
ATOM     25  C   UNL     1       6.106   4.834  18.253  0.00  0.00    +0.000 A 
ATOM     26  C   UNL     1       5.883   4.502  16.912  0.00  0.00    +0.000 A 
ATOM     27  C   UNL     1       4.848   3.590  16.616  0.00  0.00    +0.000 A 
ATOM     28  C   UNL     1       4.024   3.077  17.635  0.00  0.00    +0.000 A 
BRANCH  26  29
ATOM     29  C   UNL     1       6.666   5.211  15.816  0.00  0.00    +0.000 C 
ATOM     30  F   UNL     1       7.466   6.207  16.291  0.00  0.00    +0.000 F 
ATOM     31  F   UNL     1       7.477   4.376  15.113  0.00  0.00    +0.000 F 
ATOM     32  F   UNL     1       5.866   5.812  14.892  0.00  0.00    +0.000 F 
ENDBRANCH  26  29
ENDBRANCH  21  23
ENDBRANCH  18  21
ENDBRANCH   5  18
TORSDOF 5
ENDMDL
