MODEL 1
REMARK VINA RESULT:      -8.2      0.000      0.000
REMARK  Name = 
REMARK  9 active torsions:
REMARK  status: ('A' for Active; 'I' for Inactive)
REMARK    1  A    between atoms: C_1  and  N_2
REMARK    2  A    between atoms: N_2  and  C_3
REMARK    3  A    between atoms: N_2  and  S_4
REMARK    4  A    between atoms: S_4  and  C_7
REMARK    5  A    between atoms: C_10  and  N_11
REMARK    6  A    between atoms: C_17  and  C_18
REMARK    7  A    between atoms: N_20  and  C_21
REMARK    8  A    between atoms: C_21  and  C_22
REMARK    9  A    between atoms: C_25  and  N_26
REMARK                            x       y       z     vdW  Elec       q    Type
REMARK                         _______ _______ _______ _____ _____    ______ ____
ROOT
ATOM      1  C   UNL     1      -5.372  12.783  21.285  0.00  0.00    +0.000 A 
ATOM      2  C   UNL     1      -6.242  12.245  20.353  0.00  0.00    +0.000 A 
ATOM      3  C   UNL     1      -5.718  11.712  19.175  0.00  0.00    +0.000 A 
ATOM      4  C   UNL     1      -4.330  11.692  18.884  0.00  0.00    +0.000 A 
ATOM      5  C   UNL     1      -3.470  12.338  19.821  0.00  0.00    +0.000 A 
ATOM      6  C   UNL     1      -4.005  12.877  21.011  0.00  0.00    +0.000 A 
ENDROOT
BRANCH   4   7
ATOM      7  N   UNL     1      -3.909  10.994  17.754  0.00  0.00    +0.000 N 
ATOM      8  C   UNL     1      -3.172   9.730  17.882  0.00  0.00    +0.000 C 
ATOM      9  C   UNL     1      -2.057   9.694  16.843  0.00  0.00    +0.000 C 
ATOM     10  C   UNL     1      -2.596   9.909  15.432  0.00  0.00    +0.000 C 
ATOM     11  C   UNL     1      -3.466  11.165  15.353  0.00  0.00    +0.000 C 
ATOM     12  C   UNL     1      -4.542  11.189  16.444  0.00  0.00    +0.000 C 
ENDBRANCH   4   7
BRANCH   5  13
ATOM     13  C   UNL     1      -1.970  12.351  19.710  0.00  0.00    +0.000 C 
ATOM     14  O   UNL     1      -1.395  12.971  18.824  0.00  0.00    +0.000 OA
ATOM     15  N   UNL     1      -1.264  11.605  20.639  0.00  0.00    +0.000 N 
ATOM     16  H   UNL     1      -1.738  11.084  21.365  0.00  0.00    +0.000 HD
BRANCH  15  17
ATOM     17  C   UNL     1       0.183  11.648  20.703  0.00  0.00    +0.000 C 
BRANCH  17  18
ATOM     18  C   UNL     1       0.762  10.348  20.212  0.00  0.00    +0.000 A 
ATOM     19  C   UNL     1       0.964   9.282  21.090  0.00  0.00    +0.000 A 
ATOM     20  C   UNL     1       1.540   8.088  20.643  0.00  0.00    +0.000 A 
ATOM     21  C   UNL     1       1.952   7.926  19.315  0.00  0.00    +0.000 A 
ATOM     22  C   UNL     1       1.744   9.003  18.439  0.00  0.00    +0.000 A 
ATOM     23  C   UNL     1       1.155  10.197  18.879  0.00  0.00    +0.000 A 
BRANCH  21  24
ATOM     24  N   UNL     1       2.585   6.729  18.872  0.00  0.00    +0.000 N 
ATOM     25  C   UNL     1       3.580   6.719  17.825  0.00  0.00    +0.000 C 
ATOM     26  C   UNL     1       3.787   5.253  17.507  0.00  0.00    +0.000 C 
ATOM     27  C   UNL     1       3.499   4.556  18.821  0.00  0.00    +0.000 C 
ATOM     28  C   UNL     1       2.507   5.471  19.495  0.00  0.00    +0.000 C 
ATOM     29  O   UNL     1       1.818   5.110  20.438  0.00  0.00    +0.000 OA
ENDBRANCH  21  24
ENDBRANCH  17  18
ENDBRANCH  15  17
ENDBRANCH   5  13
BRANCH   1  30
ATOM     30  S   UNL     1      -5.994  13.323  22.865  0.00  0.00    +0.000 S 
ATOM     31  O   UNL     1      -6.781  12.248  23.414  0.00  0.00    +0.000 OA
ATOM     32  O   UNL     1      -6.545  14.643  22.671  0.00  0.00    +0.000 OA
BRANCH  30  34
ATOM     33  C   UNL     1      -4.235  14.824  24.279  0.00  0.00    +0.000 C 
ATOM     34  N   UNL     1      -4.561  13.474  23.783  0.00  0.00    +0.000 NA
ATOM     35  C   UNL     1      -4.306  12.418  24.780  0.00  0.00    +0.000 C 
ENDBRANCH  30  34
ENDBRANCH   1  30
TORSDOF 7
ENDMDL
MODEL 2
REMARK VINA RESULT:      -8.0      3.795      9.402
REMARK  Name = 
REMARK  9 active torsions:
REMARK  status: ('A' for Active; 'I' for Inactive)
REMARK    1  A    between atoms: C_1  and  N_2
REMARK    2  A    between atoms: N_2  and  C_3
REMARK    3  A    between atoms: N_2  and  S_4
REMARK    4  A    between atoms: S_4  and  C_7
REMARK    5  A    between atoms: C_10  and  N_11
REMARK    6  A    between atoms: C_17  and  C_18
REMARK    7  A    between atoms: N_20  and  C_21
REMARK    8  A    between atoms: C_21  and  C_22
REMARK    9  A    between atoms: C_25  and  N_26
REMARK                            x       y       z     vdW  Elec       q    Type
REMARK                         _______ _______ _______ _____ _____    ______ ____
ROOT
ATOM      1  C   UNL     1       2.399   7.066  19.191  0.00  0.00    +0.000 A 
ATOM      2  C   UNL     1       2.206   7.732  17.994  0.00  0.00    +0.000 A 
ATOM      3  C   UNL     1       1.572   8.974  18.013  0.00  0.00    +0.000 A 
ATOM      4  C   UNL     1       1.115   9.594  19.204  0.00  0.00    +0.000 A 
ATOM      5  C   UNL     1       1.246   8.839  20.408  0.00  0.00    +0.000 A 
ATOM      6  C   UNL     1       1.887   7.582  20.384  0.00  0.00    +0.000 A 
ENDROOT
BRANCH   4   7
ATOM      7  N   UNL     1       0.640  10.901  19.122  0.00  0.00    +0.000 N 
ATOM      8  C   UNL     1      -0.802  11.180  19.132  0.00  0.00    +0.000 C 
ATOM      9  C   UNL     1      -1.105  12.283  18.123  0.00  0.00    +0.000 C 
ATOM     10  C   UNL     1      -0.272  13.532  18.389  0.00  0.00    +0.000 C 
ATOM     11  C   UNL     1       1.217  13.197  18.501  0.00  0.00    +0.000 C 
ATOM     12  C   UNL     1       1.477  12.051  19.485  0.00  0.00    +0.000 C 
ENDBRANCH   4   7
BRANCH   5  13
ATOM     13  C   UNL     1       0.883   9.365  21.770  0.00  0.00    +0.000 C 
ATOM     14  O   UNL     1       1.731   9.553  22.634  0.00  0.00    +0.000 OA
ATOM     15  N   UNL     1      -0.458   9.602  22.017  0.00  0.00    +0.000 N 
ATOM     16  H   UNL     1      -1.161   9.438  21.308  0.00  0.00    +0.000 HD
BRANCH  15  17
ATOM     17  C   UNL     1      -0.904  10.228  23.246  0.00  0.00    +0.000 C 
BRANCH  17  18
ATOM     18  C   UNL     1      -1.436  11.607  22.962  0.00  0.00    +0.000 A 
ATOM     19  C   UNL     1      -0.613  12.587  22.406  0.00  0.00    +0.000 A 
ATOM     20  C   UNL     1      -1.095  13.881  22.179  0.00  0.00    +0.000 A 
ATOM     21  C   UNL     1      -2.403  14.245  22.520  0.00  0.00    +0.000 A 
ATOM     22  C   UNL     1      -3.224  13.252  23.079  0.00  0.00    +0.000 A 
ATOM     23  C   UNL     1      -2.750  11.951  23.294  0.00  0.00    +0.000 A 
BRANCH  21  24
ATOM     24  N   UNL     1      -2.878  15.575  22.336  0.00  0.00    +0.000 N 
ATOM     25  C   UNL     1      -4.035  15.881  21.529  0.00  0.00    +0.000 C 
ATOM     26  C   UNL     1      -4.026  17.391  21.402  0.00  0.00    +0.000 C 
ATOM     27  C   UNL     1      -3.369  17.854  22.686  0.00  0.00    +0.000 C 
ATOM     28  C   UNL     1      -2.452  16.712  23.045  0.00  0.00    +0.000 C 
ATOM     29  O   UNL     1      -1.541  16.832  23.852  0.00  0.00    +0.000 OA
ENDBRANCH  21  24
ENDBRANCH  17  18
ENDBRANCH  15  17
ENDBRANCH   5  13
BRANCH   1  30
ATOM     30  S   UNL     1       3.347   5.558  19.218  0.00  0.00    +0.000 S 
ATOM     31  O   UNL     1       2.926   4.798  20.368  0.00  0.00    +0.000 OA
ATOM     32  O   UNL     1       4.729   5.926  19.017  0.00  0.00    +0.000 OA
BRANCH  30  34
ATOM     33  C   UNL     1       3.808   4.007  17.043  0.00  0.00    +0.000 C 
ATOM     34  N   UNL     1       2.800   4.763  17.808  0.00  0.00    +0.000 NA
ATOM     35  C   UNL     1       1.509   4.058  17.911  0.00  0.00    +0.000 C 
ENDBRANCH  30  34
ENDBRANCH   1  30
TORSDOF 7
ENDMDL
MODEL 3
REMARK VINA RESULT:      -8.0      3.482      9.311
REMARK  Name = 
REMARK  9 active torsions:
REMARK  status: ('A' for Active; 'I' for Inactive)
REMARK    1  A    between atoms: C_1  and  N_2
REMARK    2  A    between atoms: N_2  and  C_3
REMARK    3  A    between atoms: N_2  and  S_4
REMARK    4  A    between atoms: S_4  and  C_7
REMARK    5  A    between atoms: C_10  and  N_11
REMARK    6  A    between atoms: C_17  and  C_18
REMARK    7  A    between atoms: N_20  and  C_21
REMARK    8  A    between atoms: C_21  and  C_22
REMARK    9  A    between atoms: C_25  and  N_26
REMARK                            x       y       z     vdW  Elec       q    Type
REMARK                         _______ _______ _______ _____ _____    ______ ____
ROOT
ATOM      1  C   UNL     1       2.379   7.013  19.281  0.00  0.00    +0.000 A 
ATOM      2  C   UNL     1       2.184   7.663  18.076  0.00  0.00    +0.000 A 
ATOM      3  C   UNL     1       1.560   8.911  18.079  0.00  0.00    +0.000 A 
ATOM      4  C   UNL     1       1.114   9.551  19.264  0.00  0.00    +0.000 A 
ATOM      5  C   UNL     1       1.245   8.813  20.478  0.00  0.00    +0.000 A 
ATOM      6  C   UNL     1       1.877   7.550  20.469  0.00  0.00    +0.000 A 
ENDROOT
BRANCH   4   7
ATOM      7  N   UNL     1       0.650  10.861  19.165  0.00  0.00    +0.000 N 
ATOM      8  C   UNL     1      -0.789  11.146  19.113  0.00  0.00    +0.000 C 
ATOM      9  C   UNL     1      -1.043  12.254  18.095  0.00  0.00    +0.000 C 
ATOM     10  C   UNL     1      -0.217  13.498  18.402  0.00  0.00    +0.000 C 
ATOM     11  C   UNL     1       1.264  13.156  18.578  0.00  0.00    +0.000 C 
ATOM     12  C   UNL     1       1.475  12.006  19.569  0.00  0.00    +0.000 C 
ENDBRANCH   4   7
BRANCH   5  13
ATOM     13  C   UNL     1       0.894   9.361  21.834  0.00  0.00    +0.000 C 
ATOM     14  O   UNL     1       1.749   9.566  22.687  0.00  0.00    +0.000 OA
ATOM     15  N   UNL     1      -0.446   9.599  22.089  0.00  0.00    +0.000 N 
ATOM     16  H   UNL     1      -1.154   9.421  21.389  0.00  0.00    +0.000 HD
BRANCH  15  17
ATOM     17  C   UNL     1      -0.882  10.245  23.311  0.00  0.00    +0.000 C 
BRANCH  17  18
ATOM     18  C   UNL     1      -1.464  11.598  23.003  0.00  0.00    +0.000 A 
ATOM     19  C   UNL     1      -2.776  11.908  23.365  0.00  0.00    +0.000 A 
ATOM     20  C   UNL     1      -3.331  13.152  23.044  0.00  0.00    +0.000 A 
ATOM     21  C   UNL     1      -2.606  14.115  22.332  0.00  0.00    +0.000 A 
ATOM     22  C   UNL     1      -1.287  13.794  21.972  0.00  0.00    +0.000 A 
ATOM     23  C   UNL     1      -0.722  12.556  22.305  0.00  0.00    +0.000 A 
BRANCH  21  24
ATOM     24  N   UNL     1      -3.188  15.361  21.960  0.00  0.00    +0.000 N 
ATOM     25  C   UNL     1      -2.651  16.629  22.396  0.00  0.00    +0.000 C 
ATOM     26  C   UNL     1      -3.699  17.646  21.994  0.00  0.00    +0.000 C 
ATOM     27  C   UNL     1      -4.341  17.036  20.766  0.00  0.00    +0.000 C 
ATOM     28  C   UNL     1      -4.186  15.551  20.989  0.00  0.00    +0.000 C 
ATOM     29  O   UNL     1      -4.834  14.724  20.363  0.00  0.00    +0.000 OA
ENDBRANCH  21  24
ENDBRANCH  17  18
ENDBRANCH  15  17
ENDBRANCH   5  13
BRANCH   1  30
ATOM     30  S   UNL     1       3.315   5.497  19.325  0.00  0.00    +0.000 S 
ATOM     31  O   UNL     1       2.760   4.672  20.368  0.00  0.00    +0.000 OA
ATOM     32  O   UNL     1       4.711   5.865  19.311  0.00  0.00    +0.000 OA
BRANCH  30  34
ATOM     33  C   UNL     1       4.068   4.286  17.020  0.00  0.00    +0.000 C 
ATOM     34  N   UNL     1       2.935   4.796  17.814  0.00  0.00    +0.000 NA
ATOM     35  C   UNL     1       1.762   3.904  17.781  0.00  0.00    +0.000 C 
ENDBRANCH  30  34
ENDBRANCH   1  30
TORSDOF 7
ENDMDL
MODEL 4
REMARK VINA RESULT:      -7.9      1.580      2.063
REMARK  Name = 
REMARK  9 active torsions:
REMARK  status: ('A' for Active; 'I' for Inactive)
REMARK    1  A    between atoms: C_1  and  N_2
REMARK    2  A    between atoms: N_2  and  C_3
REMARK    3  A    between atoms: N_2  and  S_4
REMARK    4  A    between atoms: S_4  and  C_7
REMARK    5  A    between atoms: C_10  and  N_11
REMARK    6  A    between atoms: C_17  and  C_18
REMARK    7  A    between atoms: N_20  and  C_21
REMARK    8  A    between atoms: C_21  and  C_22
REMARK    9  A    between atoms: C_25  and  N_26
REMARK                            x       y       z     vdW  Elec       q    Type
REMARK                         _______ _______ _______ _____ _____    ______ ____
ROOT
ATOM      1  C   UNL     1      -3.334  13.467  21.286  0.00  0.00    +0.000 A 
ATOM      2  C   UNL     1      -4.531  13.006  20.766  0.00  0.00    +0.000 A 
ATOM      3  C   UNL     1      -4.514  12.307  19.560  0.00  0.00    +0.000 A 
ATOM      4  C   UNL     1      -3.323  12.040  18.836  0.00  0.00    +0.000 A 
ATOM      5  C   UNL     1      -2.120  12.609  19.350  0.00  0.00    +0.000 A 
ATOM      6  C   UNL     1      -2.144  13.317  20.572  0.00  0.00    +0.000 A 
ENDROOT
BRANCH   4   7
ATOM      7  N   UNL     1      -3.406  11.198  17.728  0.00  0.00    +0.000 N 
ATOM      8  C   UNL     1      -2.932   9.810  17.803  0.00  0.00    +0.000 C 
ATOM      9  C   UNL     1      -2.207   9.459  16.508  0.00  0.00    +0.000 C 
ATOM     10  C   UNL     1      -3.087   9.706  15.286  0.00  0.00    +0.000 C 
ATOM     11  C   UNL     1      -3.672  11.120  15.297  0.00  0.00    +0.000 C 
ATOM     12  C   UNL     1      -4.347  11.454  16.632  0.00  0.00    +0.000 C 
ENDBRANCH   4   7
BRANCH   5  13
ATOM     13  C   UNL     1      -0.760  12.370  18.755  0.00  0.00    +0.000 C 
ATOM     14  O   UNL     1      -0.258  13.156  17.961  0.00  0.00    +0.000 OA
ATOM     15  N   UNL     1      -0.107  11.205  19.123  0.00  0.00    +0.000 N 
ATOM     16  H   UNL     1      -0.525  10.551  19.771  0.00  0.00    +0.000 HD
BRANCH  15  17
ATOM     17  C   UNL     1       1.256  10.938  18.711  0.00  0.00    +0.000 C 
BRANCH  17  18
ATOM     18  C   UNL     1       1.587   9.486  18.927  0.00  0.00    +0.000 A 
ATOM     19  C   UNL     1       1.373   8.884  20.168  0.00  0.00    +0.000 A 
ATOM     20  C   UNL     1       1.718   7.545  20.382  0.00  0.00    +0.000 A 
ATOM     21  C   UNL     1       2.307   6.771  19.374  0.00  0.00    +0.000 A 
ATOM     22  C   UNL     1       2.518   7.385  18.130  0.00  0.00    +0.000 A 
ATOM     23  C   UNL     1       2.161   8.721  17.906  0.00  0.00    +0.000 A 
BRANCH  21  24
ATOM     24  N   UNL     1       2.705   5.423  19.608  0.00  0.00    +0.000 N 
ATOM     25  C   UNL     1       1.752   4.347  19.753  0.00  0.00    +0.000 C 
ATOM     26  C   UNL     1       2.575   3.169  20.231  0.00  0.00    +0.000 C 
ATOM     27  C   UNL     1       3.942   3.416  19.626  0.00  0.00    +0.000 C 
ATOM     28  C   UNL     1       4.014   4.919  19.521  0.00  0.00    +0.000 C 
ATOM     29  O   UNL     1       5.069   5.514  19.354  0.00  0.00    +0.000 OA
ENDBRANCH  21  24
ENDBRANCH  17  18
ENDBRANCH  15  17
ENDBRANCH   5  13
BRANCH   1  30
ATOM     30  S   UNL     1      -3.305  14.220  22.901  0.00  0.00    +0.000 S 
ATOM     31  O   UNL     1      -4.579  14.862  23.106  0.00  0.00    +0.000 OA
ATOM     32  O   UNL     1      -2.064  14.950  23.002  0.00  0.00    +0.000 OA
BRANCH  30  34
ATOM     33  C   UNL     1      -4.461  12.430  24.576  0.00  0.00    +0.000 C 
ATOM     34  N   UNL     1      -3.207  12.860  23.931  0.00  0.00    +0.000 NA
ATOM     35  C   UNL     1      -2.390  11.731  23.450  0.00  0.00    +0.000 C 
ENDBRANCH  30  34
ENDBRANCH   1  30
TORSDOF 7
ENDMDL
MODEL 5
REMARK VINA RESULT:      -7.8      3.599      9.327
REMARK  Name = 
REMARK  9 active torsions:
REMARK  status: ('A' for Active; 'I' for Inactive)
REMARK    1  A    between atoms: C_1  and  N_2
REMARK    2  A    between atoms: N_2  and  C_3
REMARK    3  A    between atoms: N_2  and  S_4
REMARK    4  A    between atoms: S_4  and  C_7
REMARK    5  A    between atoms: C_10  and  N_11
REMARK    6  A    between atoms: C_17  and  C_18
REMARK    7  A    between atoms: N_20  and  C_21
REMARK    8  A    between atoms: C_21  and  C_22
REMARK    9  A    between atoms: C_25  and  N_26
REMARK                            x       y       z     vdW  Elec       q    Type
REMARK                         _______ _______ _______ _____ _____    ______ ____
ROOT
ATOM      1  C   UNL     1       2.457   7.203  18.868  0.00  0.00    +0.000 A 
ATOM      2  C   UNL     1       2.228   7.947  17.723  0.00  0.00    +0.000 A 
ATOM      3  C   UNL     1       1.576   9.174  17.840  0.00  0.00    +0.000 A 
ATOM      4  C   UNL     1       1.135   9.703  19.081  0.00  0.00    +0.000 A 
ATOM      5  C   UNL     1       1.303   8.870  20.227  0.00  0.00    +0.000 A 
ATOM      6  C   UNL     1       1.963   7.629  20.103  0.00  0.00    +0.000 A 
ENDROOT
BRANCH   4   7
ATOM      7  N   UNL     1       0.639  11.005  19.098  0.00  0.00    +0.000 N 
ATOM      8  C   UNL     1      -0.807  11.258  19.107  0.00  0.00    +0.000 C 
ATOM      9  C   UNL     1      -1.114  12.435  18.187  0.00  0.00    +0.000 C 
ATOM     10  C   UNL     1      -0.308  13.672  18.569  0.00  0.00    +0.000 C 
ATOM     11  C   UNL     1       1.185  13.353  18.677  0.00  0.00    +0.000 C 
ATOM     12  C   UNL     1       1.449  12.134  19.568  0.00  0.00    +0.000 C 
ENDBRANCH   4   7
BRANCH   5  13
ATOM     13  C   UNL     1       0.962   9.296  21.629  0.00  0.00    +0.000 C 
ATOM     14  O   UNL     1       1.821   9.408  22.495  0.00  0.00    +0.000 OA
ATOM     15  N   UNL     1      -0.374   9.529  21.909  0.00  0.00    +0.000 N 
ATOM     16  H   UNL     1      -1.086   9.427  21.197  0.00  0.00    +0.000 HD
BRANCH  15  17
ATOM     17  C   UNL     1      -0.798  10.065  23.187  0.00  0.00    +0.000 C 
BRANCH  17  18
ATOM     18  C   UNL     1      -1.352  11.453  23.008  0.00  0.00    +0.000 A 
ATOM     19  C   UNL     1      -0.572  12.464  22.446  0.00  0.00    +0.000 A 
ATOM     20  C   UNL     1      -1.072  13.764  22.316  0.00  0.00    +0.000 A 
ATOM     21  C   UNL     1      -2.355  14.103  22.763  0.00  0.00    +0.000 A 
ATOM     22  C   UNL     1      -3.132  13.080  23.327  0.00  0.00    +0.000 A 
ATOM     23  C   UNL     1      -2.642  11.772  23.446  0.00  0.00    +0.000 A 
BRANCH  21  24
ATOM     24  N   UNL     1      -2.845  15.438  22.678  0.00  0.00    +0.000 N 
ATOM     25  C   UNL     1      -2.311  16.513  23.482  0.00  0.00    +0.000 C 
ATOM     26  C   UNL     1      -3.268  17.666  23.265  0.00  0.00    +0.000 C 
ATOM     27  C   UNL     1      -3.795  17.436  21.864  0.00  0.00    +0.000 C 
ATOM     28  C   UNL     1      -3.723  15.938  21.702  0.00  0.00    +0.000 C 
ATOM     29  O   UNL     1      -4.330  15.344  20.822  0.00  0.00    +0.000 OA
ENDBRANCH  21  24
ENDBRANCH  17  18
ENDBRANCH  15  17
ENDBRANCH   5  13
BRANCH   1  30
ATOM     30  S   UNL     1       3.428   5.713  18.772  0.00  0.00    +0.000 S 
ATOM     31  O   UNL     1       4.327   5.704  19.898  0.00  0.00    +0.000 OA
ATOM     32  O   UNL     1       3.913   5.613  17.415  0.00  0.00    +0.000 OA
BRANCH  30  34
ATOM     33  C   UNL     1       1.408   4.164  17.842  0.00  0.00    +0.000 C 
ATOM     34  N   UNL     1       2.249   4.499  19.005  0.00  0.00    +0.000 NA
ATOM     35  C   UNL     1       2.672   3.311  19.771  0.00  0.00    +0.000 C 
ENDBRANCH  30  34
ENDBRANCH   1  30
TORSDOF 7
ENDMDL
MODEL 6
REMARK VINA RESULT:      -7.8      3.750      9.303
REMARK  Name = 
REMARK  9 active torsions:
REMARK  status: ('A' for Active; 'I' for Inactive)
REMARK    1  A    between atoms: C_1  and  N_2
REMARK    2  A    between atoms: N_2  and  C_3
REMARK    3  A    between atoms: N_2  and  S_4
REMARK    4  A    between atoms: S_4  and  C_7
REMARK    5  A    between atoms: C_10  and  N_11
REMARK    6  A    between atoms: C_17  and  C_18
REMARK    7  A    between atoms: N_20  and  C_21
REMARK    8  A    between atoms: C_21  and  C_22
REMARK    9  A    between atoms: C_25  and  N_26
REMARK                            x       y       z     vdW  Elec       q    Type
REMARK                         _______ _______ _______ _____ _____    ______ ____
ROOT
ATOM      1  C   UNL     1       2.276   7.377  18.869  0.00  0.00    +0.000 A 
ATOM      2  C   UNL     1       2.147   8.189  17.756  0.00  0.00    +0.000 A 
ATOM      3  C   UNL     1       1.586   9.457  17.912  0.00  0.00    +0.000 A 
ATOM      4  C   UNL     1       1.141   9.960  19.162  0.00  0.00    +0.000 A 
ATOM      5  C   UNL     1       1.202   9.063  20.270  0.00  0.00    +0.000 A 
ATOM      6  C   UNL     1       1.769   7.781  20.107  0.00  0.00    +0.000 A 
ENDROOT
BRANCH   4   7
ATOM      7  N   UNL     1       0.746  11.294  19.227  0.00  0.00    +0.000 N 
ATOM      8  C   UNL     1      -0.673  11.663  19.135  0.00  0.00    +0.000 C 
ATOM      9  C   UNL     1      -0.808  12.916  18.275  0.00  0.00    +0.000 C 
ATOM     10  C   UNL     1       0.054  14.057  18.805  0.00  0.00    +0.000 C 
ATOM     11  C   UNL     1       1.502  13.612  19.014  0.00  0.00    +0.000 C 
ATOM     12  C   UNL     1       1.595  12.323  19.838  0.00  0.00    +0.000 C 
ENDBRANCH   4   7
BRANCH   5  13
ATOM     13  C   UNL     1       0.841   9.448  21.679  0.00  0.00    +0.000 C 
ATOM     14  O   UNL     1       1.671   9.441  22.580  0.00  0.00    +0.000 OA
ATOM     15  N   UNL     1      -0.480   9.784  21.922  0.00  0.00    +0.000 N 
ATOM     16  H   UNL     1      -1.168   9.780  21.181  0.00  0.00    +0.000 HD
BRANCH  15  17
ATOM     17  C   UNL     1      -0.908  10.291  23.210  0.00  0.00    +0.000 C 
BRANCH  17  18
ATOM     18  C   UNL     1      -1.461  11.683  23.060  0.00  0.00    +0.000 A 
ATOM     19  C   UNL     1      -2.807  11.946  23.321  0.00  0.00    +0.000 A 
ATOM     20  C   UNL     1      -3.331  13.231  23.143  0.00  0.00    +0.000 A 
ATOM     21  C   UNL     1      -2.538  14.288  22.680  0.00  0.00    +0.000 A 
ATOM     22  C   UNL     1      -1.186  14.013  22.421  0.00  0.00    +0.000 A 
ATOM     23  C   UNL     1      -0.652  12.731  22.611  0.00  0.00    +0.000 A 
BRANCH  21  24
ATOM     24  N   UNL     1      -3.084  15.583  22.450  0.00  0.00    +0.000 N 
ATOM     25  C   UNL     1      -3.725  16.351  23.492  0.00  0.00    +0.000 C 
ATOM     26  C   UNL     1      -4.367  17.517  22.769  0.00  0.00    +0.000 C 
ATOM     27  C   UNL     1      -3.465  17.738  21.572  0.00  0.00    +0.000 C 
ATOM     28  C   UNL     1      -2.902  16.366  21.296  0.00  0.00    +0.000 C 
ATOM     29  O   UNL     1      -2.366  16.079  20.236  0.00  0.00    +0.000 OA
ENDBRANCH  21  24
ENDBRANCH  17  18
ENDBRANCH  15  17
ENDBRANCH   5  13
BRANCH   1  30
ATOM     30  S   UNL     1       3.133   5.822  18.732  0.00  0.00    +0.000 S 
ATOM     31  O   UNL     1       3.876   5.624  19.951  0.00  0.00    +0.000 OA
ATOM     32  O   UNL     1       3.778   5.810  17.440  0.00  0.00    +0.000 OA
BRANCH  30  34
ATOM     33  C   UNL     1       1.916   3.649  17.662  0.00  0.00    +0.000 C 
ATOM     34  N   UNL     1       1.843   4.702  18.691  0.00  0.00    +0.000 NA
ATOM     35  C   UNL     1       1.368   4.201  19.994  0.00  0.00    +0.000 C 
ENDBRANCH  30  34
ENDBRANCH   1  30
TORSDOF 7
ENDMDL
MODEL 7
REMARK VINA RESULT:      -7.7      3.652      9.416
REMARK  Name = 
REMARK  9 active torsions:
REMARK  status: ('A' for Active; 'I' for Inactive)
REMARK    1  A    between atoms: C_1  and  N_2
REMARK    2  A    between atoms: N_2  and  C_3
REMARK    3  A    between atoms: N_2  and  S_4
REMARK    4  A    between atoms: S_4  and  C_7
REMARK    5  A    between atoms: C_10  and  N_11
REMARK    6  A    between atoms: C_17  and  C_18
REMARK    7  A    between atoms: N_20  and  C_21
REMARK    8  A    between atoms: C_21  and  C_22
REMARK    9  A    between atoms: C_25  and  N_26
REMARK                            x       y       z     vdW  Elec       q    Type
REMARK                         _______ _______ _______ _____ _____    ______ ____
ROOT
ATOM      1  C   UNL     1       2.249   7.161  19.350  0.00  0.00    +0.000 A 
ATOM      2  C   UNL     1       2.158   7.799  18.125  0.00  0.00    +0.000 A 
ATOM      3  C   UNL     1       1.607   9.079  18.074  0.00  0.00    +0.000 A 
ATOM      4  C   UNL     1       1.134   9.765  19.222  0.00  0.00    +0.000 A 
ATOM      5  C   UNL     1       1.157   9.044  20.453  0.00  0.00    +0.000 A 
ATOM      6  C   UNL     1       1.715   7.748  20.499  0.00  0.00    +0.000 A 
ENDROOT
BRANCH   4   7
ATOM      7  N   UNL     1       0.752  11.097  19.077  0.00  0.00    +0.000 N 
ATOM      8  C   UNL     1       1.741  12.178  19.178  0.00  0.00    +0.000 C 
ATOM      9  C   UNL     1       1.133  13.342  19.954  0.00  0.00    +0.000 C 
ATOM     10  C   UNL     1      -0.177  13.811  19.328  0.00  0.00    +0.000 C 
ATOM     11  C   UNL     1      -1.143  12.645  19.115  0.00  0.00    +0.000 C 
ATOM     12  C   UNL     1      -0.481  11.475  18.378  0.00  0.00    +0.000 C 
ENDBRANCH   4   7
BRANCH   5  13
ATOM     13  C   UNL     1       0.764   9.637  21.778  0.00  0.00    +0.000 C 
ATOM     14  O   UNL     1       1.566   9.746  22.698  0.00  0.00    +0.000 OA
ATOM     15  N   UNL     1      -0.556  10.030  21.926  0.00  0.00    +0.000 N 
ATOM     16  H   UNL     1      -1.221   9.931  21.171  0.00  0.00    +0.000 HD
BRANCH  15  17
ATOM     17  C   UNL     1      -1.010  10.728  23.112  0.00  0.00    +0.000 C 
BRANCH  17  18
ATOM     18  C   UNL     1      -1.587  12.066  22.736  0.00  0.00    +0.000 A 
ATOM     19  C   UNL     1      -0.874  13.242  22.976  0.00  0.00    +0.000 A 
ATOM     20  C   UNL     1      -1.425  14.489  22.664  0.00  0.00    +0.000 A 
ATOM     21  C   UNL     1      -2.712  14.606  22.125  0.00  0.00    +0.000 A 
ATOM     22  C   UNL     1      -3.421  13.419  21.886  0.00  0.00    +0.000 A 
ATOM     23  C   UNL     1      -2.868  12.166  22.183  0.00  0.00    +0.000 A 
BRANCH  21  24
ATOM     24  N   UNL     1      -3.293  15.878  21.855  0.00  0.00    +0.000 N 
ATOM     25  C   UNL     1      -4.269  16.486  22.729  0.00  0.00    +0.000 C 
ATOM     26  C   UNL     1      -4.793  17.675  21.951  0.00  0.00    +0.000 C 
ATOM     27  C   UNL     1      -3.620  18.082  21.083  0.00  0.00    +0.000 C 
ATOM     28  C   UNL     1      -2.875  16.788  20.869  0.00  0.00    +0.000 C 
ATOM     29  O   UNL     1      -2.040  16.652  19.986  0.00  0.00    +0.000 OA
ENDBRANCH  21  24
ENDBRANCH  17  18
ENDBRANCH  15  17
ENDBRANCH   5  13
BRANCH   1  30
ATOM     30  S   UNL     1       3.093   5.597  19.469  0.00  0.00    +0.000 S 
ATOM     31  O   UNL     1       2.473   4.846  20.533  0.00  0.00    +0.000 OA
ATOM     32  O   UNL     1       4.508   5.881  19.467  0.00  0.00    +0.000 OA
BRANCH  30  34
ATOM     33  C   UNL     1       3.814   4.267  17.220  0.00  0.00    +0.000 C 
ATOM     34  N   UNL     1       2.698   4.859  17.979  0.00  0.00    +0.000 NA
ATOM     35  C   UNL     1       1.483   4.024  17.962  0.00  0.00    +0.000 C 
ENDBRANCH  30  34
ENDBRANCH   1  30
TORSDOF 7
ENDMDL
MODEL 8
REMARK VINA RESULT:      -7.7      3.831      9.371
REMARK  Name = 
REMARK  9 active torsions:
REMARK  status: ('A' for Active; 'I' for Inactive)
REMARK    1  A    between atoms: C_1  and  N_2
REMARK    2  A    between atoms: N_2  and  C_3
REMARK    3  A    between atoms: N_2  and  S_4
REMARK    4  A    between atoms: S_4  and  C_7
REMARK    5  A    between atoms: C_10  and  N_11
REMARK    6  A    between atoms: C_17  and  C_18
REMARK    7  A    between atoms: N_20  and  C_21
REMARK    8  A    between atoms: C_21  and  C_22
REMARK    9  A    between atoms: C_25  and  N_26
REMARK                            x       y       z     vdW  Elec       q    Type
REMARK                         _______ _______ _______ _____ _____    ______ ____
ROOT
ATOM      1  C   UNL     1       2.296   7.123  18.967  0.00  0.00    +0.000 A 
ATOM      2  C   UNL     1       2.116   7.851  17.804  0.00  0.00    +0.000 A 
ATOM      3  C   UNL     1       1.535   9.116  17.887  0.00  0.00    +0.000 A 
ATOM      4  C   UNL     1       1.119   9.699  19.112  0.00  0.00    +0.000 A 
ATOM      5  C   UNL     1       1.233   8.885  20.279  0.00  0.00    +0.000 A 
ATOM      6  C   UNL     1       1.821   7.605  20.189  0.00  0.00    +0.000 A 
ENDROOT
BRANCH   4   7
ATOM      7  N   UNL     1       0.699  11.027  19.095  0.00  0.00    +0.000 N 
ATOM      8  C   UNL     1      -0.731  11.363  19.078  0.00  0.00    +0.000 C 
ATOM      9  C   UNL     1      -0.958  12.536  18.130  0.00  0.00    +0.000 C 
ATOM     10  C   UNL     1      -0.086  13.732  18.497  0.00  0.00    +0.000 C 
ATOM     11  C   UNL     1       1.384  13.331  18.634  0.00  0.00    +0.000 C 
ATOM     12  C   UNL     1       1.567  12.118  19.554  0.00  0.00    +0.000 C 
ENDBRANCH   4   7
BRANCH   5  13
ATOM     13  C   UNL     1       0.909   9.363  21.667  0.00  0.00    +0.000 C 
ATOM     14  O   UNL     1       1.782   9.531  22.510  0.00  0.00    +0.000 OA
ATOM     15  N   UNL     1      -0.426   9.579  21.964  0.00  0.00    +0.000 N 
ATOM     16  H   UNL     1      -1.149   9.431  21.273  0.00  0.00    +0.000 HD
BRANCH  15  17
ATOM     17  C   UNL     1      -0.838  10.159  23.227  0.00  0.00    +0.000 C 
BRANCH  17  18
ATOM     18  C   UNL     1      -1.375  11.548  23.007  0.00  0.00    +0.000 A 
ATOM     19  C   UNL     1      -2.677  11.876  23.386  0.00  0.00    +0.000 A 
ATOM     20  C   UNL     1      -3.191  13.155  23.146  0.00  0.00    +0.000 A 
ATOM     21  C   UNL     1      -2.432  14.140  22.501  0.00  0.00    +0.000 A 
ATOM     22  C   UNL     1      -1.123  13.801  22.125  0.00  0.00    +0.000 A 
ATOM     23  C   UNL     1      -0.599  12.525  22.376  0.00  0.00    +0.000 A 
BRANCH  21  24
ATOM     24  N   UNL     1      -2.972  15.425  22.211  0.00  0.00    +0.000 N 
ATOM     25  C   UNL     1      -4.183  15.602  21.444  0.00  0.00    +0.000 C 
ATOM     26  C   UNL     1      -4.246  17.089  21.164  0.00  0.00    +0.000 C 
ATOM     27  C   UNL     1      -3.542  17.709  22.354  0.00  0.00    +0.000 C 
ATOM     28  C   UNL     1      -2.559  16.644  22.775  0.00  0.00    +0.000 C 
ATOM     29  O   UNL     1      -1.612  16.881  23.511  0.00  0.00    +0.000 OA
ENDBRANCH  21  24
ENDBRANCH  17  18
ENDBRANCH  15  17
ENDBRANCH   5  13
BRANCH   1  30
ATOM     30  S   UNL     1       3.181   5.577  18.913  0.00  0.00    +0.000 S 
ATOM     31  O   UNL     1       2.670   4.821  17.797  0.00  0.00    +0.000 OA
ATOM     32  O   UNL     1       3.178   5.044  20.254  0.00  0.00    +0.000 OA
BRANCH  30  34
ATOM     33  C   UNL     1       5.866   5.351  19.205  0.00  0.00    +0.000 C 
ATOM     34  N   UNL     1       4.771   6.085  18.546  0.00  0.00    +0.000 NA
ATOM     35  C   UNL     1       5.052   6.390  17.131  0.00  0.00    +0.000 C 
ENDBRANCH  30  34
ENDBRANCH   1  30
TORSDOF 7
ENDMDL
MODEL 9
REMARK VINA RESULT:      -7.6      3.567      9.349
REMARK  Name = 
REMARK  9 active torsions:
REMARK  status: ('A' for Active; 'I' for Inactive)
REMARK    1  A    between atoms: C_1  and  N_2
REMARK    2  A    between atoms: N_2  and  C_3
REMARK    3  A    between atoms: N_2  and  S_4
REMARK    4  A    between atoms: S_4  and  C_7
REMARK    5  A    between atoms: C_10  and  N_11
REMARK    6  A    between atoms: C_17  and  C_18
REMARK    7  A    between atoms: N_20  and  C_21
REMARK    8  A    between atoms: C_21  and  C_22
REMARK    9  A    between atoms: C_25  and  N_26
REMARK                            x       y       z     vdW  Elec       q    Type
REMARK                         _______ _______ _______ _____ _____    ______ ____
ROOT
ATOM      1  C   UNL     1       2.180   7.353  18.985  0.00  0.00    +0.000 A 
ATOM      2  C   UNL     1       2.062   8.090  17.819  0.00  0.00    +0.000 A 
ATOM      3  C   UNL     1       1.530   9.378  17.891  0.00  0.00    +0.000 A 
ATOM      4  C   UNL     1       1.104   9.974  19.106  0.00  0.00    +0.000 A 
ATOM      5  C   UNL     1       1.152   9.154  20.273  0.00  0.00    +0.000 A 
ATOM      6  C   UNL     1       1.691   7.851  20.194  0.00  0.00    +0.000 A 
ENDROOT
BRANCH   4   7
ATOM      7  N   UNL     1       0.738  11.318  19.082  0.00  0.00    +0.000 N 
ATOM      8  C   UNL     1       1.751  12.374  19.197  0.00  0.00    +0.000 C 
ATOM      9  C   UNL     1       1.215  13.486  20.093  0.00  0.00    +0.000 C 
ATOM     10  C   UNL     1      -0.122  14.019  19.587  0.00  0.00    +0.000 C 
ATOM     11  C   UNL     1      -1.122  12.885  19.353  0.00  0.00    +0.000 C 
ATOM     12  C   UNL     1      -0.530  11.764  18.492  0.00  0.00    +0.000 C 
ENDBRANCH   4   7
BRANCH   5  13
ATOM     13  C   UNL     1       0.809   9.641  21.653  0.00  0.00    +0.000 C 
ATOM     14  O   UNL     1       1.644   9.672  22.550  0.00  0.00    +0.000 OA
ATOM     15  N   UNL     1      -0.501  10.027  21.878  0.00  0.00    +0.000 N 
ATOM     16  H   UNL     1      -1.193   9.992  21.141  0.00  0.00    +0.000 HD
BRANCH  15  17
ATOM     17  C   UNL     1      -0.910  10.631  23.131  0.00  0.00    +0.000 C 
BRANCH  17  18
ATOM     18  C   UNL     1      -1.551  11.968  22.876  0.00  0.00    +0.000 A 
ATOM     19  C   UNL     1      -0.841  13.150  23.091  0.00  0.00    +0.000 A 
ATOM     20  C   UNL     1      -1.449  14.395  22.894  0.00  0.00    +0.000 A 
ATOM     21  C   UNL     1      -2.788  14.501  22.498  0.00  0.00    +0.000 A 
ATOM     22  C   UNL     1      -3.493  13.307  22.284  0.00  0.00    +0.000 A 
ATOM     23  C   UNL     1      -2.885  12.058  22.466  0.00  0.00    +0.000 A 
BRANCH  21  24
ATOM     24  N   UNL     1      -3.422  15.768  22.347  0.00  0.00    +0.000 N 
ATOM     25  C   UNL     1      -3.231  16.596  21.179  0.00  0.00    +0.000 C 
ATOM     26  C   UNL     1      -3.863  17.923  21.543  0.00  0.00    +0.000 C 
ATOM     27  C   UNL     1      -4.964  17.543  22.511  0.00  0.00    +0.000 C 
ATOM     28  C   UNL     1      -4.443  16.286  23.162  0.00  0.00    +0.000 C 
ATOM     29  O   UNL     1      -4.910  15.844  24.201  0.00  0.00    +0.000 OA
ENDBRANCH  21  24
ENDBRANCH  17  18
ENDBRANCH  15  17
ENDBRANCH   5  13
BRANCH   1  30
ATOM     30  S   UNL     1       3.003   5.773  18.949  0.00  0.00    +0.000 S 
ATOM     31  O   UNL     1       4.078   5.819  19.908  0.00  0.00    +0.000 OA
ATOM     32  O   UNL     1       3.239   5.453  17.561  0.00  0.00    +0.000 OA
BRANCH  30  34
ATOM     33  C   UNL     1       1.346   3.652  18.627  0.00  0.00    +0.000 C 
ATOM     34  N   UNL     1       1.791   4.723  19.538  0.00  0.00    +0.000 NA
ATOM     35  C   UNL     1       1.938   4.267  20.933  0.00  0.00    +0.000 C 
ENDBRANCH  30  34
ENDBRANCH   1  30
TORSDOF 7
ENDMDL
