MODEL 1
REMARK VINA RESULT:      -6.6      0.000      0.000
REMARK  Name = 
REMARK  11 active torsions:
REMARK  status: ('A' for Active; 'I' for Inactive)
REMARK    1  A    between atoms: C_1  and  C_2
REMARK    2  A    between atoms: C_2  and  C_3
REMARK    3  A    between atoms: C_3  and  C_4
REMARK    4  A    between atoms: C_3  and  C_6
REMARK    5  A    between atoms: C_4  and  C_5
REMARK    6  A    between atoms: C_6  and  N_7
REMARK    7  A    between atoms: N_7  and  C_8
REMARK    8  A    between atoms: C_8  and  C_9
REMARK    9  A    between atoms: C_10  and  C_12
REMARK   10  A    between atoms: C_14  and  C_15
REMARK   11  A    between atoms: C_15  and  O_16
REMARK                            x       y       z     vdW  Elec       q    Type
REMARK                         _______ _______ _______ _____ _____    ______ ____
ROOT
ATOM      1  N   UNL     1       3.846   5.347  18.665  0.00  0.00    +0.000 N 
ATOM      2  C   UNL     1       5.024   4.624  18.390  0.00  0.00    +0.000 C 
ATOM      3  O   UNL     1       5.371   3.682  19.112  0.00  0.00    +0.000 OA
ENDROOT
BRANCH   2   4
ATOM      4  C   UNL     1       5.837   4.953  17.203  0.00  0.00    +0.000 A 
ATOM      5  C   UNL     1       5.675   4.427  15.890  0.00  0.00    +0.000 A 
ATOM      6  C   UNL     1       6.708   4.972  15.164  0.00  0.00    +0.000 A 
ATOM      7  O   UNL     1       7.417   5.807  15.961  0.00  0.00    +0.000 OA
ATOM      8  N   UNL     1       6.906   5.770  17.237  0.00  0.00    +0.000 NA
BRANCH   6   9
ATOM      9  C   UNL     1       7.228   4.791  13.797  0.00  0.00    +0.000 C 
BRANCH   9  10
ATOM     10  O   UNL     1       8.267   5.749  13.617  0.00  0.00    +0.000 OA
ATOM     11  H   UNL     1       8.128   6.149  12.740  0.00  0.00    +0.000 HD
ENDBRANCH   9  10
ENDBRANCH   6   9
ENDBRANCH   2   4
BRANCH   1  12
ATOM     12  C   UNL     1       3.387   6.417  17.759  0.00  0.00    +0.000 C 
ATOM     13  C   UNL     1       2.693   7.631  18.344  0.00  0.00    +0.000 C 
ENDBRANCH   1  12
BRANCH   1  14
ATOM     14  C   UNL     1       3.120   5.047  19.917  0.00  0.00    +0.000 C 
BRANCH  14  15
ATOM     15  C   UNL     1       1.700   4.435  19.763  0.00  0.00    +0.000 C 
BRANCH  15  17
ATOM     16  C   UNL     1       0.766   2.319  18.635  0.00  0.00    +0.000 C 
ATOM     17  C   UNL     1       1.559   3.613  18.465  0.00  0.00    +0.000 C 
ENDBRANCH  15  17
BRANCH  15  18
ATOM     18  C   UNL     1       1.321   3.616  21.025  0.00  0.00    +0.000 C 
ATOM     19  C   UNL     1       2.465   2.838  21.669  0.00  0.00    +0.000 C 
ENDBRANCH  15  18
ENDBRANCH  14  15
ENDBRANCH   1  14
TORSDOF 8
ENDMDL
MODEL 2
REMARK VINA RESULT:      -6.5      1.050      1.773
REMARK  Name = 
REMARK  11 active torsions:
REMARK  status: ('A' for Active; 'I' for Inactive)
REMARK    1  A    between atoms: C_1  and  C_2
REMARK    2  A    between atoms: C_2  and  C_3
REMARK    3  A    between atoms: C_3  and  C_4
REMARK    4  A    between atoms: C_3  and  C_6
REMARK    5  A    between atoms: C_4  and  C_5
REMARK    6  A    between atoms: C_6  and  N_7
REMARK    7  A    between atoms: N_7  and  C_8
REMARK    8  A    between atoms: C_8  and  C_9
REMARK    9  A    between atoms: C_10  and  C_12
REMARK   10  A    between atoms: C_14  and  C_15
REMARK   11  A    between atoms: C_15  and  O_16
REMARK                            x       y       z     vdW  Elec       q    Type
REMARK                         _______ _______ _______ _____ _____    ______ ____
ROOT
ATOM      1  N   UNL     1       4.385   5.603  18.383  0.00  0.00    +0.000 N 
ATOM      2  C   UNL     1       5.430   4.726  18.024  0.00  0.00    +0.000 C 
ATOM      3  O   UNL     1       5.741   3.781  18.759  0.00  0.00    +0.000 OA
ENDROOT
BRANCH   2   4
ATOM      4  C   UNL     1       6.133   4.896  16.738  0.00  0.00    +0.000 A 
ATOM      5  C   UNL     1       5.752   4.347  15.481  0.00  0.00    +0.000 A 
ATOM      6  C   UNL     1       6.756   4.719  14.617  0.00  0.00    +0.000 A 
ATOM      7  O   UNL     1       7.656   5.480  15.285  0.00  0.00    +0.000 OA
ATOM      8  N   UNL     1       7.296   5.560  16.611  0.00  0.00    +0.000 NA
BRANCH   6   9
ATOM      9  C   UNL     1       7.083   4.418  13.213  0.00  0.00    +0.000 C 
BRANCH   9  10
ATOM     10  O   UNL     1       6.441   3.188  12.891  0.00  0.00    +0.000 OA
ATOM     11  H   UNL     1       6.498   3.089  11.923  0.00  0.00    +0.000 HD
ENDBRANCH   9  10
ENDBRANCH   6   9
ENDBRANCH   2   4
BRANCH   1  12
ATOM     12  C   UNL     1       3.957   6.680  17.470  0.00  0.00    +0.000 C 
ATOM     13  C   UNL     1       2.856   7.624  17.910  0.00  0.00    +0.000 C 
ENDBRANCH   1  12
BRANCH   1  14
ATOM     14  C   UNL     1       3.778   5.453  19.722  0.00  0.00    +0.000 C 
BRANCH  14  15
ATOM     15  C   UNL     1       2.886   4.200  19.940  0.00  0.00    +0.000 C 
BRANCH  15  17
ATOM     16  C   UNL     1       1.485   2.886  21.653  0.00  0.00    +0.000 C 
ATOM     17  C   UNL     1       2.291   4.150  21.363  0.00  0.00    +0.000 C 
ENDBRANCH  15  17
BRANCH  15  18
ATOM     18  C   UNL     1       1.795   4.111  18.840  0.00  0.00    +0.000 C 
ATOM     19  C   UNL     1       2.018   3.035  17.781  0.00  0.00    +0.000 C 
ENDBRANCH  15  18
ENDBRANCH  14  15
ENDBRANCH   1  14
TORSDOF 8
ENDMDL
MODEL 3
REMARK VINA RESULT:      -6.4      1.468      2.455
REMARK  Name = 
REMARK  11 active torsions:
REMARK  status: ('A' for Active; 'I' for Inactive)
REMARK    1  A    between atoms: C_1  and  C_2
REMARK    2  A    between atoms: C_2  and  C_3
REMARK    3  A    between atoms: C_3  and  C_4
REMARK    4  A    between atoms: C_3  and  C_6
REMARK    5  A    between atoms: C_4  and  C_5
REMARK    6  A    between atoms: C_6  and  N_7
REMARK    7  A    between atoms: N_7  and  C_8
REMARK    8  A    between atoms: C_8  and  C_9
REMARK    9  A    between atoms: C_10  and  C_12
REMARK   10  A    between atoms: C_14  and  C_15
REMARK   11  A    between atoms: C_15  and  O_16
REMARK                            x       y       z     vdW  Elec       q    Type
REMARK                         _______ _______ _______ _____ _____    ______ ____
ROOT
ATOM      1  N   UNL     1       4.289   3.724  19.004  0.00  0.00    +0.000 N 
ATOM      2  C   UNL     1       5.291   4.698  18.817  0.00  0.00    +0.000 C 
ATOM      3  O   UNL     1       5.515   5.548  19.685  0.00  0.00    +0.000 OA
ENDROOT
BRANCH   2   4
ATOM      4  C   UNL     1       6.122   4.683  17.597  0.00  0.00    +0.000 A 
ATOM      5  C   UNL     1       5.676   4.895  16.262  0.00  0.00    +0.000 A 
ATOM      6  C   UNL     1       6.794   4.705  15.484  0.00  0.00    +0.000 A 
ATOM      7  O   UNL     1       7.854   4.447  16.287  0.00  0.00    +0.000 OA
ATOM      8  N   UNL     1       7.435   4.392  17.597  0.00  0.00    +0.000 NA
BRANCH   6   9
ATOM      9  C   UNL     1       7.056   4.650  14.035  0.00  0.00    +0.000 C 
BRANCH   9  10
ATOM     10  O   UNL     1       6.399   3.488  13.538  0.00  0.00    +0.000 OA
ATOM     11  H   UNL     1       5.756   3.795  12.874  0.00  0.00    +0.000 HD
ENDBRANCH   9  10
ENDBRANCH   6   9
ENDBRANCH   2   4
BRANCH   1  12
ATOM     12  C   UNL     1       4.075   2.658  18.006  0.00  0.00    +0.000 C 
ATOM     13  C   UNL     1       2.660   2.321  17.579  0.00  0.00    +0.000 C 
ENDBRANCH   1  12
BRANCH   1  14
ATOM     14  C   UNL     1       3.418   3.838  20.192  0.00  0.00    +0.000 C 
BRANCH  14  15
ATOM     15  C   UNL     1       2.018   4.474  19.965  0.00  0.00    +0.000 C 
BRANCH  15  17
ATOM     16  C   UNL     1       1.339   2.622  21.618  0.00  0.00    +0.000 C 
ATOM     17  C   UNL     1       0.883   3.600  20.537  0.00  0.00    +0.000 C 
ENDBRANCH  15  17
BRANCH  15  18
ATOM     18  C   UNL     1       1.983   5.923  20.517  0.00  0.00    +0.000 C 
ATOM     19  C   UNL     1       2.340   7.016  19.513  0.00  0.00    +0.000 C 
ENDBRANCH  15  18
ENDBRANCH  14  15
ENDBRANCH   1  14
TORSDOF 8
ENDMDL
MODEL 4
REMARK VINA RESULT:      -6.3      1.260      2.210
REMARK  Name = 
REMARK  11 active torsions:
REMARK  status: ('A' for Active; 'I' for Inactive)
REMARK    1  A    between atoms: C_1  and  C_2
REMARK    2  A    between atoms: C_2  and  C_3
REMARK    3  A    between atoms: C_3  and  C_4
REMARK    4  A    between atoms: C_3  and  C_6
REMARK    5  A    between atoms: C_4  and  C_5
REMARK    6  A    between atoms: C_6  and  N_7
REMARK    7  A    between atoms: N_7  and  C_8
REMARK    8  A    between atoms: C_8  and  C_9
REMARK    9  A    between atoms: C_10  and  C_12
REMARK   10  A    between atoms: C_14  and  C_15
REMARK   11  A    between atoms: C_15  and  O_16
REMARK                            x       y       z     vdW  Elec       q    Type
REMARK                         _______ _______ _______ _____ _____    ______ ____
ROOT
ATOM      1  N   UNL     1       4.435   3.897  18.969  0.00  0.00    +0.000 N 
ATOM      2  C   UNL     1       5.546   4.746  18.789  0.00  0.00    +0.000 C 
ATOM      3  O   UNL     1       5.952   5.459  19.714  0.00  0.00    +0.000 OA
ENDROOT
BRANCH   2   4
ATOM      4  C   UNL     1       6.271   4.758  17.504  0.00  0.00    +0.000 A 
ATOM      5  C   UNL     1       5.721   5.031  16.220  0.00  0.00    +0.000 A 
ATOM      6  C   UNL     1       6.765   4.844  15.344  0.00  0.00    +0.000 A 
ATOM      7  O   UNL     1       7.880   4.530  16.045  0.00  0.00    +0.000 OA
ATOM      8  N   UNL     1       7.572   4.436  17.382  0.00  0.00    +0.000 NA
BRANCH   6   9
ATOM      9  C   UNL     1       6.903   4.837  13.877  0.00  0.00    +0.000 C 
BRANCH   9  10
ATOM     10  O   UNL     1       8.016   5.667  13.560  0.00  0.00    +0.000 OA
ATOM     11  H   UNL     1       8.794   5.265  13.987  0.00  0.00    +0.000 HD
ENDBRANCH   9  10
ENDBRANCH   6   9
ENDBRANCH   2   4
BRANCH   1  12
ATOM     12  C   UNL     1       3.999   2.985  17.894  0.00  0.00    +0.000 C 
ATOM     13  C   UNL     1       2.663   3.227  17.219  0.00  0.00    +0.000 C 
ENDBRANCH   1  12
BRANCH   1  14
ATOM     14  C   UNL     1       3.682   3.992  20.237  0.00  0.00    +0.000 C 
BRANCH  14  15
ATOM     15  C   UNL     1       2.555   5.061  20.293  0.00  0.00    +0.000 C 
BRANCH  15  17
ATOM     16  C   UNL     1       2.192   7.474  19.475  0.00  0.00    +0.000 C 
ATOM     17  C   UNL     1       2.642   6.059  19.119  0.00  0.00    +0.000 C 
ENDBRANCH  15  17
BRANCH  15  18
ATOM     18  C   UNL     1       1.164   4.379  20.387  0.00  0.00    +0.000 C 
ATOM     19  C   UNL     1       1.171   2.946  20.910  0.00  0.00    +0.000 C 
ENDBRANCH  15  18
ENDBRANCH  14  15
ENDBRANCH   1  14
TORSDOF 8
ENDMDL
MODEL 5
REMARK VINA RESULT:      -6.2      1.502      2.080
REMARK  Name = 
REMARK  11 active torsions:
REMARK  status: ('A' for Active; 'I' for Inactive)
REMARK    1  A    between atoms: C_1  and  C_2
REMARK    2  A    between atoms: C_2  and  C_3
REMARK    3  A    between atoms: C_3  and  C_4
REMARK    4  A    between atoms: C_3  and  C_6
REMARK    5  A    between atoms: C_4  and  C_5
REMARK    6  A    between atoms: C_6  and  N_7
REMARK    7  A    between atoms: N_7  and  C_8
REMARK    8  A    between atoms: C_8  and  C_9
REMARK    9  A    between atoms: C_10  and  C_12
REMARK   10  A    between atoms: C_14  and  C_15
REMARK   11  A    between atoms: C_15  and  O_16
REMARK                            x       y       z     vdW  Elec       q    Type
REMARK                         _______ _______ _______ _____ _____    ______ ____
ROOT
ATOM      1  N   UNL     1       5.021   5.351  17.980  0.00  0.00    +0.000 N 
ATOM      2  C   UNL     1       6.218   4.763  17.522  0.00  0.00    +0.000 C 
ATOM      3  O   UNL     1       6.925   4.095  18.284  0.00  0.00    +0.000 OA
ENDROOT
BRANCH   2   4
ATOM      4  C   UNL     1       6.617   4.896  16.107  0.00  0.00    +0.000 A 
ATOM      5  C   UNL     1       6.164   4.100  15.017  0.00  0.00    +0.000 A 
ATOM      6  C   UNL     1       6.874   4.556  13.931  0.00  0.00    +0.000 A 
ATOM      7  O   UNL     1       7.663   5.586  14.319  0.00  0.00    +0.000 OA
ATOM      8  N   UNL     1       7.537   5.777  15.675  0.00  0.00    +0.000 NA
BRANCH   6   9
ATOM      9  C   UNL     1       7.010   4.134  12.526  0.00  0.00    +0.000 C 
BRANCH   9  10
ATOM     10  O   UNL     1       6.394   2.855  12.415  0.00  0.00    +0.000 OA
ATOM     11  H   UNL     1       6.552   2.548  11.503  0.00  0.00    +0.000 HD
ENDBRANCH   9  10
ENDBRANCH   6   9
ENDBRANCH   2   4
BRANCH   1  12
ATOM     12  C   UNL     1       4.134   6.079  17.052  0.00  0.00    +0.000 C 
ATOM     13  C   UNL     1       3.583   7.429  17.466  0.00  0.00    +0.000 C 
ENDBRANCH   1  12
BRANCH   1  14
ATOM     14  C   UNL     1       4.714   5.274  19.423  0.00  0.00    +0.000 C 
BRANCH  14  15
ATOM     15  C   UNL     1       3.637   4.237  19.846  0.00  0.00    +0.000 C 
BRANCH  15  17
ATOM     16  C   UNL     1       1.190   4.247  20.644  0.00  0.00    +0.000 C 
ATOM     17  C   UNL     1       2.204   4.764  19.626  0.00  0.00    +0.000 C 
ENDBRANCH  15  17
BRANCH  15  18
ATOM     18  C   UNL     1       3.883   2.879  19.137  0.00  0.00    +0.000 C 
ATOM     19  C   UNL     1       2.920   2.550  17.999  0.00  0.00    +0.000 C 
ENDBRANCH  15  18
ENDBRANCH  14  15
ENDBRANCH   1  14
TORSDOF 8
ENDMDL
MODEL 6
REMARK VINA RESULT:      -6.2      1.186      1.819
REMARK  Name = 
REMARK  11 active torsions:
REMARK  status: ('A' for Active; 'I' for Inactive)
REMARK    1  A    between atoms: C_1  and  C_2
REMARK    2  A    between atoms: C_2  and  C_3
REMARK    3  A    between atoms: C_3  and  C_4
REMARK    4  A    between atoms: C_3  and  C_6
REMARK    5  A    between atoms: C_4  and  C_5
REMARK    6  A    between atoms: C_6  and  N_7
REMARK    7  A    between atoms: N_7  and  C_8
REMARK    8  A    between atoms: C_8  and  C_9
REMARK    9  A    between atoms: C_10  and  C_12
REMARK   10  A    between atoms: C_14  and  C_15
REMARK   11  A    between atoms: C_15  and  O_16
REMARK                            x       y       z     vdW  Elec       q    Type
REMARK                         _______ _______ _______ _____ _____    ______ ____
ROOT
ATOM      1  N   UNL     1       3.963   5.158  18.646  0.00  0.00    +0.000 N 
ATOM      2  C   UNL     1       5.230   4.592  18.398  0.00  0.00    +0.000 C 
ATOM      3  O   UNL     1       5.757   3.837  19.223  0.00  0.00    +0.000 OA
ENDROOT
BRANCH   2   4
ATOM      4  C   UNL     1       5.925   4.856  17.123  0.00  0.00    +0.000 A 
ATOM      5  C   UNL     1       5.692   4.206  15.878  0.00  0.00    +0.000 A 
ATOM      6  C   UNL     1       6.629   4.738  15.024  0.00  0.00    +0.000 A 
ATOM      7  O   UNL     1       7.347   5.678  15.684  0.00  0.00    +0.000 OA
ATOM      8  N   UNL     1       6.941   5.728  16.997  0.00  0.00    +0.000 NA
BRANCH   6   9
ATOM      9  C   UNL     1       7.048   4.463  13.638  0.00  0.00    +0.000 C 
BRANCH   9  10
ATOM     10  O   UNL     1       6.352   3.295  13.217  0.00  0.00    +0.000 OA
ATOM     11  H   UNL     1       6.423   3.263  12.246  0.00  0.00    +0.000 HD
ENDBRANCH   9  10
ENDBRANCH   6   9
ENDBRANCH   2   4
BRANCH   1  12
ATOM     12  C   UNL     1       3.296   5.993  17.629  0.00  0.00    +0.000 C 
ATOM     13  C   UNL     1       3.544   7.489  17.625  0.00  0.00    +0.000 C 
ENDBRANCH   1  12
BRANCH   1  14
ATOM     14  C   UNL     1       3.352   4.946  19.975  0.00  0.00    +0.000 C 
BRANCH  14  15
ATOM     15  C   UNL     1       1.820   5.181  20.076  0.00  0.00    +0.000 C 
BRANCH  15  17
ATOM     16  C   UNL     1       1.709   3.019  21.468  0.00  0.00    +0.000 C 
ATOM     17  C   UNL     1       1.052   3.880  20.392  0.00  0.00    +0.000 C 
ENDBRANCH  15  17
BRANCH  15  18
ATOM     18  C   UNL     1       1.509   6.311  21.093  0.00  0.00    +0.000 C 
ATOM     19  C   UNL     1       1.576   7.730  20.536  0.00  0.00    +0.000 C 
ENDBRANCH  15  18
ENDBRANCH  14  15
ENDBRANCH   1  14
TORSDOF 8
ENDMDL
MODEL 7
REMARK VINA RESULT:      -6.2      1.319      2.344
REMARK  Name = 
REMARK  11 active torsions:
REMARK  status: ('A' for Active; 'I' for Inactive)
REMARK    1  A    between atoms: C_1  and  C_2
REMARK    2  A    between atoms: C_2  and  C_3
REMARK    3  A    between atoms: C_3  and  C_4
REMARK    4  A    between atoms: C_3  and  C_6
REMARK    5  A    between atoms: C_4  and  C_5
REMARK    6  A    between atoms: C_6  and  N_7
REMARK    7  A    between atoms: N_7  and  C_8
REMARK    8  A    between atoms: C_8  and  C_9
REMARK    9  A    between atoms: C_10  and  C_12
REMARK   10  A    between atoms: C_14  and  C_15
REMARK   11  A    between atoms: C_15  and  O_16
REMARK                            x       y       z     vdW  Elec       q    Type
REMARK                         _______ _______ _______ _____ _____    ______ ____
ROOT
ATOM      1  N   UNL     1       3.791   4.210  18.412  0.00  0.00    +0.000 N 
ATOM      2  C   UNL     1       4.930   4.999  18.152  0.00  0.00    +0.000 C 
ATOM      3  O   UNL     1       5.563   5.518  19.077  0.00  0.00    +0.000 OA
ENDROOT
BRANCH   2   4
ATOM      4  C   UNL     1       5.410   5.176  16.767  0.00  0.00    +0.000 A 
ATOM      5  C   UNL     1       6.045   4.194  15.956  0.00  0.00    +0.000 A 
ATOM      6  C   UNL     1       6.370   4.855  14.794  0.00  0.00    +0.000 A 
ATOM      7  O   UNL     1       5.922   6.131  14.871  0.00  0.00    +0.000 OA
ATOM      8  N   UNL     1       5.360   6.348  16.107  0.00  0.00    +0.000 NA
BRANCH   6   9
ATOM      9  C   UNL     1       7.130   4.511  13.580  0.00  0.00    +0.000 C 
BRANCH   9  10
ATOM     10  O   UNL     1       7.976   5.620  13.291  0.00  0.00    +0.000 OA
ATOM     11  H   UNL     1       7.497   6.177  12.651  0.00  0.00    +0.000 HD
ENDBRANCH   9  10
ENDBRANCH   6   9
ENDBRANCH   2   4
BRANCH   1  12
ATOM     12  C   UNL     1       3.082   3.522  17.316  0.00  0.00    +0.000 C 
ATOM     13  C   UNL     1       2.631   2.088  17.515  0.00  0.00    +0.000 C 
ENDBRANCH   1  12
BRANCH   1  14
ATOM     14  C   UNL     1       3.291   4.143  19.801  0.00  0.00    +0.000 C 
BRANCH  14  15
ATOM     15  C   UNL     1       1.824   4.602  20.030  0.00  0.00    +0.000 C 
BRANCH  15  17
ATOM     16  C   UNL     1       1.769   2.667  21.726  0.00  0.00    +0.000 C 
ATOM     17  C   UNL     1       0.980   3.520  20.736  0.00  0.00    +0.000 C 
ENDBRANCH  15  17
BRANCH  15  18
ATOM     18  C   UNL     1       1.791   5.960  20.780  0.00  0.00    +0.000 C 
ATOM     19  C   UNL     1       2.094   7.188  19.926  0.00  0.00    +0.000 C 
ENDBRANCH  15  18
ENDBRANCH  14  15
ENDBRANCH   1  14
TORSDOF 8
ENDMDL
MODEL 8
REMARK VINA RESULT:      -6.1      1.683      2.863
REMARK  Name = 
REMARK  11 active torsions:
REMARK  status: ('A' for Active; 'I' for Inactive)
REMARK    1  A    between atoms: C_1  and  C_2
REMARK    2  A    between atoms: C_2  and  C_3
REMARK    3  A    between atoms: C_3  and  C_4
REMARK    4  A    between atoms: C_3  and  C_6
REMARK    5  A    between atoms: C_4  and  C_5
REMARK    6  A    between atoms: C_6  and  N_7
REMARK    7  A    between atoms: N_7  and  C_8
REMARK    8  A    between atoms: C_8  and  C_9
REMARK    9  A    between atoms: C_10  and  C_12
REMARK   10  A    between atoms: C_14  and  C_15
REMARK   11  A    between atoms: C_15  and  O_16
REMARK                            x       y       z     vdW  Elec       q    Type
REMARK                         _______ _______ _______ _____ _____    ______ ____
ROOT
ATOM      1  N   UNL     1       4.842   5.181  18.238  0.00  0.00    +0.000 N 
ATOM      2  C   UNL     1       5.486   6.027  17.313  0.00  0.00    +0.000 C 
ATOM      3  O   UNL     1       5.615   7.235  17.545  0.00  0.00    +0.000 OA
ENDROOT
BRANCH   2   4
ATOM      4  C   UNL     1       6.063   5.470  16.073  0.00  0.00    +0.000 A 
ATOM      5  C   UNL     1       5.348   4.874  14.997  0.00  0.00    +0.000 A 
ATOM      6  C   UNL     1       6.321   4.445  14.124  0.00  0.00    +0.000 A 
ATOM      7  O   UNL     1       7.536   4.799  14.608  0.00  0.00    +0.000 OA
ATOM      8  N   UNL     1       7.386   5.400  15.836  0.00  0.00    +0.000 NA
BRANCH   6   9
ATOM      9  C   UNL     1       6.328   3.657  12.880  0.00  0.00    +0.000 C 
BRANCH   9  10
ATOM     10  O   UNL     1       7.233   4.299  11.986  0.00  0.00    +0.000 OA
ATOM     11  H   UNL     1       6.698   4.888  11.424  0.00  0.00    +0.000 HD
ENDBRANCH   9  10
ENDBRANCH   6   9
ENDBRANCH   2   4
BRANCH   1  12
ATOM     12  C   UNL     1       4.761   3.726  18.002  0.00  0.00    +0.000 C 
ATOM     13  C   UNL     1       3.476   3.140  17.450  0.00  0.00    +0.000 C 
ENDBRANCH   1  12
BRANCH   1  14
ATOM     14  C   UNL     1       4.195   5.797  19.415  0.00  0.00    +0.000 C 
BRANCH  14  15
ATOM     15  C   UNL     1       2.653   5.974  19.342  0.00  0.00    +0.000 C 
BRANCH  15  17
ATOM     16  C   UNL     1       1.101   4.061  20.087  0.00  0.00    +0.000 C 
ATOM     17  C   UNL     1       1.931   5.270  20.511  0.00  0.00    +0.000 C 
ENDBRANCH  15  17
BRANCH  15  18
ATOM     18  C   UNL     1       2.282   7.477  19.239  0.00  0.00    +0.000 C 
ATOM     19  C   UNL     1       2.371   8.079  17.839  0.00  0.00    +0.000 C 
ENDBRANCH  15  18
ENDBRANCH  14  15
ENDBRANCH   1  14
TORSDOF 8
ENDMDL
MODEL 9
REMARK VINA RESULT:      -6.0      1.583      2.501
REMARK  Name = 
REMARK  11 active torsions:
REMARK  status: ('A' for Active; 'I' for Inactive)
REMARK    1  A    between atoms: C_1  and  C_2
REMARK    2  A    between atoms: C_2  and  C_3
REMARK    3  A    between atoms: C_3  and  C_4
REMARK    4  A    between atoms: C_3  and  C_6
REMARK    5  A    between atoms: C_4  and  C_5
REMARK    6  A    between atoms: C_6  and  N_7
REMARK    7  A    between atoms: N_7  and  C_8
REMARK    8  A    between atoms: C_8  and  C_9
REMARK    9  A    between atoms: C_10  and  C_12
REMARK   10  A    between atoms: C_14  and  C_15
REMARK   11  A    between atoms: C_15  and  O_16
REMARK                            x       y       z     vdW  Elec       q    Type
REMARK                         _______ _______ _______ _____ _____    ______ ____
ROOT
ATOM      1  N   UNL     1       3.901   4.214  18.549  0.00  0.00    +0.000 N 
ATOM      2  C   UNL     1       5.134   4.746  18.121  0.00  0.00    +0.000 C 
ATOM      3  O   UNL     1       5.997   5.078  18.940  0.00  0.00    +0.000 OA
ENDROOT
BRANCH   2   4
ATOM      4  C   UNL     1       5.430   4.866  16.679  0.00  0.00    +0.000 A 
ATOM      5  C   UNL     1       5.884   3.830  15.815  0.00  0.00    +0.000 A 
ATOM      6  C   UNL     1       6.088   4.448  14.604  0.00  0.00    +0.000 A 
ATOM      7  O   UNL     1       5.736   5.752  14.707  0.00  0.00    +0.000 OA
ATOM      8  N   UNL     1       5.364   6.027  16.003  0.00  0.00    +0.000 NA
BRANCH   6   9
ATOM      9  C   UNL     1       6.651   4.034  13.307  0.00  0.00    +0.000 C 
BRANCH   9  10
ATOM     10  O   UNL     1       5.580   3.489  12.544  0.00  0.00    +0.000 OA
ATOM     11  H   UNL     1       5.356   2.632  12.950  0.00  0.00    +0.000 HD
ENDBRANCH   9  10
ENDBRANCH   6   9
ENDBRANCH   2   4
BRANCH   1  12
ATOM     12  C   UNL     1       2.902   3.740  17.572  0.00  0.00    +0.000 C 
ATOM     13  C   UNL     1       2.475   2.286  17.600  0.00  0.00    +0.000 C 
ENDBRANCH   1  12
BRANCH   1  14
ATOM     14  C   UNL     1       3.610   4.205  19.998  0.00  0.00    +0.000 C 
BRANCH  14  15
ATOM     15  C   UNL     1       2.459   5.131  20.478  0.00  0.00    +0.000 C 
BRANCH  15  17
ATOM     16  C   UNL     1       1.797   7.617  20.394  0.00  0.00    +0.000 C 
ATOM     17  C   UNL     1       2.356   6.417  19.632  0.00  0.00    +0.000 C 
ENDBRANCH  15  17
BRANCH  15  18
ATOM     18  C   UNL     1       1.119   4.350  20.529  0.00  0.00    +0.000 C 
ATOM     19  C   UNL     1       1.208   2.932  21.086  0.00  0.00    +0.000 C 
ENDBRANCH  15  18
ENDBRANCH  14  15
ENDBRANCH   1  14
TORSDOF 8
ENDMDL
