MODEL 1
REMARK VINA RESULT:      -7.9      0.000      0.000
REMARK  Name = 
REMARK  7 active torsions:
REMARK  status: ('A' for Active; 'I' for Inactive)
REMARK    1  A    between atoms: C_1  and  C_2
REMARK    2  A    between atoms: C_7  and  N_8
REMARK    3  A    between atoms: C_12  and  C_14
REMARK    4  A    between atoms: C_14  and  C_15
REMARK    5  A    between atoms: C_14  and  S_16
REMARK    6  A    between atoms: S_16  and  C_19
REMARK    7  A    between atoms: C_22  and  C_23
REMARK                            x       y       z     vdW  Elec       q    Type
REMARK                         _______ _______ _______ _____ _____    ______ ____
ROOT
ATOM      1  N   UNL     1       1.957   6.621  19.659  0.00  0.00    +0.000 N 
ATOM      2  C   UNL     1       2.791   7.201  18.589  0.00  0.00    +0.000 C 
ATOM      3  C   UNL     1       2.035   8.400  17.946  0.00  0.00    +0.000 C 
ATOM      4  N   UNL     1       1.463   9.329  18.948  0.00  0.00    +0.000 N 
ATOM      5  C   UNL     1       1.662  10.697  18.826  0.00  0.00    +0.000 C 
ATOM      6  O   UNL     1       2.323  11.150  17.889  0.00  0.00    +0.000 OA
ATOM      7  C   UNL     1       0.697   8.649  20.011  0.00  0.00    +0.000 C 
ATOM      8  C   UNL     1       1.594   7.606  20.689  0.00  0.00    +0.000 C 
ENDROOT
BRANCH   1  15
ATOM      9  C   UNL     1       1.440   4.584  17.564  0.00  0.00    +0.000 C 
ATOM     10  C   UNL     1       1.665   4.274  19.024  0.00  0.00    +0.000 A 
ATOM     11  C   UNL     1       1.640   2.916  19.399  0.00  0.00    +0.000 A 
ATOM     12  C   UNL     1       1.954   2.526  20.693  0.00  0.00    +0.000 A 
ATOM     13  C   UNL     1       2.295   3.489  21.633  0.00  0.00    +0.000 A 
ATOM     14  C   UNL     1       2.294   4.844  21.283  0.00  0.00    +0.000 A 
ATOM     15  C   UNL     1       1.958   5.276  19.987  0.00  0.00    +0.000 A 
ENDBRANCH   1  15
BRANCH   5  16
ATOM     16  C   UNL     1       1.063  11.633  19.857  0.00  0.00    +0.000 C 
ATOM     17  C   UNL     1       1.999  12.785  20.201  0.00  0.00    +0.000 C 
BRANCH  16  18
ATOM     18  S   UNL     1      -0.529  12.163  19.281  0.00  0.00    +0.000 S 
ATOM     19  O   UNL     1      -0.364  13.501  18.727  0.00  0.00    +0.000 OA
ATOM     20  O   UNL     1      -1.088  11.129  18.427  0.00  0.00    +0.000 OA
BRANCH  18  21
ATOM     21  C   UNL     1      -1.583  12.314  20.709  0.00  0.00    +0.000 A 
ATOM     22  C   UNL     1      -1.236  11.726  21.915  0.00  0.00    +0.000 A 
ATOM     23  C   UNL     1      -2.114  11.887  22.984  0.00  0.00    +0.000 A 
ATOM     24  C   UNL     1      -3.297  12.620  22.810  0.00  0.00    +0.000 A 
ATOM     25  C   UNL     1      -3.539  13.172  21.557  0.00  0.00    +0.000 A 
ATOM     26  N   UNL     1      -2.706  13.047  20.502  0.00  0.00    +0.000 NA
BRANCH  24  27
ATOM     27  C   UNL     1      -4.290  12.822  23.912  0.00  0.00    +0.000 C 
ATOM     28  F   UNL     1      -4.102  13.981  24.604  0.00  0.00    +0.000 F 
ATOM     29  F   UNL     1      -5.571  12.864  23.456  0.00  0.00    +0.000 F 
ATOM     30  F   UNL     1      -4.255  11.826  24.838  0.00  0.00    +0.000 F 
ENDBRANCH  24  27
ENDBRANCH  18  21
ENDBRANCH  16  18
ENDBRANCH   5  16
TORSDOF 5
ENDMDL
MODEL 2
REMARK VINA RESULT:      -7.9      1.897      2.900
REMARK  Name = 
REMARK  7 active torsions:
REMARK  status: ('A' for Active; 'I' for Inactive)
REMARK    1  A    between atoms: C_1  and  C_2
REMARK    2  A    between atoms: C_7  and  N_8
REMARK    3  A    between atoms: C_12  and  C_14
REMARK    4  A    between atoms: C_14  and  C_15
REMARK    5  A    between atoms: C_14  and  S_16
REMARK    6  A    between atoms: S_16  and  C_19
REMARK    7  A    between atoms: C_22  and  C_23
REMARK                            x       y       z     vdW  Elec       q    Type
REMARK                         _______ _______ _______ _____ _____    ______ ____
ROOT
ATOM      1  N   UNL     1       2.896   6.902  18.362  0.00  0.00    +0.000 N 
ATOM      2  C   UNL     1       2.168   6.481  19.574  0.00  0.00    +0.000 C 
ATOM      3  C   UNL     1       1.903   7.727  20.469  0.00  0.00    +0.000 C 
ATOM      4  N   UNL     1       1.364   8.880  19.712  0.00  0.00    +0.000 N 
ATOM      5  C   UNL     1       0.253   9.565  20.181  0.00  0.00    +0.000 C 
ATOM      6  O   UNL     1      -0.300   9.215  21.227  0.00  0.00    +0.000 OA
ATOM      7  C   UNL     1       2.124   9.186  18.484  0.00  0.00    +0.000 C 
ATOM      8  C   UNL     1       2.176   7.934  17.599  0.00  0.00    +0.000 C 
ENDROOT
BRANCH   1  15
ATOM      9  C   UNL     1       2.174   4.128  17.596  0.00  0.00    +0.000 C 
ATOM     10  C   UNL     1       3.528   4.756  17.368  0.00  0.00    +0.000 A 
ATOM     11  C   UNL     1       4.501   3.958  16.733  0.00  0.00    +0.000 A 
ATOM     12  C   UNL     1       5.734   4.486  16.374  0.00  0.00    +0.000 A 
ATOM     13  C   UNL     1       6.013   5.817  16.650  0.00  0.00    +0.000 A 
ATOM     14  C   UNL     1       5.068   6.612  17.308  0.00  0.00    +0.000 A 
ATOM     15  C   UNL     1       3.818   6.104  17.706  0.00  0.00    +0.000 A 
ENDBRANCH   1  15
BRANCH   5  16
ATOM     16  C   UNL     1      -0.280  10.748  19.397  0.00  0.00    +0.000 C 
ATOM     17  C   UNL     1      -1.726  10.545  18.962  0.00  0.00    +0.000 C 
BRANCH  16  18
ATOM     18  S   UNL     1      -0.030  12.220  20.355  0.00  0.00    +0.000 S 
ATOM     19  O   UNL     1       1.140  11.996  21.196  0.00  0.00    +0.000 OA
ATOM     20  O   UNL     1      -0.024  13.367  19.462  0.00  0.00    +0.000 OA
BRANCH  18  21
ATOM     21  C   UNL     1      -1.432  12.387  21.441  0.00  0.00    +0.000 A 
ATOM     22  C   UNL     1      -1.445  11.775  22.684  0.00  0.00    +0.000 A 
ATOM     23  C   UNL     1      -2.579  11.951  23.473  0.00  0.00    +0.000 A 
ATOM     24  C   UNL     1      -3.648  12.721  22.996  0.00  0.00    +0.000 A 
ATOM     25  C   UNL     1      -3.522  13.296  21.736  0.00  0.00    +0.000 A 
ATOM     26  N   UNL     1      -2.434  13.157  20.948  0.00  0.00    +0.000 NA
BRANCH  24  27
ATOM     27  C   UNL     1      -4.900  12.942  23.787  0.00  0.00    +0.000 C 
ATOM     28  F   UNL     1      -4.931  12.244  24.957  0.00  0.00    +0.000 F 
ATOM     29  F   UNL     1      -5.077  14.247  24.128  0.00  0.00    +0.000 F 
ATOM     30  F   UNL     1      -6.020  12.579  23.107  0.00  0.00    +0.000 F 
ENDBRANCH  24  27
ENDBRANCH  18  21
ENDBRANCH  16  18
ENDBRANCH   5  16
TORSDOF 5
ENDMDL
MODEL 3
REMARK VINA RESULT:      -7.8      0.809      1.236
REMARK  Name = 
REMARK  7 active torsions:
REMARK  status: ('A' for Active; 'I' for Inactive)
REMARK    1  A    between atoms: C_1  and  C_2
REMARK    2  A    between atoms: C_7  and  N_8
REMARK    3  A    between atoms: C_12  and  C_14
REMARK    4  A    between atoms: C_14  and  C_15
REMARK    5  A    between atoms: C_14  and  S_16
REMARK    6  A    between atoms: S_16  and  C_19
REMARK    7  A    between atoms: C_22  and  C_23
REMARK                            x       y       z     vdW  Elec       q    Type
REMARK                         _______ _______ _______ _____ _____    ______ ____
ROOT
ATOM      1  N   UNL     1       2.141   6.667  19.578  0.00  0.00    +0.000 N 
ATOM      2  C   UNL     1       2.855   7.299  18.451  0.00  0.00    +0.000 C 
ATOM      3  C   UNL     1       1.981   8.451  17.875  0.00  0.00    +0.000 C 
ATOM      4  N   UNL     1       1.432   9.341  18.924  0.00  0.00    +0.000 N 
ATOM      5  C   UNL     1       1.537  10.718  18.795  0.00  0.00    +0.000 C 
ATOM      6  O   UNL     1       2.096  11.212  17.813  0.00  0.00    +0.000 OA
ATOM      7  C   UNL     1       0.792   8.614  20.037  0.00  0.00    +0.000 C 
ATOM      8  C   UNL     1       1.799   7.627  20.639  0.00  0.00    +0.000 C 
ENDROOT
BRANCH   1  15
ATOM      9  C   UNL     1       4.755   5.288  19.314  0.00  0.00    +0.000 C 
ATOM     10  C   UNL     1       3.471   4.617  19.735  0.00  0.00    +0.000 A 
ATOM     11  C   UNL     1       3.539   3.242  20.035  0.00  0.00    +0.000 A 
ATOM     12  C   UNL     1       2.439   2.567  20.545  0.00  0.00    +0.000 A 
ATOM     13  C   UNL     1       1.253   3.256  20.758  0.00  0.00    +0.000 A 
ATOM     14  C   UNL     1       1.162   4.614  20.436  0.00  0.00    +0.000 A 
ATOM     15  C   UNL     1       2.250   5.324  19.897  0.00  0.00    +0.000 A 
ENDBRANCH   1  15
BRANCH   5  16
ATOM     16  C   UNL     1       0.962  11.614  19.875  0.00  0.00    +0.000 C 
ATOM     17  C   UNL     1       1.877  12.790  20.194  0.00  0.00    +0.000 C 
BRANCH  16  18
ATOM     18  S   UNL     1      -0.674  12.102  19.392  0.00  0.00    +0.000 S 
ATOM     19  O   UNL     1      -0.567  13.416  18.768  0.00  0.00    +0.000 OA
ATOM     20  O   UNL     1      -1.278  11.026  18.626  0.00  0.00    +0.000 OA
BRANCH  18  21
ATOM     21  C   UNL     1      -1.625  12.306  20.884  0.00  0.00    +0.000 A 
ATOM     22  C   UNL     1      -1.184  11.777  22.087  0.00  0.00    +0.000 A 
ATOM     23  C   UNL     1      -1.987  11.977  23.207  0.00  0.00    +0.000 A 
ATOM     24  C   UNL     1      -3.188  12.688  23.087  0.00  0.00    +0.000 A 
ATOM     25  C   UNL     1      -3.527  13.181  21.831  0.00  0.00    +0.000 A 
ATOM     26  N   UNL     1      -2.770  13.017  20.725  0.00  0.00    +0.000 NA
BRANCH  24  27
ATOM     27  C   UNL     1      -4.103  12.930  24.248  0.00  0.00    +0.000 C 
ATOM     28  F   UNL     1      -4.521  11.784  24.855  0.00  0.00    +0.000 F 
ATOM     29  F   UNL     1      -3.518  13.676  25.224  0.00  0.00    +0.000 F 
ATOM     30  F   UNL     1      -5.234  13.598  23.893  0.00  0.00    +0.000 F 
ENDBRANCH  24  27
ENDBRANCH  18  21
ENDBRANCH  16  18
ENDBRANCH   5  16
TORSDOF 5
ENDMDL
MODEL 4
REMARK VINA RESULT:      -7.8      1.903      2.938
REMARK  Name = 
REMARK  7 active torsions:
REMARK  status: ('A' for Active; 'I' for Inactive)
REMARK    1  A    between atoms: C_1  and  C_2
REMARK    2  A    between atoms: C_7  and  N_8
REMARK    3  A    between atoms: C_12  and  C_14
REMARK    4  A    between atoms: C_14  and  C_15
REMARK    5  A    between atoms: C_14  and  S_16
REMARK    6  A    between atoms: S_16  and  C_19
REMARK    7  A    between atoms: C_22  and  C_23
REMARK                            x       y       z     vdW  Elec       q    Type
REMARK                         _______ _______ _______ _____ _____    ______ ____
ROOT
ATOM      1  N   UNL     1       2.917   6.921  18.355  0.00  0.00    +0.000 N 
ATOM      2  C   UNL     1       2.210   6.624  19.616  0.00  0.00    +0.000 C 
ATOM      3  C   UNL     1       1.902   7.960  20.354  0.00  0.00    +0.000 C 
ATOM      4  N   UNL     1       1.315   8.990  19.465  0.00  0.00    +0.000 N 
ATOM      5  C   UNL     1       0.181   9.686  19.857  0.00  0.00    +0.000 C 
ATOM      6  O   UNL     1      -0.354   9.446  20.942  0.00  0.00    +0.000 OA
ATOM      7  C   UNL     1       2.058   9.171  18.202  0.00  0.00    +0.000 C 
ATOM      8  C   UNL     1       2.154   7.823  17.478  0.00  0.00    +0.000 C 
ENDROOT
BRANCH   1  15
ATOM      9  C   UNL     1       2.189   4.140  17.618  0.00  0.00    +0.000 C 
ATOM     10  C   UNL     1       3.570   4.732  17.474  0.00  0.00    +0.000 A 
ATOM     11  C   UNL     1       4.569   3.895  16.938  0.00  0.00    +0.000 A 
ATOM     12  C   UNL     1       5.837   4.385  16.657  0.00  0.00    +0.000 A 
ATOM     13  C   UNL     1       6.126   5.718  16.914  0.00  0.00    +0.000 A 
ATOM     14  C   UNL     1       5.153   6.552  17.476  0.00  0.00    +0.000 A 
ATOM     15  C   UNL     1       3.866   6.083  17.793  0.00  0.00    +0.000 A 
ENDBRANCH   1  15
BRANCH   5  16
ATOM     16  C   UNL     1      -0.402  10.742  18.938  0.00  0.00    +0.000 C 
ATOM     17  C   UNL     1      -1.864  10.472  18.605  0.00  0.00    +0.000 C 
BRANCH  16  18
ATOM     18  S   UNL     1      -0.125  12.337  19.665  0.00  0.00    +0.000 S 
ATOM     19  O   UNL     1       1.171  12.290  20.330  0.00  0.00    +0.000 OA
ATOM     20  O   UNL     1      -0.342  13.358  18.653  0.00  0.00    +0.000 OA
BRANCH  18  21
ATOM     21  C   UNL     1      -1.357  12.560  20.932  0.00  0.00    +0.000 A 
ATOM     22  C   UNL     1      -2.640  12.975  20.612  0.00  0.00    +0.000 A 
ATOM     23  C   UNL     1      -3.544  13.128  21.660  0.00  0.00    +0.000 A 
ATOM     24  C   UNL     1      -3.137  12.867  22.976  0.00  0.00    +0.000 A 
ATOM     25  C   UNL     1      -1.827  12.449  23.179  0.00  0.00    +0.000 A 
ATOM     26  N   UNL     1      -0.926  12.278  22.188  0.00  0.00    +0.000 NA
BRANCH  24  27
ATOM     27  C   UNL     1      -4.054  13.023  24.149  0.00  0.00    +0.000 C 
ATOM     28  F   UNL     1      -5.292  13.483  23.812  0.00  0.00    +0.000 F 
ATOM     29  F   UNL     1      -4.260  11.850  24.808  0.00  0.00    +0.000 F 
ATOM     30  F   UNL     1      -3.574  13.893  25.078  0.00  0.00    +0.000 F 
ENDBRANCH  24  27
ENDBRANCH  18  21
ENDBRANCH  16  18
ENDBRANCH   5  16
TORSDOF 5
ENDMDL
MODEL 5
REMARK VINA RESULT:      -7.7      0.535      1.167
REMARK  Name = 
REMARK  7 active torsions:
REMARK  status: ('A' for Active; 'I' for Inactive)
REMARK    1  A    between atoms: C_1  and  C_2
REMARK    2  A    between atoms: C_7  and  N_8
REMARK    3  A    between atoms: C_12  and  C_14
REMARK    4  A    between atoms: C_14  and  C_15
REMARK    5  A    between atoms: C_14  and  S_16
REMARK    6  A    between atoms: S_16  and  C_19
REMARK    7  A    between atoms: C_22  and  C_23
REMARK                            x       y       z     vdW  Elec       q    Type
REMARK                         _______ _______ _______ _____ _____    ______ ____
ROOT
ATOM      1  N   UNL     1       1.927   6.616  19.697  0.00  0.00    +0.000 N 
ATOM      2  C   UNL     1       2.776   7.222  18.653  0.00  0.00    +0.000 C 
ATOM      3  C   UNL     1       2.012   8.413  18.003  0.00  0.00    +0.000 C 
ATOM      4  N   UNL     1       1.399   9.321  19.000  0.00  0.00    +0.000 N 
ATOM      5  C   UNL     1       1.574  10.693  18.895  0.00  0.00    +0.000 C 
ATOM      6  O   UNL     1       2.248  11.168  17.978  0.00  0.00    +0.000 OA
ATOM      7  C   UNL     1       0.621   8.616  20.038  0.00  0.00    +0.000 C 
ATOM      8  C   UNL     1       1.521   7.584  20.728  0.00  0.00    +0.000 C 
ENDROOT
BRANCH   1  15
ATOM      9  C   UNL     1       1.480   4.590  17.576  0.00  0.00    +0.000 C 
ATOM     10  C   UNL     1       1.688   4.271  19.036  0.00  0.00    +0.000 A 
ATOM     11  C   UNL     1       1.680   2.909  19.398  0.00  0.00    +0.000 A 
ATOM     12  C   UNL     1       1.980   2.512  20.694  0.00  0.00    +0.000 A 
ATOM     13  C   UNL     1       2.288   3.472  21.648  0.00  0.00    +0.000 A 
ATOM     14  C   UNL     1       2.270   4.830  21.310  0.00  0.00    +0.000 A 
ATOM     15  C   UNL     1       1.948   5.268  20.013  0.00  0.00    +0.000 A 
ENDBRANCH   1  15
BRANCH   5  16
ATOM     16  C   UNL     1       0.932  11.607  19.920  0.00  0.00    +0.000 C 
ATOM     17  C   UNL     1       1.862  12.738  20.344  0.00  0.00    +0.000 C 
BRANCH  16  18
ATOM     18  S   UNL     1      -0.622  12.173  19.279  0.00  0.00    +0.000 S 
ATOM     19  O   UNL     1      -0.388  13.472  18.659  0.00  0.00    +0.000 OA
ATOM     20  O   UNL     1      -1.206  11.120  18.465  0.00  0.00    +0.000 OA
BRANCH  18  21
ATOM     21  C   UNL     1      -1.701  12.443  20.671  0.00  0.00    +0.000 A 
ATOM     22  C   UNL     1      -2.825  13.245  20.554  0.00  0.00    +0.000 A 
ATOM     23  C   UNL     1      -3.616  13.408  21.689  0.00  0.00    +0.000 A 
ATOM     24  C   UNL     1      -3.257  12.773  22.886  0.00  0.00    +0.000 A 
ATOM     25  C   UNL     1      -2.111  11.985  22.885  0.00  0.00    +0.000 A 
ATOM     26  N   UNL     1      -1.327  11.794  21.803  0.00  0.00    +0.000 NA
BRANCH  24  27
ATOM     27  C   UNL     1      -4.055  12.915  24.145  0.00  0.00    +0.000 C 
ATOM     28  F   UNL     1      -4.225  11.740  24.814  0.00  0.00    +0.000 F 
ATOM     29  F   UNL     1      -3.478  13.769  25.033  0.00  0.00    +0.000 F 
ATOM     30  F   UNL     1      -5.307  13.399  23.920  0.00  0.00    +0.000 F 
ENDBRANCH  24  27
ENDBRANCH  18  21
ENDBRANCH  16  18
ENDBRANCH   5  16
TORSDOF 5
ENDMDL
MODEL 6
REMARK VINA RESULT:      -7.7      4.508      5.634
REMARK  Name = 
REMARK  7 active torsions:
REMARK  status: ('A' for Active; 'I' for Inactive)
REMARK    1  A    between atoms: C_1  and  C_2
REMARK    2  A    between atoms: C_7  and  N_8
REMARK    3  A    between atoms: C_12  and  C_14
REMARK    4  A    between atoms: C_14  and  C_15
REMARK    5  A    between atoms: C_14  and  S_16
REMARK    6  A    between atoms: S_16  and  C_19
REMARK    7  A    between atoms: C_22  and  C_23
REMARK                            x       y       z     vdW  Elec       q    Type
REMARK                         _______ _______ _______ _____ _____    ______ ____
ROOT
ATOM      1  N   UNL     1       2.801   6.779  18.557  0.00  0.00    +0.000 N 
ATOM      2  C   UNL     1       2.032   6.408  19.760  0.00  0.00    +0.000 C 
ATOM      3  C   UNL     1       1.799   7.679  20.629  0.00  0.00    +0.000 C 
ATOM      4  N   UNL     1       1.322   8.840  19.841  0.00  0.00    +0.000 N 
ATOM      5  C   UNL     1       0.231   9.577  20.276  0.00  0.00    +0.000 C 
ATOM      6  O   UNL     1      -0.357   9.267  21.315  0.00  0.00    +0.000 OA
ATOM      7  C   UNL     1       2.119   9.093  18.625  0.00  0.00    +0.000 C 
ATOM      8  C   UNL     1       2.139   7.825  17.762  0.00  0.00    +0.000 C 
ENDROOT
BRANCH   1  15
ATOM      9  C   UNL     1       1.905   4.133  17.559  0.00  0.00    +0.000 C 
ATOM     10  C   UNL     1       3.324   4.639  17.488  0.00  0.00    +0.000 A 
ATOM     11  C   UNL     1       4.276   3.788  16.891  0.00  0.00    +0.000 A 
ATOM     12  C   UNL     1       5.579   4.215  16.673  0.00  0.00    +0.000 A 
ATOM     13  C   UNL     1       5.951   5.496  17.056  0.00  0.00    +0.000 A 
ATOM     14  C   UNL     1       5.025   6.340  17.678  0.00  0.00    +0.000 A 
ATOM     15  C   UNL     1       3.704   5.933  17.934  0.00  0.00    +0.000 A 
ENDBRANCH   1  15
BRANCH   5  16
ATOM     16  C   UNL     1      -0.239  10.766  19.461  0.00  0.00    +0.000 C 
ATOM     17  C   UNL     1      -1.622  10.543  18.862  0.00  0.00    +0.000 C 
BRANCH  16  18
ATOM     18  S   UNL     1      -0.131  12.221  20.471  0.00  0.00    +0.000 S 
ATOM     19  O   UNL     1      -1.451  12.839  20.480  0.00  0.00    +0.000 OA
ATOM     20  O   UNL     1       0.469  11.864  21.745  0.00  0.00    +0.000 OA
BRANCH  18  21
ATOM     21  C   UNL     1       0.973  13.352  19.649  0.00  0.00    +0.000 A 
ATOM     22  C   UNL     1       0.860  14.720  19.840  0.00  0.00    +0.000 A 
ATOM     23  C   UNL     1       1.759  15.538  19.160  0.00  0.00    +0.000 A 
ATOM     24  C   UNL     1       2.725  14.967  18.321  0.00  0.00    +0.000 A 
ATOM     25  C   UNL     1       2.751  13.581  18.211  0.00  0.00    +0.000 A 
ATOM     26  N   UNL     1       1.904  12.755  18.863  0.00  0.00    +0.000 NA
BRANCH  24  27
ATOM     27  C   UNL     1       3.714  15.788  17.553  0.00  0.00    +0.000 C 
ATOM     28  F   UNL     1       3.249  16.200  16.340  0.00  0.00    +0.000 F 
ATOM     29  F   UNL     1       4.077  16.919  18.216  0.00  0.00    +0.000 F 
ATOM     30  F   UNL     1       4.869  15.115  17.301  0.00  0.00    +0.000 F 
ENDBRANCH  24  27
ENDBRANCH  18  21
ENDBRANCH  16  18
ENDBRANCH   5  16
TORSDOF 5
ENDMDL
MODEL 7
REMARK VINA RESULT:      -7.6      4.357      5.503
REMARK  Name = 
REMARK  7 active torsions:
REMARK  status: ('A' for Active; 'I' for Inactive)
REMARK    1  A    between atoms: C_1  and  C_2
REMARK    2  A    between atoms: C_7  and  N_8
REMARK    3  A    between atoms: C_12  and  C_14
REMARK    4  A    between atoms: C_14  and  C_15
REMARK    5  A    between atoms: C_14  and  S_16
REMARK    6  A    between atoms: S_16  and  C_19
REMARK    7  A    between atoms: C_22  and  C_23
REMARK                            x       y       z     vdW  Elec       q    Type
REMARK                         _______ _______ _______ _____ _____    ______ ____
ROOT
ATOM      1  N   UNL     1       2.883   6.740  18.494  0.00  0.00    +0.000 N 
ATOM      2  C   UNL     1       2.124   6.334  19.692  0.00  0.00    +0.000 C 
ATOM      3  C   UNL     1       1.869   7.585  20.583  0.00  0.00    +0.000 C 
ATOM      4  N   UNL     1       1.367   8.749  19.816  0.00  0.00    +0.000 N 
ATOM      5  C   UNL     1       0.263   9.457  20.266  0.00  0.00    +0.000 C 
ATOM      6  O   UNL     1      -0.317   9.118  21.300  0.00  0.00    +0.000 OA
ATOM      7  C   UNL     1       2.157   9.039  18.603  0.00  0.00    +0.000 C 
ATOM      8  C   UNL     1       2.199   7.787  17.719  0.00  0.00    +0.000 C 
ENDROOT
BRANCH   1  15
ATOM      9  C   UNL     1       2.072   4.039  17.574  0.00  0.00    +0.000 C 
ATOM     10  C   UNL     1       3.464   4.605  17.446  0.00  0.00    +0.000 A 
ATOM     11  C   UNL     1       4.431   3.786  16.830  0.00  0.00    +0.000 A 
ATOM     12  C   UNL     1       5.706   4.264  16.560  0.00  0.00    +0.000 A 
ATOM     13  C   UNL     1       6.034   5.568  16.906  0.00  0.00    +0.000 A 
ATOM     14  C   UNL     1       5.093   6.383  17.546  0.00  0.00    +0.000 A 
ATOM     15  C   UNL     1       3.801   5.923  17.855  0.00  0.00    +0.000 A 
ENDBRANCH   1  15
BRANCH   5  16
ATOM     16  C   UNL     1      -0.232  10.651  19.472  0.00  0.00    +0.000 C 
ATOM     17  C   UNL     1      -1.628  10.427  18.906  0.00  0.00    +0.000 C 
BRANCH  16  18
ATOM     18  S   UNL     1      -0.106  12.098  20.491  0.00  0.00    +0.000 S 
ATOM     19  O   UNL     1      -1.442  12.673  20.593  0.00  0.00    +0.000 OA
ATOM     20  O   UNL     1       0.587  11.748  21.720  0.00  0.00    +0.000 OA
BRANCH  18  21
ATOM     21  C   UNL     1       0.906  13.273  19.616  0.00  0.00    +0.000 A 
ATOM     22  C   UNL     1       1.977  12.854  18.843  0.00  0.00    +0.000 A 
ATOM     23  C   UNL     1       2.721  13.835  18.192  0.00  0.00    +0.000 A 
ATOM     24  C   UNL     1       2.373  15.185  18.337  0.00  0.00    +0.000 A 
ATOM     25  C   UNL     1       1.273  15.490  19.132  0.00  0.00    +0.000 A 
ATOM     26  N   UNL     1       0.522  14.566  19.768  0.00  0.00    +0.000 NA
BRANCH  24  27
ATOM     27  C   UNL     1       3.136  16.290  17.674  0.00  0.00    +0.000 C 
ATOM     28  F   UNL     1       3.940  16.981  18.530  0.00  0.00    +0.000 F 
ATOM     29  F   UNL     1       3.949  15.838  16.682  0.00  0.00    +0.000 F 
ATOM     30  F   UNL     1       2.322  17.216  17.098  0.00  0.00    +0.000 F 
ENDBRANCH  24  27
ENDBRANCH  18  21
ENDBRANCH  16  18
ENDBRANCH   5  16
TORSDOF 5
ENDMDL
MODEL 8
REMARK VINA RESULT:      -7.5      0.938      1.336
REMARK  Name = 
REMARK  7 active torsions:
REMARK  status: ('A' for Active; 'I' for Inactive)
REMARK    1  A    between atoms: C_1  and  C_2
REMARK    2  A    between atoms: C_7  and  N_8
REMARK    3  A    between atoms: C_12  and  C_14
REMARK    4  A    between atoms: C_14  and  C_15
REMARK    5  A    between atoms: C_14  and  S_16
REMARK    6  A    between atoms: S_16  and  C_19
REMARK    7  A    between atoms: C_22  and  C_23
REMARK                            x       y       z     vdW  Elec       q    Type
REMARK                         _______ _______ _______ _____ _____    ______ ____
ROOT
ATOM      1  N   UNL     1       2.149   6.827  19.565  0.00  0.00    +0.000 N 
ATOM      2  C   UNL     1       2.886   7.491  18.472  0.00  0.00    +0.000 C 
ATOM      3  C   UNL     1       2.010   8.640  17.891  0.00  0.00    +0.000 C 
ATOM      4  N   UNL     1       1.416   9.501  18.939  0.00  0.00    +0.000 N 
ATOM      5  C   UNL     1       1.502  10.882  18.839  0.00  0.00    +0.000 C 
ATOM      6  O   UNL     1       2.082  11.403  17.884  0.00  0.00    +0.000 OA
ATOM      7  C   UNL     1       0.755   8.743  20.020  0.00  0.00    +0.000 C 
ATOM      8  C   UNL     1       1.760   7.760  20.633  0.00  0.00    +0.000 C 
ENDROOT
BRANCH   1  15
ATOM      9  C   UNL     1       4.760   5.461  19.215  0.00  0.00    +0.000 C 
ATOM     10  C   UNL     1       3.489   4.780  19.660  0.00  0.00    +0.000 A 
ATOM     11  C   UNL     1       3.569   3.401  19.938  0.00  0.00    +0.000 A 
ATOM     12  C   UNL     1       2.484   2.714  20.466  0.00  0.00    +0.000 A 
ATOM     13  C   UNL     1       1.302   3.396  20.718  0.00  0.00    +0.000 A 
ATOM     14  C   UNL     1       1.199   4.759  20.418  0.00  0.00    +0.000 A 
ATOM     15  C   UNL     1       2.270   5.480  19.862  0.00  0.00    +0.000 A 
ENDBRANCH   1  15
BRANCH   5  16
ATOM     16  C   UNL     1       0.881  11.748  19.918  0.00  0.00    +0.000 C 
ATOM     17  C   UNL     1       1.834  12.834  20.404  0.00  0.00    +0.000 C 
BRANCH  16  18
ATOM     18  S   UNL     1      -0.663  12.381  19.314  0.00  0.00    +0.000 S 
ATOM     19  O   UNL     1      -0.396  13.693  18.738  0.00  0.00    +0.000 OA
ATOM     20  O   UNL     1      -1.286  11.374  18.471  0.00  0.00    +0.000 OA
BRANCH  18  21
ATOM     21  C   UNL     1      -1.718  12.633  20.727  0.00  0.00    +0.000 A 
ATOM     22  C   UNL     1      -2.748  13.558  20.689  0.00  0.00    +0.000 A 
ATOM     23  C   UNL     1      -3.527  13.698  21.835  0.00  0.00    +0.000 A 
ATOM     24  C   UNL     1      -3.248  12.920  22.967  0.00  0.00    +0.000 A 
ATOM     25  C   UNL     1      -2.193  12.017  22.889  0.00  0.00    +0.000 A 
ATOM     26  N   UNL     1      -1.425  11.845  21.793  0.00  0.00    +0.000 NA
BRANCH  24  27
ATOM     27  C   UNL     1      -4.037  13.028  24.235  0.00  0.00    +0.000 C 
ATOM     28  F   UNL     1      -3.437  13.803  25.182  0.00  0.00    +0.000 F 
ATOM     29  F   UNL     1      -5.269  13.571  24.036  0.00  0.00    +0.000 F 
ATOM     30  F   UNL     1      -4.251  11.820  24.823  0.00  0.00    +0.000 F 
ENDBRANCH  24  27
ENDBRANCH  18  21
ENDBRANCH  16  18
ENDBRANCH   5  16
TORSDOF 5
ENDMDL
MODEL 9
REMARK VINA RESULT:      -7.4      2.021      2.992
REMARK  Name = 
REMARK  7 active torsions:
REMARK  status: ('A' for Active; 'I' for Inactive)
REMARK    1  A    between atoms: C_1  and  C_2
REMARK    2  A    between atoms: C_7  and  N_8
REMARK    3  A    between atoms: C_12  and  C_14
REMARK    4  A    between atoms: C_14  and  C_15
REMARK    5  A    between atoms: C_14  and  S_16
REMARK    6  A    between atoms: S_16  and  C_19
REMARK    7  A    between atoms: C_22  and  C_23
REMARK                            x       y       z     vdW  Elec       q    Type
REMARK                         _______ _______ _______ _____ _____    ______ ____
ROOT
ATOM      1  N   UNL     1       2.965   6.542  18.228  0.00  0.00    +0.000 N 
ATOM      2  C   UNL     1       2.262   6.181  19.474  0.00  0.00    +0.000 C 
ATOM      3  C   UNL     1       2.097   7.455  20.353  0.00  0.00    +0.000 C 
ATOM      4  N   UNL     1       1.590   8.621  19.593  0.00  0.00    +0.000 N 
ATOM      5  C   UNL     1       0.535   9.373  20.090  0.00  0.00    +0.000 C 
ATOM      6  O   UNL     1       0.005   9.071  21.162  0.00  0.00    +0.000 OA
ATOM      7  C   UNL     1       2.318   8.864  18.333  0.00  0.00    +0.000 C 
ATOM      8  C   UNL     1       2.272   7.596  17.472  0.00  0.00    +0.000 C 
ENDROOT
BRANCH   1  15
ATOM      9  C   UNL     1       5.655   7.479  17.396  0.00  0.00    +0.000 C 
ATOM     10  C   UNL     1       5.093   6.111  17.096  0.00  0.00    +0.000 A 
ATOM     11  C   UNL     1       5.923   5.224  16.381  0.00  0.00    +0.000 A 
ATOM     12  C   UNL     1       5.541   3.907  16.163  0.00  0.00    +0.000 A 
ATOM     13  C   UNL     1       4.321   3.460  16.651  0.00  0.00    +0.000 A 
ATOM     14  C   UNL     1       3.474   4.338  17.335  0.00  0.00    +0.000 A 
ATOM     15  C   UNL     1       3.819   5.684  17.554  0.00  0.00    +0.000 A 
ENDBRANCH   1  15
BRANCH   5  16
ATOM     16  C   UNL     1       0.035  10.568  19.302  0.00  0.00    +0.000 C 
ATOM     17  C   UNL     1      -1.413  10.398  18.858  0.00  0.00    +0.000 C 
BRANCH  16  18
ATOM     18  S   UNL     1       0.313  12.033  20.262  0.00  0.00    +0.000 S 
ATOM     19  O   UNL     1       1.476  11.784  21.105  0.00  0.00    +0.000 OA
ATOM     20  O   UNL     1       0.344  13.180  19.370  0.00  0.00    +0.000 OA
BRANCH  18  21
ATOM     21  C   UNL     1      -1.088  12.228  21.346  0.00  0.00    +0.000 A 
ATOM     22  C   UNL     1      -1.090  11.668  22.613  0.00  0.00    +0.000 A 
ATOM     23  C   UNL     1      -2.224  11.863  23.398  0.00  0.00    +0.000 A 
ATOM     24  C   UNL     1      -3.304  12.599  22.893  0.00  0.00    +0.000 A 
ATOM     25  C   UNL     1      -3.189  13.121  21.609  0.00  0.00    +0.000 A 
ATOM     26  N   UNL     1      -2.102  12.964  20.824  0.00  0.00    +0.000 NA
BRANCH  24  27
ATOM     27  C   UNL     1      -4.556  12.836  23.678  0.00  0.00    +0.000 C 
ATOM     28  F   UNL     1      -4.633  14.089  24.209  0.00  0.00    +0.000 F 
ATOM     29  F   UNL     1      -5.680  12.683  22.925  0.00  0.00    +0.000 F 
ATOM     30  F   UNL     1      -4.688  11.978  24.726  0.00  0.00    +0.000 F 
ENDBRANCH  24  27
ENDBRANCH  18  21
ENDBRANCH  16  18
ENDBRANCH   5  16
TORSDOF 5
ENDMDL
