MODEL 1
REMARK VINA RESULT:      -8.1      0.000      0.000
REMARK  Name = 
REMARK  7 active torsions:
REMARK  status: ('A' for Active; 'I' for Inactive)
REMARK    1  A    between atoms: C_1  and  C_2
REMARK    2  A    between atoms: C_2  and  C_3
REMARK    3  A    between atoms: C_2  and  C_4
REMARK    4  A    between atoms: C_4  and  C_5
REMARK    5  A    between atoms: C_5  and  C_6
REMARK    6  A    between atoms: C_5  and  N_7
REMARK    7  A    between atoms: C_19  and  C_20
REMARK                            x       y       z     vdW  Elec       q    Type
REMARK                         _______ _______ _______ _____ _____    ______ ____
ROOT
ATOM      1  N   UNL     1       4.991   3.746  18.652  0.00  0.00    +0.000 NA
ATOM      2  C   UNL     1       5.987   4.455  19.494  0.00  0.00    +0.000 C 
ATOM      3  C   UNL     1       7.191   5.160  18.880  0.00  0.00    +0.000 C 
ATOM      4  O   UNL     1       8.237   5.248  19.544  0.00  0.00    +0.000 OA
ATOM      5  N   UNL     1       7.195   5.853  17.715  0.00  0.00    +0.000 N 
ATOM      6  C   UNL     1       6.610   5.455  16.515  0.00  0.00    +0.000 A 
ATOM      7  C   UNL     1       7.384   5.703  15.383  0.00  0.00    +0.000 A 
ATOM      8  C   UNL     1       7.082   5.091  14.166  0.00  0.00    +0.000 A 
ATOM      9  C   UNL     1       5.967   4.274  14.087  0.00  0.00    +0.000 A 
ATOM     10 BR   UNL     1       5.622   3.319  12.492  0.00  0.00    +0.000 Br
ATOM     11  C   UNL     1       5.114   4.131  15.186  0.00  0.00    +0.000 A 
ATOM     12  C   UNL     1       5.407   4.752  16.423  0.00  0.00    +0.000 A 
ATOM     13  C   UNL     1       4.426   4.614  17.586  0.00  0.00    +0.000 C 
ATOM     14  H   UNL     1       8.077   6.344  17.623  0.00  0.00    +0.000 HD
ENDROOT
BRANCH  13  15
ATOM     15  C   UNL     1       3.667   5.898  18.010  0.00  0.00    +0.000 A 
ATOM     16  C   UNL     1       3.004   5.954  19.244  0.00  0.00    +0.000 A 
ATOM     17  C   UNL     1       2.274   7.091  19.639  0.00  0.00    +0.000 A 
ATOM     18  C   UNL     1       2.186   8.193  18.800  0.00  0.00    +0.000 A 
ATOM     19  C   UNL     1       2.848   8.165  17.584  0.00  0.00    +0.000 A 
ATOM     20  C   UNL     1       3.575   7.039  17.197  0.00  0.00    +0.000 A 
ENDBRANCH  13  15
BRANCH   1  21
ATOM     21  C   UNL     1       3.941   3.089  19.518  0.00  0.00    +0.000 C 
ATOM     22  C   UNL     1       4.553   2.175  20.612  0.00  0.00    +0.000 C 
BRANCH  21  23
ATOM     23  C   UNL     1       2.916   2.217  18.713  0.00  0.00    +0.000 C 
BRANCH  23  25
ATOM     24  C   UNL     1       1.119   2.987  20.345  0.00  0.00    +0.000 C 
ATOM     25  C   UNL     1       1.411   2.507  18.922  0.00  0.00    +0.000 C 
ATOM     26  C   UNL     1       0.953   3.592  17.934  0.00  0.00    +0.000 C 
ENDBRANCH  23  25
ENDBRANCH  21  23
ENDBRANCH   1  21
TORSDOF 4
ENDMDL
MODEL 2
REMARK VINA RESULT:      -7.1      1.055      1.357
REMARK  Name = 
REMARK  7 active torsions:
REMARK  status: ('A' for Active; 'I' for Inactive)
REMARK    1  A    between atoms: C_1  and  C_2
REMARK    2  A    between atoms: C_2  and  C_3
REMARK    3  A    between atoms: C_2  and  C_4
REMARK    4  A    between atoms: C_4  and  C_5
REMARK    5  A    between atoms: C_5  and  C_6
REMARK    6  A    between atoms: C_5  and  N_7
REMARK    7  A    between atoms: C_19  and  C_20
REMARK                            x       y       z     vdW  Elec       q    Type
REMARK                         _______ _______ _______ _____ _____    ______ ____
ROOT
ATOM      1  N   UNL     1       5.045   3.497  18.075  0.00  0.00    +0.000 NA
ATOM      2  C   UNL     1       6.019   4.236  18.915  0.00  0.00    +0.000 C 
ATOM      3  C   UNL     1       7.226   4.938  18.305  0.00  0.00    +0.000 C 
ATOM      4  O   UNL     1       8.260   5.053  18.983  0.00  0.00    +0.000 OA
ATOM      5  N   UNL     1       7.244   5.602  17.123  0.00  0.00    +0.000 N 
ATOM      6  C   UNL     1       6.683   5.170  15.924  0.00  0.00    +0.000 A 
ATOM      7  C   UNL     1       7.474   5.398  14.799  0.00  0.00    +0.000 A 
ATOM      8  C   UNL     1       7.198   4.753  13.593  0.00  0.00    +0.000 A 
ATOM      9  C   UNL     1       6.093   3.925  13.515  0.00  0.00    +0.000 A 
ATOM     10 BR   UNL     1       5.783   2.927  11.938  0.00  0.00    +0.000 Br
ATOM     11  C   UNL     1       5.222   3.800  14.603  0.00  0.00    +0.000 A 
ATOM     12  C   UNL     1       5.488   4.453  15.829  0.00  0.00    +0.000 A 
ATOM     13  C   UNL     1       4.489   4.334  16.978  0.00  0.00    +0.000 C 
ATOM     14  H   UNL     1       8.123   6.100  17.034  0.00  0.00    +0.000 HD
ENDROOT
BRANCH  13  15
ATOM     15  C   UNL     1       3.711   5.621  17.358  0.00  0.00    +0.000 A 
ATOM     16  C   UNL     1       2.331   5.567  17.603  0.00  0.00    +0.000 A 
ATOM     17  C   UNL     1       1.592   6.724  17.910  0.00  0.00    +0.000 A 
ATOM     18  C   UNL     1       2.219   7.961  17.970  0.00  0.00    +0.000 A 
ATOM     19  C   UNL     1       3.583   8.033  17.749  0.00  0.00    +0.000 A 
ATOM     20  C   UNL     1       4.316   6.884  17.448  0.00  0.00    +0.000 A 
ENDBRANCH  13  15
BRANCH   1  21
ATOM     21  C   UNL     1       3.986   2.851  18.939  0.00  0.00    +0.000 C 
ATOM     22  C   UNL     1       2.781   2.324  18.118  0.00  0.00    +0.000 C 
BRANCH  21  23
ATOM     23  C   UNL     1       3.407   3.803  20.043  0.00  0.00    +0.000 C 
BRANCH  23  25
ATOM     24  C   UNL     1       1.894   2.667  21.749  0.00  0.00    +0.000 C 
ATOM     25  C   UNL     1       1.951   3.558  20.506  0.00  0.00    +0.000 C 
ATOM     26  C   UNL     1       1.282   4.902  20.836  0.00  0.00    +0.000 C 
ENDBRANCH  23  25
ENDBRANCH  21  23
ENDBRANCH   1  21
TORSDOF 4
ENDMDL
MODEL 3
REMARK VINA RESULT:      -6.7      8.375     10.996
REMARK  Name = 
REMARK  7 active torsions:
REMARK  status: ('A' for Active; 'I' for Inactive)
REMARK    1  A    between atoms: C_1  and  C_2
REMARK    2  A    between atoms: C_2  and  C_3
REMARK    3  A    between atoms: C_2  and  C_4
REMARK    4  A    between atoms: C_4  and  C_5
REMARK    5  A    between atoms: C_5  and  C_6
REMARK    6  A    between atoms: C_5  and  N_7
REMARK    7  A    between atoms: C_19  and  C_20
REMARK                            x       y       z     vdW  Elec       q    Type
REMARK                         _______ _______ _______ _____ _____    ______ ____
ROOT
ATOM      1  N   UNL     1      -0.721  13.443  19.722  0.00  0.00    +0.000 NA
ATOM      2  C   UNL     1      -1.579  14.054  20.767  0.00  0.00    +0.000 C 
ATOM      3  C   UNL     1      -3.097  13.922  20.729  0.00  0.00    +0.000 C 
ATOM      4  O   UNL     1      -3.791  14.827  21.221  0.00  0.00    +0.000 OA
ATOM      5  N   UNL     1      -3.788  12.822  20.340  0.00  0.00    +0.000 N 
ATOM      6  C   UNL     1      -3.528  12.035  19.220  0.00  0.00    +0.000 A 
ATOM      7  C   UNL     1      -4.662  11.639  18.515  0.00  0.00    +0.000 A 
ATOM      8  C   UNL     1      -4.552  11.125  17.222  0.00  0.00    +0.000 A 
ATOM      9  C   UNL     1      -3.294  10.963  16.672  0.00  0.00    +0.000 A 
ATOM     10 BR   UNL     1      -3.127  10.408  14.871  0.00  0.00    +0.000 Br
ATOM     11  C   UNL     1      -2.149  11.234  17.428  0.00  0.00    +0.000 A 
ATOM     12  C   UNL     1      -2.248  11.750  18.741  0.00  0.00    +0.000 A 
ATOM     13  C   UNL     1      -0.976  11.988  19.555  0.00  0.00    +0.000 C 
ATOM     14  H   UNL     1      -4.770  12.951  20.558  0.00  0.00    +0.000 HD
ENDROOT
BRANCH  13  15
ATOM     15  C   UNL     1      -0.750  11.057  20.775  0.00  0.00    +0.000 A 
ATOM     16  C   UNL     1      -0.237   9.765  20.593  0.00  0.00    +0.000 A 
ATOM     17  C   UNL     1      -0.058   8.883  21.676  0.00  0.00    +0.000 A 
ATOM     18  C   UNL     1      -0.398   9.277  22.962  0.00  0.00    +0.000 A 
ATOM     19  C   UNL     1      -0.890  10.555  23.166  0.00  0.00    +0.000 A 
ATOM     20  C   UNL     1      -1.063  11.428  22.092  0.00  0.00    +0.000 A 
ENDBRANCH  13  15
BRANCH   1  21
ATOM     21  C   UNL     1       0.731  13.778  19.971  0.00  0.00    +0.000 C 
ATOM     22  C   UNL     1       0.949  14.555  21.295  0.00  0.00    +0.000 C 
BRANCH  21  23
ATOM     23  C   UNL     1       1.385  14.630  18.827  0.00  0.00    +0.000 C 
BRANCH  23  25
ATOM     24  C   UNL     1       3.910  14.463  18.532  0.00  0.00    +0.000 C 
ATOM     25  C   UNL     1       2.545  13.986  18.030  0.00  0.00    +0.000 C 
ATOM     26  C   UNL     1       2.478  12.457  18.166  0.00  0.00    +0.000 C 
ENDBRANCH  23  25
ENDBRANCH  21  23
ENDBRANCH   1  21
TORSDOF 4
ENDMDL
MODEL 4
REMARK VINA RESULT:      -6.7      8.188     10.626
REMARK  Name = 
REMARK  7 active torsions:
REMARK  status: ('A' for Active; 'I' for Inactive)
REMARK    1  A    between atoms: C_1  and  C_2
REMARK    2  A    between atoms: C_2  and  C_3
REMARK    3  A    between atoms: C_2  and  C_4
REMARK    4  A    between atoms: C_4  and  C_5
REMARK    5  A    between atoms: C_5  and  C_6
REMARK    6  A    between atoms: C_5  and  N_7
REMARK    7  A    between atoms: C_19  and  C_20
REMARK                            x       y       z     vdW  Elec       q    Type
REMARK                         _______ _______ _______ _____ _____    ______ ____
ROOT
ATOM      1  N   UNL     1       0.453  12.908  19.314  0.00  0.00    +0.000 NA
ATOM      2  C   UNL     1      -0.122  13.896  20.260  0.00  0.00    +0.000 C 
ATOM      3  C   UNL     1      -1.621  14.168  20.314  0.00  0.00    +0.000 C 
ATOM      4  O   UNL     1      -2.013  15.296  20.655  0.00  0.00    +0.000 OA
ATOM      5  N   UNL     1      -2.601  13.242  20.173  0.00  0.00    +0.000 N 
ATOM      6  C   UNL     1      -2.653  12.234  19.213  0.00  0.00    +0.000 A 
ATOM      7  C   UNL     1      -3.911  12.038  18.647  0.00  0.00    +0.000 A 
ATOM      8  C   UNL     1      -4.055  11.299  17.473  0.00  0.00    +0.000 A 
ATOM      9  C   UNL     1      -2.935  10.716  16.909  0.00  0.00    +0.000 A 
ATOM     10 BR   UNL     1      -3.081   9.833  15.241  0.00  0.00    +0.000 Br
ATOM     11  C   UNL     1      -1.694  10.798  17.548  0.00  0.00    +0.000 A 
ATOM     12  C   UNL     1      -1.537  11.540  18.742  0.00  0.00    +0.000 A 
ATOM     13  C   UNL     1      -0.177  11.567  19.439  0.00  0.00    +0.000 C 
ATOM     14  H   UNL     1      -3.493  13.664  20.406  0.00  0.00    +0.000 HD
ENDROOT
BRANCH  13  15
ATOM     15  C   UNL     1      -0.082  10.835  20.802  0.00  0.00    +0.000 A 
ATOM     16  C   UNL     1       0.831   9.785  20.980  0.00  0.00    +0.000 A 
ATOM     17  C   UNL     1       0.912   9.076  22.193  0.00  0.00    +0.000 A 
ATOM     18  C   UNL     1       0.073   9.398  23.250  0.00  0.00    +0.000 A 
ATOM     19  C   UNL     1      -0.823  10.442  23.102  0.00  0.00    +0.000 A 
ATOM     20  C   UNL     1      -0.900  11.147  21.900  0.00  0.00    +0.000 A 
ENDBRANCH  13  15
BRANCH   1  21
ATOM     21  C   UNL     1       1.960  12.882  19.430  0.00  0.00    +0.000 C 
ATOM     22  C   UNL     1       2.473  13.564  20.725  0.00  0.00    +0.000 C 
BRANCH  21  23
ATOM     23  C   UNL     1       2.695  13.570  18.227  0.00  0.00    +0.000 C 
BRANCH  23  25
ATOM     24  C   UNL     1       4.957  14.714  17.964  0.00  0.00    +0.000 C 
ATOM     25  C   UNL     1       3.541  14.830  18.532  0.00  0.00    +0.000 C 
ATOM     26  C   UNL     1       2.864  16.066  17.917  0.00  0.00    +0.000 C 
ENDBRANCH  23  25
ENDBRANCH  21  23
ENDBRANCH   1  21
TORSDOF 4
ENDMDL
MODEL 5
REMARK VINA RESULT:      -6.6      7.460      9.699
REMARK  Name = 
REMARK  7 active torsions:
REMARK  status: ('A' for Active; 'I' for Inactive)
REMARK    1  A    between atoms: C_1  and  C_2
REMARK    2  A    between atoms: C_2  and  C_3
REMARK    3  A    between atoms: C_2  and  C_4
REMARK    4  A    between atoms: C_4  and  C_5
REMARK    5  A    between atoms: C_5  and  C_6
REMARK    6  A    between atoms: C_5  and  N_7
REMARK    7  A    between atoms: C_19  and  C_20
REMARK                            x       y       z     vdW  Elec       q    Type
REMARK                         _______ _______ _______ _____ _____    ______ ____
ROOT
ATOM      1  N   UNL     1      -1.115  10.973  18.117  0.00  0.00    +0.000 NA
ATOM      2  C   UNL     1      -0.089   9.913  17.960  0.00  0.00    +0.000 C 
ATOM      3  C   UNL     1       1.398  10.245  17.918  0.00  0.00    +0.000 C 
ATOM      4  O   UNL     1       2.159   9.509  17.267  0.00  0.00    +0.000 OA
ATOM      5  N   UNL     1       2.021  11.195  18.658  0.00  0.00    +0.000 N 
ATOM      6  C   UNL     1       1.570  12.494  18.882  0.00  0.00    +0.000 A 
ATOM      7  C   UNL     1       2.562  13.470  18.813  0.00  0.00    +0.000 A 
ATOM      8  C   UNL     1       2.225  14.820  18.704  0.00  0.00    +0.000 A 
ATOM      9  C   UNL     1       0.889  15.179  18.719  0.00  0.00    +0.000 A 
ATOM     10 BR   UNL     1       0.403  16.984  18.426  0.00  0.00    +0.000 Br
ATOM     11  C   UNL     1      -0.103  14.214  18.923  0.00  0.00    +0.000 A 
ATOM     12  C   UNL     1       0.228  12.843  19.042  0.00  0.00    +0.000 A 
ATOM     13  C   UNL     1      -0.877  11.823  19.313  0.00  0.00    +0.000 C 
ATOM     14  H   UNL     1       3.024  11.099  18.548  0.00  0.00    +0.000 HD
ENDROOT
BRANCH  13  15
ATOM     15  C   UNL     1      -0.866  11.144  20.707  0.00  0.00    +0.000 A 
ATOM     16  C   UNL     1      -1.395  11.809  21.823  0.00  0.00    +0.000 A 
ATOM     17  C   UNL     1      -1.363  11.235  23.107  0.00  0.00    +0.000 A 
ATOM     18  C   UNL     1      -0.792   9.985  23.302  0.00  0.00    +0.000 A 
ATOM     19  C   UNL     1      -0.280   9.303  22.211  0.00  0.00    +0.000 A 
ATOM     20  C   UNL     1      -0.316   9.873  20.937  0.00  0.00    +0.000 A 
ENDBRANCH  13  15
BRANCH   1  21
ATOM     21  C   UNL     1      -2.502  10.375  18.066  0.00  0.00    +0.000 C 
ATOM     22  C   UNL     1      -2.810   9.692  16.708  0.00  0.00    +0.000 C 
BRANCH  21  23
ATOM     23  C   UNL     1      -3.647  11.415  18.325  0.00  0.00    +0.000 C 
BRANCH  23  25
ATOM     24  C   UNL     1      -6.040  10.684  18.800  0.00  0.00    +0.000 C 
ATOM     25  C   UNL     1      -5.040  11.111  17.724  0.00  0.00    +0.000 C 
ATOM     26  C   UNL     1      -5.582  12.365  17.019  0.00  0.00    +0.000 C 
ENDBRANCH  23  25
ENDBRANCH  21  23
ENDBRANCH   1  21
TORSDOF 4
ENDMDL
MODEL 6
REMARK VINA RESULT:      -6.4      6.155      8.847
REMARK  Name = 
REMARK  7 active torsions:
REMARK  status: ('A' for Active; 'I' for Inactive)
REMARK    1  A    between atoms: C_1  and  C_2
REMARK    2  A    between atoms: C_2  and  C_3
REMARK    3  A    between atoms: C_2  and  C_4
REMARK    4  A    between atoms: C_4  and  C_5
REMARK    5  A    between atoms: C_5  and  C_6
REMARK    6  A    between atoms: C_5  and  N_7
REMARK    7  A    between atoms: C_19  and  C_20
REMARK                            x       y       z     vdW  Elec       q    Type
REMARK                         _______ _______ _______ _____ _____    ______ ____
ROOT
ATOM      1  N   UNL     1       0.825  10.236  20.077  0.00  0.00    +0.000 NA
ATOM      2  C   UNL     1      -0.037  10.342  21.280  0.00  0.00    +0.000 C 
ATOM      3  C   UNL     1      -0.320  11.685  21.941  0.00  0.00    +0.000 C 
ATOM      4  O   UNL     1      -0.538  11.718  23.163  0.00  0.00    +0.000 OA
ATOM      5  N   UNL     1      -0.513  12.862  21.296  0.00  0.00    +0.000 N 
ATOM      6  C   UNL     1       0.244  13.357  20.237  0.00  0.00    +0.000 A 
ATOM      7  C   UNL     1       0.530  14.719  20.318  0.00  0.00    +0.000 A 
ATOM      8  C   UNL     1       1.522  15.285  19.516  0.00  0.00    +0.000 A 
ATOM      9  C   UNL     1       2.180  14.484  18.599  0.00  0.00    +0.000 A 
ATOM     10 BR   UNL     1       3.626  15.194  17.607  0.00  0.00    +0.000 Br
ATOM     11  C   UNL     1       1.801  13.150  18.423  0.00  0.00    +0.000 A 
ATOM     12  C   UNL     1       0.792  12.566  19.226  0.00  0.00    +0.000 A 
ATOM     13  C   UNL     1       0.370  11.120  18.971  0.00  0.00    +0.000 C 
ATOM     14  H   UNL     1      -0.833  13.557  21.961  0.00  0.00    +0.000 HD
ENDROOT
BRANCH  13  15
ATOM     15  C   UNL     1      -1.054  10.904  18.396  0.00  0.00    +0.000 A 
ATOM     16  C   UNL     1      -1.282   9.921  17.422  0.00  0.00    +0.000 A 
ATOM     17  C   UNL     1      -2.555   9.729  16.852  0.00  0.00    +0.000 A 
ATOM     18  C   UNL     1      -3.623  10.525  17.241  0.00  0.00    +0.000 A 
ATOM     19  C   UNL     1      -3.424  11.488  18.215  0.00  0.00    +0.000 A 
ATOM     20  C   UNL     1      -2.162  11.675  18.781  0.00  0.00    +0.000 A 
ENDBRANCH  13  15
BRANCH   1  21
ATOM     21  C   UNL     1       0.984   8.789  19.668  0.00  0.00    +0.000 C 
ATOM     22  C   UNL     1       1.518   7.897  20.819  0.00  0.00    +0.000 C 
BRANCH  21  23
ATOM     23  C   UNL     1       1.944   8.582  18.445  0.00  0.00    +0.000 C 
BRANCH  23  25
ATOM     24  C   UNL     1       1.966   6.086  17.934  0.00  0.00    +0.000 C 
ATOM     25  C   UNL     1       2.789   7.286  18.410  0.00  0.00    +0.000 C 
ATOM     26  C   UNL     1       3.981   7.473  17.458  0.00  0.00    +0.000 C 
ENDBRANCH  23  25
ENDBRANCH  21  23
ENDBRANCH   1  21
TORSDOF 4
ENDMDL
MODEL 7
REMARK VINA RESULT:      -6.3      8.148     10.563
REMARK  Name = 
REMARK  7 active torsions:
REMARK  status: ('A' for Active; 'I' for Inactive)
REMARK    1  A    between atoms: C_1  and  C_2
REMARK    2  A    between atoms: C_2  and  C_3
REMARK    3  A    between atoms: C_2  and  C_4
REMARK    4  A    between atoms: C_4  and  C_5
REMARK    5  A    between atoms: C_5  and  C_6
REMARK    6  A    between atoms: C_5  and  N_7
REMARK    7  A    between atoms: C_19  and  C_20
REMARK                            x       y       z     vdW  Elec       q    Type
REMARK                         _______ _______ _______ _____ _____    ______ ____
ROOT
ATOM      1  N   UNL     1      -1.037  11.057  20.696  0.00  0.00    +0.000 NA
ATOM      2  C   UNL     1       0.125  10.508  19.955  0.00  0.00    +0.000 C 
ATOM      3  C   UNL     1       0.018  10.109  18.488  0.00  0.00    +0.000 C 
ATOM      4  O   UNL     1       0.744   9.197  18.059  0.00  0.00    +0.000 OA
ATOM      5  N   UNL     1      -0.697  10.762  17.538  0.00  0.00    +0.000 N 
ATOM      6  C   UNL     1      -1.996  11.248  17.671  0.00  0.00    +0.000 A 
ATOM      7  C   UNL     1      -2.811  11.032  16.562  0.00  0.00    +0.000 A 
ATOM      8  C   UNL     1      -4.195  11.175  16.658  0.00  0.00    +0.000 A 
ATOM      9  C   UNL     1      -4.743  11.589  17.859  0.00  0.00    +0.000 A 
ATOM     10 BR   UNL     1      -6.624  11.649  18.056  0.00  0.00    +0.000 Br
ATOM     11  C   UNL     1      -3.917  11.937  18.933  0.00  0.00    +0.000 A 
ATOM     12  C   UNL     1      -2.511  11.801  18.845  0.00  0.00    +0.000 A 
ATOM     13  C   UNL     1      -1.638  12.237  20.020  0.00  0.00    +0.000 C 
ATOM     14  H   UNL     1      -0.471  10.377  16.628  0.00  0.00    +0.000 HD
ENDROOT
BRANCH  13  15
ATOM     15  C   UNL     1      -0.749  13.488  19.797  0.00  0.00    +0.000 A 
ATOM     16  C   UNL     1      -1.286  14.774  19.950  0.00  0.00    +0.000 A 
ATOM     17  C   UNL     1      -0.515  15.928  19.715  0.00  0.00    +0.000 A 
ATOM     18  C   UNL     1       0.809  15.816  19.314  0.00  0.00    +0.000 A 
ATOM     19  C   UNL     1       1.364  14.555  19.174  0.00  0.00    +0.000 A 
ATOM     20  C   UNL     1       0.599  13.413  19.411  0.00  0.00    +0.000 A 
ENDBRANCH  13  15
BRANCH   1  21
ATOM     21  C   UNL     1      -0.669  11.309  22.140  0.00  0.00    +0.000 C 
ATOM     22  C   UNL     1       0.096  10.121  22.780  0.00  0.00    +0.000 C 
BRANCH  21  23
ATOM     23  C   UNL     1      -1.903  11.608  23.062  0.00  0.00    +0.000 C 
BRANCH  23  25
ATOM     24  C   UNL     1      -3.503  13.238  24.189  0.00  0.00    +0.000 C 
ATOM     25  C   UNL     1      -2.386  13.075  23.156  0.00  0.00    +0.000 C 
ATOM     26  C   UNL     1      -1.210  13.981  23.555  0.00  0.00    +0.000 C 
ENDBRANCH  23  25
ENDBRANCH  21  23
ENDBRANCH   1  21
TORSDOF 4
ENDMDL
MODEL 8
REMARK VINA RESULT:      -6.3      8.415     11.130
REMARK  Name = 
REMARK  7 active torsions:
REMARK  status: ('A' for Active; 'I' for Inactive)
REMARK    1  A    between atoms: C_1  and  C_2
REMARK    2  A    between atoms: C_2  and  C_3
REMARK    3  A    between atoms: C_2  and  C_4
REMARK    4  A    between atoms: C_4  and  C_5
REMARK    5  A    between atoms: C_5  and  C_6
REMARK    6  A    between atoms: C_5  and  N_7
REMARK    7  A    between atoms: C_19  and  C_20
REMARK                            x       y       z     vdW  Elec       q    Type
REMARK                         _______ _______ _______ _____ _____    ______ ____
ROOT
ATOM      1  N   UNL     1      -1.159  13.658  19.709  0.00  0.00    +0.000 NA
ATOM      2  C   UNL     1      -2.092  14.160  20.747  0.00  0.00    +0.000 C 
ATOM      3  C   UNL     1      -3.585  13.859  20.689  0.00  0.00    +0.000 C 
ATOM      4  O   UNL     1      -4.381  14.676  21.179  0.00  0.00    +0.000 OA
ATOM      5  N   UNL     1      -4.144  12.692  20.284  0.00  0.00    +0.000 N 
ATOM      6  C   UNL     1      -3.784  11.949  19.162  0.00  0.00    +0.000 A 
ATOM      7  C   UNL     1      -4.859  11.434  18.440  0.00  0.00    +0.000 A 
ATOM      8  C   UNL     1      -4.677  10.946  17.146  0.00  0.00    +0.000 A 
ATOM      9  C   UNL     1      -3.401  10.931  16.610  0.00  0.00    +0.000 A 
ATOM     10 BR   UNL     1      -3.153  10.412  14.807  0.00  0.00    +0.000 Br
ATOM     11  C   UNL     1      -2.303  11.322  17.381  0.00  0.00    +0.000 A 
ATOM     12  C   UNL     1      -2.474  11.813  18.697  0.00  0.00    +0.000 A 
ATOM     13  C   UNL     1      -1.247  12.185  19.528  0.00  0.00    +0.000 C 
ATOM     14  H   UNL     1      -5.136  12.708  20.491  0.00  0.00    +0.000 HD
ENDROOT
BRANCH  13  15
ATOM     15  C   UNL     1      -0.932  11.275  20.744  0.00  0.00    +0.000 A 
ATOM     16  C   UNL     1      -1.346  11.646  22.032  0.00  0.00    +0.000 A 
ATOM     17  C   UNL     1      -1.040  10.862  23.160  0.00  0.00    +0.000 A 
ATOM     18  C   UNL     1      -0.305   9.693  23.021  0.00  0.00    +0.000 A 
ATOM     19  C   UNL     1       0.098   9.299  21.757  0.00  0.00    +0.000 A 
ATOM     20  C   UNL     1      -0.209  10.076  20.639  0.00  0.00    +0.000 A 
ENDBRANCH  13  15
BRANCH   1  21
ATOM     21  C   UNL     1       0.244  14.152  19.978  0.00  0.00    +0.000 C 
ATOM     22  C   UNL     1       0.275  15.609  20.508  0.00  0.00    +0.000 C 
BRANCH  21  23
ATOM     23  C   UNL     1       1.181  14.102  18.720  0.00  0.00    +0.000 C 
BRANCH  23  25
ATOM     24  C   UNL     1       2.455  12.004  18.040  0.00  0.00    +0.000 C 
ATOM     25  C   UNL     1       2.502  13.305  18.844  0.00  0.00    +0.000 C 
ATOM     26  C   UNL     1       3.670  14.161  18.327  0.00  0.00    +0.000 C 
ENDBRANCH  23  25
ENDBRANCH  21  23
ENDBRANCH   1  21
TORSDOF 4
ENDMDL
MODEL 9
REMARK VINA RESULT:      -6.2      5.810      8.593
REMARK  Name = 
REMARK  7 active torsions:
REMARK  status: ('A' for Active; 'I' for Inactive)
REMARK    1  A    between atoms: C_1  and  C_2
REMARK    2  A    between atoms: C_2  and  C_3
REMARK    3  A    between atoms: C_2  and  C_4
REMARK    4  A    between atoms: C_4  and  C_5
REMARK    5  A    between atoms: C_5  and  C_6
REMARK    6  A    between atoms: C_5  and  N_7
REMARK    7  A    between atoms: C_19  and  C_20
REMARK                            x       y       z     vdW  Elec       q    Type
REMARK                         _______ _______ _______ _____ _____    ______ ____
ROOT
ATOM      1  N   UNL     1       0.557  11.684  20.286  0.00  0.00    +0.000 NA
ATOM      2  C   UNL     1       1.167  12.556  19.252  0.00  0.00    +0.000 C 
ATOM      3  C   UNL     1       2.166  12.011  18.239  0.00  0.00    +0.000 C 
ATOM      4  O   UNL     1       3.037  12.772  17.786  0.00  0.00    +0.000 OA
ATOM      5  N   UNL     1       2.111  10.792  17.648  0.00  0.00    +0.000 N 
ATOM      6  C   UNL     1       1.840   9.580  18.279  0.00  0.00    +0.000 A 
ATOM      7  C   UNL     1       2.643   8.519  17.863  0.00  0.00    +0.000 A 
ATOM      8  C   UNL     1       2.707   7.341  18.608  0.00  0.00    +0.000 A 
ATOM      9  C   UNL     1       1.918   7.221  19.738  0.00  0.00    +0.000 A 
ATOM     10 BR   UNL     1       2.096   5.696  20.844  0.00  0.00    +0.000 Br
ATOM     11  C   UNL     1       1.012   8.230  20.081  0.00  0.00    +0.000 A 
ATOM     12  C   UNL     1       0.934   9.426  19.329  0.00  0.00    +0.000 A 
ATOM     13  C   UNL     1      -0.101  10.485  19.704  0.00  0.00    +0.000 C 
ATOM     14  H   UNL     1       2.804  10.749  16.909  0.00  0.00    +0.000 HD
ENDROOT
BRANCH  13  15
ATOM     15  C   UNL     1      -1.267  10.700  18.704  0.00  0.00    +0.000 A 
ATOM     16  C   UNL     1      -2.295  11.606  18.999  0.00  0.00    +0.000 A 
ATOM     17  C   UNL     1      -3.386  11.793  18.130  0.00  0.00    +0.000 A 
ATOM     18  C   UNL     1      -3.473  11.069  16.949  0.00  0.00    +0.000 A 
ATOM     19  C   UNL     1      -2.459  10.182  16.629  0.00  0.00    +0.000 A 
ATOM     20  C   UNL     1      -1.376  10.001  17.491  0.00  0.00    +0.000 A 
ENDBRANCH  13  15
BRANCH   1  21
ATOM     21  C   UNL     1      -0.346  12.492  21.191  0.00  0.00    +0.000 C 
ATOM     22  C   UNL     1       0.315  13.808  21.677  0.00  0.00    +0.000 C 
BRANCH  21  23
ATOM     23  C   UNL     1      -0.813  11.714  22.471  0.00  0.00    +0.000 C 
BRANCH  23  25
ATOM     24  C   UNL     1      -1.879  13.485  23.959  0.00  0.00    +0.000 C 
ATOM     25  C   UNL     1      -2.108  12.196  23.167  0.00  0.00    +0.000 C 
ATOM     26  C   UNL     1      -3.196  12.454  22.112  0.00  0.00    +0.000 C 
ENDBRANCH  23  25
ENDBRANCH  21  23
ENDBRANCH   1  21
TORSDOF 4
ENDMDL
