MODEL 1
REMARK VINA RESULT:      -8.9      0.000      0.000
REMARK  Name = 
REMARK  8 active torsions:
REMARK  status: ('A' for Active; 'I' for Inactive)
REMARK    1  A    between atoms: C_1  and  C_2
REMARK    2  A    between atoms: C_2  and  C_3
REMARK    3  A    between atoms: C_7  and  N_8
REMARK    4  A    between atoms: C_9  and  C_11
REMARK    5  A    between atoms: C_16  and  S_17
REMARK    6  A    between atoms: S_17  and  C_18
REMARK    7  A    between atoms: C_22  and  C_23
REMARK    8  A    between atoms: C_24  and  C_25
REMARK                            x       y       z     vdW  Elec       q    Type
REMARK                         _______ _______ _______ _____ _____    ______ ____
ROOT
ATOM      1  S   UNL     1       3.620   6.193  19.406  0.00  0.00    +0.000 S 
ENDROOT
BRANCH   1   2
ATOM      2  C   UNL     1       2.486   7.554  19.641  0.00  0.00    +0.000 A 
ATOM      3  C   UNL     1       1.816   7.741  20.856  0.00  0.00    +0.000 A 
ATOM      4  C   UNL     1       0.788   8.695  20.988  0.00  0.00    +0.000 A 
ATOM      5  C   UNL     1       0.426   9.482  19.875  0.00  0.00    +0.000 A 
ATOM      6  C   UNL     1      -0.528  10.513  19.587  0.00  0.00    +0.000 A 
ATOM      7  N   UNL     1      -0.431  10.912  18.309  0.00  0.00    +0.000 NA
ATOM      8  N   UNL     1       0.554  10.159  17.798  0.00  0.00    +0.000 N 
ATOM      9  C   UNL     1       1.110   9.276  18.682  0.00  0.00    +0.000 A 
ATOM     10  C   UNL     1       2.129   8.324  18.524  0.00  0.00    +0.000 A 
ATOM     11  H   UNL     1       0.805  10.297  16.826  0.00  0.00    +0.000 HD
BRANCH   6  12
ATOM     12  C   UNL     1      -1.483  11.061  20.517  0.00  0.00    +0.000 C 
ATOM     13  C   UNL     1      -1.290  12.196  21.217  0.00  0.00    +0.000 C 
BRANCH  13  14
ATOM     14  C   UNL     1      -2.247  12.806  22.152  0.00  0.00    +0.000 A 
ATOM     15  C   UNL     1      -2.775  12.045  23.194  0.00  0.00    +0.000 A 
ATOM     16  C   UNL     1      -3.661  12.640  24.091  0.00  0.00    +0.000 A 
ATOM     17  C   UNL     1      -3.995  13.977  23.928  0.00  0.00    +0.000 A 
ATOM     18  C   UNL     1      -3.427  14.661  22.867  0.00  0.00    +0.000 A 
ATOM     19  N   UNL     1      -2.567  14.110  21.976  0.00  0.00    +0.000 NA
ENDBRANCH  13  14
ENDBRANCH   6  12
ENDBRANCH   1   2
BRANCH   1  25
ATOM     20  C   UNL     1       2.712   3.697  18.384  0.00  0.00    +0.000 A 
ATOM     21  C   UNL     1       1.705   2.703  18.320  0.00  0.00    +0.000 A 
ATOM     22  C   UNL     1       0.623   2.696  19.196  0.00  0.00    +0.000 A 
ATOM     23  C   UNL     1       0.541   3.667  20.182  0.00  0.00    +0.000 A 
ATOM     24  C   UNL     1       1.523   4.661  20.261  0.00  0.00    +0.000 A 
ATOM     25  C   UNL     1       2.609   4.711  19.361  0.00  0.00    +0.000 A 
BRANCH  20  27
ATOM     26  N   UNL     1       4.146   4.572  16.574  0.00  0.00    +0.000 N 
ATOM     27  C   UNL     1       3.816   3.512  17.382  0.00  0.00    +0.000 C 
ATOM     28  O   UNL     1       4.340   2.397  17.347  0.00  0.00    +0.000 OA
ATOM     29  H   UNL     1       3.660   5.447  16.715  0.00  0.00    +0.000 HD
BRANCH  26  34
ATOM     30  C   UNL     1       5.997   3.922  13.515  0.00  0.00    +0.000 A 
ATOM     31  C   UNL     1       7.246   4.458  13.810  0.00  0.00    +0.000 A 
ATOM     32  C   UNL     1       7.439   5.079  15.037  0.00  0.00    +0.000 A 
ATOM     33  C   UNL     1       6.383   5.137  15.944  0.00  0.00    +0.000 A 
ATOM     34  C   UNL     1       5.168   4.554  15.602  0.00  0.00    +0.000 A 
ATOM     35  N   UNL     1       4.975   3.967  14.401  0.00  0.00    +0.000 NA
BRANCH  30  37
ATOM     36  C   UNL     1       4.402   3.300  11.575  0.00  0.00    +0.000 C 
ATOM     37  C   UNL     1       5.802   3.256  12.170  0.00  0.00    +0.000 C 
ENDBRANCH  30  37
ENDBRANCH  26  34
ENDBRANCH  20  27
ENDBRANCH   1  25
TORSDOF 7
ENDMDL
MODEL 2
REMARK VINA RESULT:      -8.9      4.012     10.617
REMARK  Name = 
REMARK  8 active torsions:
REMARK  status: ('A' for Active; 'I' for Inactive)
REMARK    1  A    between atoms: C_1  and  C_2
REMARK    2  A    between atoms: C_2  and  C_3
REMARK    3  A    between atoms: C_7  and  N_8
REMARK    4  A    between atoms: C_9  and  C_11
REMARK    5  A    between atoms: C_16  and  S_17
REMARK    6  A    between atoms: S_17  and  C_18
REMARK    7  A    between atoms: C_22  and  C_23
REMARK    8  A    between atoms: C_24  and  C_25
REMARK                            x       y       z     vdW  Elec       q    Type
REMARK                         _______ _______ _______ _____ _____    ______ ____
ROOT
ATOM      1  S   UNL     1       0.199   9.625  20.417  0.00  0.00    +0.000 S 
ENDROOT
BRANCH   1   2
ATOM      2  C   UNL     1       1.475   8.729  19.543  0.00  0.00    +0.000 A 
ATOM      3  C   UNL     1       1.798   9.033  18.215  0.00  0.00    +0.000 A 
ATOM      4  C   UNL     1       2.666   8.216  17.465  0.00  0.00    +0.000 A 
ATOM      5  C   UNL     1       3.227   7.068  18.063  0.00  0.00    +0.000 A 
ATOM      6  C   UNL     1       4.109   6.008  17.672  0.00  0.00    +0.000 A 
ATOM      7  N   UNL     1       4.301   5.146  18.684  0.00  0.00    +0.000 NA
ATOM      8  N   UNL     1       3.564   5.642  19.688  0.00  0.00    +0.000 N 
ATOM      9  C   UNL     1       2.890   6.792  19.384  0.00  0.00    +0.000 A 
ATOM     10  C   UNL     1       2.018   7.585  20.146  0.00  0.00    +0.000 A 
ATOM     11  H   UNL     1       3.564   5.144  20.571  0.00  0.00    +0.000 HD
BRANCH   6  12
ATOM     12  C   UNL     1       4.715   5.852  16.374  0.00  0.00    +0.000 C 
ATOM     13  C   UNL     1       5.644   4.921  16.081  0.00  0.00    +0.000 C 
BRANCH  13  14
ATOM     14  C   UNL     1       6.266   4.707  14.765  0.00  0.00    +0.000 A 
ATOM     15  C   UNL     1       5.687   3.814  13.865  0.00  0.00    +0.000 A 
ATOM     16  C   UNL     1       6.269   3.637  12.611  0.00  0.00    +0.000 A 
ATOM     17  C   UNL     1       7.409   4.358  12.285  0.00  0.00    +0.000 A 
ATOM     18  C   UNL     1       7.922   5.224  13.237  0.00  0.00    +0.000 A 
ATOM     19  N   UNL     1       7.381   5.413  14.466  0.00  0.00    +0.000 NA
ENDBRANCH  13  14
ENDBRANCH   6  12
ENDBRANCH   1   2
BRANCH   1  25
ATOM     20  C   UNL     1      -0.820  11.778  18.860  0.00  0.00    +0.000 A 
ATOM     21  C   UNL     1      -1.831  12.294  18.011  0.00  0.00    +0.000 A 
ATOM     22  C   UNL     1      -2.812  11.477  17.456  0.00  0.00    +0.000 A 
ATOM     23  C   UNL     1      -2.784  10.114  17.709  0.00  0.00    +0.000 A 
ATOM     24  C   UNL     1      -1.796   9.583  18.548  0.00  0.00    +0.000 A 
ATOM     25  C   UNL     1      -0.814  10.397  19.153  0.00  0.00    +0.000 A 
BRANCH  20  27
ATOM     26  N   UNL     1       1.507  12.533  19.196  0.00  0.00    +0.000 N 
ATOM     27  C   UNL     1       0.168  12.809  19.327  0.00  0.00    +0.000 C 
ATOM     28  O   UNL     1      -0.305  13.835  19.818  0.00  0.00    +0.000 OA
ATOM     29  H   UNL     1       1.772  11.664  18.752  0.00  0.00    +0.000 HD
BRANCH  26  34
ATOM     30  C   UNL     1       4.401  14.725  19.055  0.00  0.00    +0.000 A 
ATOM     31  C   UNL     1       4.623  15.003  20.400  0.00  0.00    +0.000 A 
ATOM     32  C   UNL     1       3.756  14.475  21.347  0.00  0.00    +0.000 A 
ATOM     33  C   UNL     1       2.697  13.672  20.929  0.00  0.00    +0.000 A 
ATOM     34  C   UNL     1       2.548  13.406  19.573  0.00  0.00    +0.000 A 
ATOM     35  N   UNL     1       3.380  13.934  18.650  0.00  0.00    +0.000 NA
BRANCH  30  37
ATOM     36  C   UNL     1       6.618  14.527  17.735  0.00  0.00    +0.000 C 
ATOM     37  C   UNL     1       5.351  15.314  18.034  0.00  0.00    +0.000 C 
ENDBRANCH  30  37
ENDBRANCH  26  34
ENDBRANCH  20  27
ENDBRANCH   1  25
TORSDOF 7
ENDMDL
MODEL 3
REMARK VINA RESULT:      -8.8      4.191     10.621
REMARK  Name = 
REMARK  8 active torsions:
REMARK  status: ('A' for Active; 'I' for Inactive)
REMARK    1  A    between atoms: C_1  and  C_2
REMARK    2  A    between atoms: C_2  and  C_3
REMARK    3  A    between atoms: C_7  and  N_8
REMARK    4  A    between atoms: C_9  and  C_11
REMARK    5  A    between atoms: C_16  and  S_17
REMARK    6  A    between atoms: S_17  and  C_18
REMARK    7  A    between atoms: C_22  and  C_23
REMARK    8  A    between atoms: C_24  and  C_25
REMARK                            x       y       z     vdW  Elec       q    Type
REMARK                         _______ _______ _______ _____ _____    ______ ____
ROOT
ATOM      1  S   UNL     1       0.671   9.827  20.431  0.00  0.00    +0.000 S 
ENDROOT
BRANCH   1   2
ATOM      2  C   UNL     1       1.727   8.604  19.668  0.00  0.00    +0.000 A 
ATOM      3  C   UNL     1       2.092   8.698  18.319  0.00  0.00    +0.000 A 
ATOM      4  C   UNL     1       2.766   7.648  17.666  0.00  0.00    +0.000 A 
ATOM      5  C   UNL     1       3.086   6.477  18.385  0.00  0.00    +0.000 A 
ATOM      6  C   UNL     1       3.727   5.224  18.114  0.00  0.00    +0.000 A 
ATOM      7  N   UNL     1       3.749   4.449  19.210  0.00  0.00    +0.000 NA
ATOM      8  N   UNL     1       3.140   5.186  20.151  0.00  0.00    +0.000 N 
ATOM      9  C   UNL     1       2.713   6.412  19.723  0.00  0.00    +0.000 A 
ATOM     10  C   UNL     1       2.030   7.441  20.391  0.00  0.00    +0.000 A 
ATOM     11  H   UNL     1       3.046   4.791  21.080  0.00  0.00    +0.000 HD
BRANCH   6  12
ATOM     12  C   UNL     1       4.275   4.815  16.845  0.00  0.00    +0.000 C 
ATOM     13  C   UNL     1       5.361   5.373  16.276  0.00  0.00    +0.000 C 
BRANCH  13  14
ATOM     14  C   UNL     1       5.971   4.968  15.000  0.00  0.00    +0.000 A 
ATOM     15  C   UNL     1       5.267   4.136  14.132  0.00  0.00    +0.000 A 
ATOM     16  C   UNL     1       5.843   3.778  12.914  0.00  0.00    +0.000 A 
ATOM     17  C   UNL     1       7.102   4.264  12.591  0.00  0.00    +0.000 A 
ATOM     18  C   UNL     1       7.734   5.085  13.510  0.00  0.00    +0.000 A 
ATOM     19  N   UNL     1       7.203   5.445  14.704  0.00  0.00    +0.000 NA
ENDBRANCH  13  14
ENDBRANCH   6  12
ENDBRANCH   1   2
BRANCH   1  25
ATOM     20  C   UNL     1      -0.262  11.863  18.674  0.00  0.00    +0.000 A 
ATOM     21  C   UNL     1      -1.257  12.341  17.787  0.00  0.00    +0.000 A 
ATOM     22  C   UNL     1      -2.286  11.523  17.326  0.00  0.00    +0.000 A 
ATOM     23  C   UNL     1      -2.322  10.193  17.715  0.00  0.00    +0.000 A 
ATOM     24  C   UNL     1      -1.350   9.700  18.594  0.00  0.00    +0.000 A 
ATOM     25  C   UNL     1      -0.321  10.519  19.105  0.00  0.00    +0.000 A 
BRANCH  20  27
ATOM     26  N   UNL     1       1.508  13.450  18.007  0.00  0.00    +0.000 N 
ATOM     27  C   UNL     1       0.783  12.883  19.026  0.00  0.00    +0.000 C 
ATOM     28  O   UNL     1       0.926  13.126  20.225  0.00  0.00    +0.000 OA
ATOM     29  H   UNL     1       1.280  13.187  17.057  0.00  0.00    +0.000 HD
BRANCH  26  34
ATOM     30  C   UNL     1       4.746  15.069  18.318  0.00  0.00    +0.000 A 
ATOM     31  C   UNL     1       4.391  16.372  18.646  0.00  0.00    +0.000 A 
ATOM     32  C   UNL     1       3.044  16.705  18.718  0.00  0.00    +0.000 A 
ATOM     33  C   UNL     1       2.086  15.723  18.472  0.00  0.00    +0.000 A 
ATOM     34  C   UNL     1       2.507  14.430  18.179  0.00  0.00    +0.000 A 
ATOM     35  N   UNL     1       3.816  14.112  18.092  0.00  0.00    +0.000 NA
BRANCH  30  37
ATOM     36  C   UNL     1       7.133  15.357  19.275  0.00  0.00    +0.000 C 
ATOM     37  C   UNL     1       6.218  14.725  18.237  0.00  0.00    +0.000 C 
ENDBRANCH  30  37
ENDBRANCH  26  34
ENDBRANCH  20  27
ENDBRANCH   1  25
TORSDOF 7
ENDMDL
MODEL 4
REMARK VINA RESULT:      -8.7      4.130      8.564
REMARK  Name = 
REMARK  8 active torsions:
REMARK  status: ('A' for Active; 'I' for Inactive)
REMARK    1  A    between atoms: C_1  and  C_2
REMARK    2  A    between atoms: C_2  and  C_3
REMARK    3  A    between atoms: C_7  and  N_8
REMARK    4  A    between atoms: C_9  and  C_11
REMARK    5  A    between atoms: C_16  and  S_17
REMARK    6  A    between atoms: S_17  and  C_18
REMARK    7  A    between atoms: C_22  and  C_23
REMARK    8  A    between atoms: C_24  and  C_25
REMARK                            x       y       z     vdW  Elec       q    Type
REMARK                         _______ _______ _______ _____ _____    ______ ____
ROOT
ATOM      1  S   UNL     1       3.513   2.783  17.813  0.00  0.00    +0.000 S 
ENDROOT
BRANCH   1   2
ATOM      2  C   UNL     1       4.839   3.980  17.880  0.00  0.00    +0.000 A 
ATOM      3  C   UNL     1       5.130   4.677  19.059  0.00  0.00    +0.000 A 
ATOM      4  C   UNL     1       6.045   5.748  19.072  0.00  0.00    +0.000 A 
ATOM      5  C   UNL     1       6.686   6.125  17.873  0.00  0.00    +0.000 A 
ATOM      6  C   UNL     1       7.634   7.119  17.460  0.00  0.00    +0.000 A 
ATOM      7  N   UNL     1       7.891   7.019  16.146  0.00  0.00    +0.000 NA
ATOM      8  N   UNL     1       7.131   5.994  15.735  0.00  0.00    +0.000 N 
ATOM      9  C   UNL     1       6.379   5.414  16.718  0.00  0.00    +0.000 A 
ATOM     10  C   UNL     1       5.462   4.352  16.680  0.00  0.00    +0.000 A 
ATOM     11  H   UNL     1       7.170   5.733  14.756  0.00  0.00    +0.000 HD
BRANCH   6  12
ATOM     12  C   UNL     1       8.239   8.112  18.312  0.00  0.00    +0.000 C 
ATOM     13  C   UNL     1       8.480   9.383  17.937  0.00  0.00    +0.000 C 
BRANCH  13  14
ATOM     14  C   UNL     1       9.067  10.435  18.781  0.00  0.00    +0.000 A 
ATOM     15  C   UNL     1       9.568  11.593  18.190  0.00  0.00    +0.000 A 
ATOM     16  C   UNL     1      10.098  12.597  19.000  0.00  0.00    +0.000 A 
ATOM     17  C   UNL     1      10.111  12.420  20.377  0.00  0.00    +0.000 A 
ATOM     18  C   UNL     1       9.595  11.239  20.883  0.00  0.00    +0.000 A 
ATOM     19  N   UNL     1       9.077  10.244  20.121  0.00  0.00    +0.000 NA
ENDBRANCH  13  14
ENDBRANCH   6  12
ENDBRANCH   1   2
BRANCH   1  25
ATOM     20  C   UNL     1       2.134   4.037  19.964  0.00  0.00    +0.000 A 
ATOM     21  C   UNL     1       1.731   4.025  21.322  0.00  0.00    +0.000 A 
ATOM     22  C   UNL     1       1.865   2.890  22.119  0.00  0.00    +0.000 A 
ATOM     23  C   UNL     1       2.375   1.727  21.563  0.00  0.00    +0.000 A 
ATOM     24  C   UNL     1       2.784   1.718  20.223  0.00  0.00    +0.000 A 
ATOM     25  C   UNL     1       2.693   2.866  19.408  0.00  0.00    +0.000 A 
BRANCH  20  27
ATOM     26  N   UNL     1       2.173   6.506  19.922  0.00  0.00    +0.000 N 
ATOM     27  C   UNL     1       1.873   5.339  19.263  0.00  0.00    +0.000 C 
ATOM     28  O   UNL     1       1.383   5.263  18.135  0.00  0.00    +0.000 OA
ATOM     29  H   UNL     1       2.597   6.439  20.838  0.00  0.00    +0.000 HD
BRANCH  26  34
ATOM     30  C   UNL     1       1.072   9.938  19.465  0.00  0.00    +0.000 A 
ATOM     31  C   UNL     1       1.611  10.255  18.222  0.00  0.00    +0.000 A 
ATOM     32  C   UNL     1       2.386   9.309  17.564  0.00  0.00    +0.000 A 
ATOM     33  C   UNL     1       2.592   8.065  18.158  0.00  0.00    +0.000 A 
ATOM     34  C   UNL     1       1.999   7.799  19.388  0.00  0.00    +0.000 A 
ATOM     35  N   UNL     1       1.261   8.726  20.036  0.00  0.00    +0.000 NA
BRANCH  30  37
ATOM     36  C   UNL     1      -0.001  10.786  21.662  0.00  0.00    +0.000 C 
ATOM     37  C   UNL     1       0.237  10.984  20.172  0.00  0.00    +0.000 C 
ENDBRANCH  30  37
ENDBRANCH  26  34
ENDBRANCH  20  27
ENDBRANCH   1  25
TORSDOF 7
ENDMDL
MODEL 5
REMARK VINA RESULT:      -8.7      3.885     10.945
REMARK  Name = 
REMARK  8 active torsions:
REMARK  status: ('A' for Active; 'I' for Inactive)
REMARK    1  A    between atoms: C_1  and  C_2
REMARK    2  A    between atoms: C_2  and  C_3
REMARK    3  A    between atoms: C_7  and  N_8
REMARK    4  A    between atoms: C_9  and  C_11
REMARK    5  A    between atoms: C_16  and  S_17
REMARK    6  A    between atoms: S_17  and  C_18
REMARK    7  A    between atoms: C_22  and  C_23
REMARK    8  A    between atoms: C_24  and  C_25
REMARK                            x       y       z     vdW  Elec       q    Type
REMARK                         _______ _______ _______ _____ _____    ______ ____
ROOT
ATOM      1  S   UNL     1       0.585   9.553  20.604  0.00  0.00    +0.000 S 
ENDROOT
BRANCH   1   2
ATOM      2  C   UNL     1       1.675   8.387  19.799  0.00  0.00    +0.000 A 
ATOM      3  C   UNL     1       2.018   8.525  18.449  0.00  0.00    +0.000 A 
ATOM      4  C   UNL     1       2.722   7.515  17.764  0.00  0.00    +0.000 A 
ATOM      5  C   UNL     1       3.094   6.341  18.452  0.00  0.00    +0.000 A 
ATOM      6  C   UNL     1       3.777   5.119  18.144  0.00  0.00    +0.000 A 
ATOM      7  N   UNL     1       3.841   4.321  19.222  0.00  0.00    +0.000 NA
ATOM      8  N   UNL     1       3.218   5.013  20.187  0.00  0.00    +0.000 N 
ATOM      9  C   UNL     1       2.741   6.232  19.792  0.00  0.00    +0.000 A 
ATOM     10  C   UNL     1       2.029   7.219  20.492  0.00  0.00    +0.000 A 
ATOM     11  H   UNL     1       3.151   4.595  21.107  0.00  0.00    +0.000 HD
BRANCH   6  12
ATOM     12  C   UNL     1       4.323   4.759  16.860  0.00  0.00    +0.000 C 
ATOM     13  C   UNL     1       5.425   5.318  16.324  0.00  0.00    +0.000 C 
BRANCH  13  14
ATOM     14  C   UNL     1       6.034   4.962  15.033  0.00  0.00    +0.000 A 
ATOM     15  C   UNL     1       5.369   4.088  14.175  0.00  0.00    +0.000 A 
ATOM     16  C   UNL     1       5.941   3.776  12.942  0.00  0.00    +0.000 A 
ATOM     17  C   UNL     1       7.158   4.347  12.596  0.00  0.00    +0.000 A 
ATOM     18  C   UNL     1       7.753   5.204  13.507  0.00  0.00    +0.000 A 
ATOM     19  N   UNL     1       7.224   5.522  14.714  0.00  0.00    +0.000 NA
ENDBRANCH  13  14
ENDBRANCH   6  12
ENDBRANCH   1   2
BRANCH   1  25
ATOM     20  C   UNL     1       0.113  11.761  18.871  0.00  0.00    +0.000 A 
ATOM     21  C   UNL     1      -0.754  12.450  17.988  0.00  0.00    +0.000 A 
ATOM     22  C   UNL     1      -1.930  11.875  17.514  0.00  0.00    +0.000 A 
ATOM     23  C   UNL     1      -2.250  10.578  17.886  0.00  0.00    +0.000 A 
ATOM     24  C   UNL     1      -1.409   9.879  18.761  0.00  0.00    +0.000 A 
ATOM     25  C   UNL     1      -0.231  10.455  19.284  0.00  0.00    +0.000 A 
BRANCH  20  27
ATOM     26  N   UNL     1       1.270  13.437  20.267  0.00  0.00    +0.000 N 
ATOM     27  C   UNL     1       1.349  12.531  19.238  0.00  0.00    +0.000 C 
ATOM     28  O   UNL     1       2.355  12.302  18.564  0.00  0.00    +0.000 OA
ATOM     29  H   UNL     1       0.392  13.518  20.762  0.00  0.00    +0.000 HD
BRANCH  26  34
ATOM     30  C   UNL     1       4.315  14.467  21.960  0.00  0.00    +0.000 A 
ATOM     31  C   UNL     1       4.343  15.834  21.705  0.00  0.00    +0.000 A 
ATOM     32  C   UNL     1       3.344  16.392  20.918  0.00  0.00    +0.000 A 
ATOM     33  C   UNL     1       2.335  15.573  20.417  0.00  0.00    +0.000 A 
ATOM     34  C   UNL     1       2.346  14.219  20.734  0.00  0.00    +0.000 A 
ATOM     35  N   UNL     1       3.328  13.674  21.484  0.00  0.00    +0.000 NA
BRANCH  30  37
ATOM     36  C   UNL     1       5.660  14.515  24.170  0.00  0.00    +0.000 C 
ATOM     37  C   UNL     1       5.416  13.874  22.813  0.00  0.00    +0.000 C 
ENDBRANCH  30  37
ENDBRANCH  26  34
ENDBRANCH  20  27
ENDBRANCH   1  25
TORSDOF 7
ENDMDL
MODEL 6
REMARK VINA RESULT:      -8.6      1.860      2.473
REMARK  Name = 
REMARK  8 active torsions:
REMARK  status: ('A' for Active; 'I' for Inactive)
REMARK    1  A    between atoms: C_1  and  C_2
REMARK    2  A    between atoms: C_2  and  C_3
REMARK    3  A    between atoms: C_7  and  N_8
REMARK    4  A    between atoms: C_9  and  C_11
REMARK    5  A    between atoms: C_16  and  S_17
REMARK    6  A    between atoms: S_17  and  C_18
REMARK    7  A    between atoms: C_22  and  C_23
REMARK    8  A    between atoms: C_24  and  C_25
REMARK                            x       y       z     vdW  Elec       q    Type
REMARK                         _______ _______ _______ _____ _____    ______ ____
ROOT
ATOM      1  S   UNL     1       3.472   6.023  19.479  0.00  0.00    +0.000 S 
ENDROOT
BRANCH   1   2
ATOM      2  C   UNL     1       2.293   7.347  19.700  0.00  0.00    +0.000 A 
ATOM      3  C   UNL     1       2.178   8.382  18.763  0.00  0.00    +0.000 A 
ATOM      4  C   UNL     1       1.388   9.520  19.020  0.00  0.00    +0.000 A 
ATOM      5  C   UNL     1       0.693   9.619  20.244  0.00  0.00    +0.000 A 
ATOM      6  C   UNL     1      -0.174  10.566  20.882  0.00  0.00    +0.000 A 
ATOM      7  N   UNL     1      -0.549  10.130  22.095  0.00  0.00    +0.000 NA
ATOM      8  N   UNL     1       0.059   8.942  22.225  0.00  0.00    +0.000 N 
ATOM      9  C   UNL     1       0.825   8.575  21.153  0.00  0.00    +0.000 A 
ATOM     10  C   UNL     1       1.615   7.439  20.924  0.00  0.00    +0.000 A 
ATOM     11  H   UNL     1      -0.090   8.421  23.082  0.00  0.00    +0.000 HD
BRANCH   6  12
ATOM     12  C   UNL     1      -0.595  11.829  20.329  0.00  0.00    +0.000 C 
ATOM     13  C   UNL     1      -0.160  13.027  20.765  0.00  0.00    +0.000 C 
BRANCH  13  14
ATOM     14  C   UNL     1      -0.539  14.336  20.212  0.00  0.00    +0.000 A 
ATOM     15  C   UNL     1       0.089  14.807  19.060  0.00  0.00    +0.000 A 
ATOM     16  C   UNL     1      -0.295  16.037  18.529  0.00  0.00    +0.000 A 
ATOM     17  C   UNL     1      -1.298  16.763  19.157  0.00  0.00    +0.000 A 
ATOM     18  C   UNL     1      -1.870  16.224  20.297  0.00  0.00    +0.000 A 
ATOM     19  N   UNL     1      -1.514  15.034  20.840  0.00  0.00    +0.000 NA
ENDBRANCH  13  14
ENDBRANCH   6  12
ENDBRANCH   1   2
BRANCH   1  25
ATOM     20  C   UNL     1       2.664   3.533  18.361  0.00  0.00    +0.000 A 
ATOM     21  C   UNL     1       1.688   2.514  18.240  0.00  0.00    +0.000 A 
ATOM     22  C   UNL     1       0.580   2.453  19.083  0.00  0.00    +0.000 A 
ATOM     23  C   UNL     1       0.443   3.393  20.093  0.00  0.00    +0.000 A 
ATOM     24  C   UNL     1       1.395   4.411  20.228  0.00  0.00    +0.000 A 
ATOM     25  C   UNL     1       2.504   4.515  19.362  0.00  0.00    +0.000 A 
BRANCH  20  27
ATOM     26  N   UNL     1       4.092   4.480  16.583  0.00  0.00    +0.000 N 
ATOM     27  C   UNL     1       3.802   3.406  17.388  0.00  0.00    +0.000 C 
ATOM     28  O   UNL     1       4.388   2.323  17.373  0.00  0.00    +0.000 OA
ATOM     29  H   UNL     1       3.553   5.326  16.707  0.00  0.00    +0.000 HD
BRANCH  26  34
ATOM     30  C   UNL     1       6.041   3.947  13.563  0.00  0.00    +0.000 A 
ATOM     31  C   UNL     1       7.260   4.526  13.896  0.00  0.00    +0.000 A 
ATOM     32  C   UNL     1       7.399   5.135  15.136  0.00  0.00    +0.000 A 
ATOM     33  C   UNL     1       6.320   5.140  16.018  0.00  0.00    +0.000 A 
ATOM     34  C   UNL     1       5.137   4.516  15.636  0.00  0.00    +0.000 A 
ATOM     35  N   UNL     1       4.996   3.940  14.423  0.00  0.00    +0.000 NA
BRANCH  30  37
ATOM     36  C   UNL     1       4.503   3.206  11.618  0.00  0.00    +0.000 C 
ATOM     37  C   UNL     1       5.904   3.294  12.204  0.00  0.00    +0.000 C 
ENDBRANCH  30  37
ENDBRANCH  26  34
ENDBRANCH  20  27
ENDBRANCH   1  25
TORSDOF 7
ENDMDL
MODEL 7
REMARK VINA RESULT:      -8.5      4.114     10.955
REMARK  Name = 
REMARK  8 active torsions:
REMARK  status: ('A' for Active; 'I' for Inactive)
REMARK    1  A    between atoms: C_1  and  C_2
REMARK    2  A    between atoms: C_2  and  C_3
REMARK    3  A    between atoms: C_7  and  N_8
REMARK    4  A    between atoms: C_9  and  C_11
REMARK    5  A    between atoms: C_16  and  S_17
REMARK    6  A    between atoms: S_17  and  C_18
REMARK    7  A    between atoms: C_22  and  C_23
REMARK    8  A    between atoms: C_24  and  C_25
REMARK                            x       y       z     vdW  Elec       q    Type
REMARK                         _______ _______ _______ _____ _____    ______ ____
ROOT
ATOM      1  S   UNL     1       0.164   9.956  20.237  0.00  0.00    +0.000 S 
ENDROOT
BRANCH   1   2
ATOM      2  C   UNL     1       1.338   8.829  19.497  0.00  0.00    +0.000 A 
ATOM      3  C   UNL     1       1.638   8.886  18.130  0.00  0.00    +0.000 A 
ATOM      4  C   UNL     1       2.415   7.890  17.507  0.00  0.00    +0.000 A 
ATOM      5  C   UNL     1       2.906   6.813  18.275  0.00  0.00    +0.000 A 
ATOM      6  C   UNL     1       3.691   5.635  18.046  0.00  0.00    +0.000 A 
ATOM      7  N   UNL     1       3.851   4.937  19.182  0.00  0.00    +0.000 NA
ATOM      8  N   UNL     1       3.189   5.648  20.106  0.00  0.00    +0.000 N 
ATOM      9  C   UNL     1       2.594   6.784  19.630  0.00  0.00    +0.000 A 
ATOM     10  C   UNL     1       1.812   7.758  20.269  0.00  0.00    +0.000 A 
ATOM     11  H   UNL     1       3.180   5.302  21.059  0.00  0.00    +0.000 HD
BRANCH   6  12
ATOM     12  C   UNL     1       4.239   5.221  16.779  0.00  0.00    +0.000 C 
ATOM     13  C   UNL     1       5.511   5.446  16.397  0.00  0.00    +0.000 C 
BRANCH  13  14
ATOM     14  C   UNL     1       6.120   5.016  15.129  0.00  0.00    +0.000 A 
ATOM     15  C   UNL     1       5.484   4.051  14.350  0.00  0.00    +0.000 A 
ATOM     16  C   UNL     1       6.055   3.668  13.137  0.00  0.00    +0.000 A 
ATOM     17  C   UNL     1       7.242   4.261  12.731  0.00  0.00    +0.000 A 
ATOM     18  C   UNL     1       7.810   5.211  13.563  0.00  0.00    +0.000 A 
ATOM     19  N   UNL     1       7.281   5.599  14.750  0.00  0.00    +0.000 NA
ENDBRANCH  13  14
ENDBRANCH   6  12
ENDBRANCH   1   2
BRANCH   1  25
ATOM     20  C   UNL     1      -1.176  11.794  18.527  0.00  0.00    +0.000 A 
ATOM     21  C   UNL     1      -2.241  12.071  17.635  0.00  0.00    +0.000 A 
ATOM     22  C   UNL     1      -3.057  11.063  17.128  0.00  0.00    +0.000 A 
ATOM     23  C   UNL     1      -2.801   9.744  17.475  0.00  0.00    +0.000 A 
ATOM     24  C   UNL     1      -1.755   9.448  18.357  0.00  0.00    +0.000 A 
ATOM     25  C   UNL     1      -0.940  10.457  18.913  0.00  0.00    +0.000 A 
BRANCH  20  27
ATOM     26  N   UNL     1       0.789  13.269  18.273  0.00  0.00    +0.000 N 
ATOM     27  C   UNL     1      -0.388  13.007  18.931  0.00  0.00    +0.000 C 
ATOM     28  O   UNL     1      -0.855  13.679  19.852  0.00  0.00    +0.000 OA
ATOM     29  H   UNL     1       1.055  12.656  17.514  0.00  0.00    +0.000 HD
BRANCH  26  34
ATOM     30  C   UNL     1       1.994  16.675  18.659  0.00  0.00    +0.000 A 
ATOM     31  C   UNL     1       3.345  16.478  18.925  0.00  0.00    +0.000 A 
ATOM     32  C   UNL     1       3.831  15.180  19.014  0.00  0.00    +0.000 A 
ATOM     33  C   UNL     1       2.958  14.111  18.823  0.00  0.00    +0.000 A 
ATOM     34  C   UNL     1       1.625  14.375  18.529  0.00  0.00    +0.000 A 
ATOM     35  N   UNL     1       1.149  15.637  18.460  0.00  0.00    +0.000 NA
BRANCH  30  37
ATOM     36  C   UNL     1       0.862  18.527  17.251  0.00  0.00    +0.000 C 
ATOM     37  C   UNL     1       1.479  18.096  18.573  0.00  0.00    +0.000 C 
ENDBRANCH  30  37
ENDBRANCH  26  34
ENDBRANCH  20  27
ENDBRANCH   1  25
TORSDOF 7
ENDMDL
MODEL 8
REMARK VINA RESULT:      -8.5      1.991      3.067
REMARK  Name = 
REMARK  8 active torsions:
REMARK  status: ('A' for Active; 'I' for Inactive)
REMARK    1  A    between atoms: C_1  and  C_2
REMARK    2  A    between atoms: C_2  and  C_3
REMARK    3  A    between atoms: C_7  and  N_8
REMARK    4  A    between atoms: C_9  and  C_11
REMARK    5  A    between atoms: C_16  and  S_17
REMARK    6  A    between atoms: S_17  and  C_18
REMARK    7  A    between atoms: C_22  and  C_23
REMARK    8  A    between atoms: C_24  and  C_25
REMARK                            x       y       z     vdW  Elec       q    Type
REMARK                         _______ _______ _______ _____ _____    ______ ____
ROOT
ATOM      1  S   UNL     1       3.451   5.396  17.833  0.00  0.00    +0.000 S 
ENDROOT
BRANCH   1   2
ATOM      2  C   UNL     1       2.775   6.900  18.523  0.00  0.00    +0.000 A 
ATOM      3  C   UNL     1       2.090   6.896  19.743  0.00  0.00    +0.000 A 
ATOM      4  C   UNL     1       1.398   8.035  20.201  0.00  0.00    +0.000 A 
ATOM      5  C   UNL     1       1.398   9.207  19.415  0.00  0.00    +0.000 A 
ATOM      6  C   UNL     1       0.838  10.524  19.499  0.00  0.00    +0.000 A 
ATOM      7  N   UNL     1       1.167  11.254  18.421  0.00  0.00    +0.000 NA
ATOM      8  N   UNL     1       1.913  10.428  17.674  0.00  0.00    +0.000 N 
ATOM      9  C   UNL     1       2.088   9.182  18.208  0.00  0.00    +0.000 A 
ATOM     10  C   UNL     1       2.774   8.056  17.727  0.00  0.00    +0.000 A 
ATOM     11  H   UNL     1       2.281  10.779  16.796  0.00  0.00    +0.000 HD
BRANCH   6  12
ATOM     12  C   UNL     1       0.020  11.025  20.575  0.00  0.00    +0.000 C 
ATOM     13  C   UNL     1      -1.140  11.686  20.397  0.00  0.00    +0.000 C 
BRANCH  13  14
ATOM     14  C   UNL     1      -2.020  12.187  21.463  0.00  0.00    +0.000 A 
ATOM     15  C   UNL     1      -1.890  11.687  22.757  0.00  0.00    +0.000 A 
ATOM     16  C   UNL     1      -2.711  12.187  23.767  0.00  0.00    +0.000 A 
ATOM     17  C   UNL     1      -3.637  13.174  23.461  0.00  0.00    +0.000 A 
ATOM     18  C   UNL     1      -3.703  13.616  22.150  0.00  0.00    +0.000 A 
ATOM     19  N   UNL     1      -2.922  13.146  21.147  0.00  0.00    +0.000 NA
ENDBRANCH  13  14
ENDBRANCH   6  12
ENDBRANCH   1   2
BRANCH   1  25
ATOM     20  C   UNL     1       6.180   5.285  17.033  0.00  0.00    +0.000 A 
ATOM     21  C   UNL     1       7.547   5.170  17.386  0.00  0.00    +0.000 A 
ATOM     22  C   UNL     1       7.977   5.276  18.706  0.00  0.00    +0.000 A 
ATOM     23  C   UNL     1       7.049   5.536  19.704  0.00  0.00    +0.000 A 
ATOM     24  C   UNL     1       5.692   5.649  19.378  0.00  0.00    +0.000 A 
ATOM     25  C   UNL     1       5.229   5.508  18.052  0.00  0.00    +0.000 A 
BRANCH  20  27
ATOM     26  N   UNL     1       6.255   4.014  14.917  0.00  0.00    +0.000 N 
ATOM     27  C   UNL     1       5.920   5.182  15.557  0.00  0.00    +0.000 C 
ATOM     28  O   UNL     1       5.434   6.177  15.018  0.00  0.00    +0.000 OA
ATOM     29  H   UNL     1       6.625   3.256  15.474  0.00  0.00    +0.000 HD
BRANCH  26  34
ATOM     30  C   UNL     1       4.662   3.353  11.719  0.00  0.00    +0.000 A 
ATOM     31  C   UNL     1       5.756   3.159  10.882  0.00  0.00    +0.000 A 
ATOM     32  C   UNL     1       7.035   3.298  11.404  0.00  0.00    +0.000 A 
ATOM     33  C   UNL     1       7.190   3.614  12.753  0.00  0.00    +0.000 A 
ATOM     34  C   UNL     1       6.056   3.764  13.544  0.00  0.00    +0.000 A 
ATOM     35  N   UNL     1       4.812   3.647  13.031  0.00  0.00    +0.000 NA
BRANCH  30  37
ATOM     36  C   UNL     1       2.985   3.963   9.845  0.00  0.00    +0.000 C 
ATOM     37  C   UNL     1       3.275   3.205  11.132  0.00  0.00    +0.000 C 
ENDBRANCH  30  37
ENDBRANCH  26  34
ENDBRANCH  20  27
ENDBRANCH   1  25
TORSDOF 7
ENDMDL
MODEL 9
REMARK VINA RESULT:      -8.5      4.416      8.889
REMARK  Name = 
REMARK  8 active torsions:
REMARK  status: ('A' for Active; 'I' for Inactive)
REMARK    1  A    between atoms: C_1  and  C_2
REMARK    2  A    between atoms: C_2  and  C_3
REMARK    3  A    between atoms: C_7  and  N_8
REMARK    4  A    between atoms: C_9  and  C_11
REMARK    5  A    between atoms: C_16  and  S_17
REMARK    6  A    between atoms: S_17  and  C_18
REMARK    7  A    between atoms: C_22  and  C_23
REMARK    8  A    between atoms: C_24  and  C_25
REMARK                            x       y       z     vdW  Elec       q    Type
REMARK                         _______ _______ _______ _____ _____    ______ ____
ROOT
ATOM      1  S   UNL     1       3.444   3.817  17.281  0.00  0.00    +0.000 S 
ENDROOT
BRANCH   1   2
ATOM      2  C   UNL     1       4.633   5.107  17.628  0.00  0.00    +0.000 A 
ATOM      3  C   UNL     1       4.624   6.313  16.917  0.00  0.00    +0.000 A 
ATOM      4  C   UNL     1       5.664   7.253  17.055  0.00  0.00    +0.000 A 
ATOM      5  C   UNL     1       6.736   6.977  17.930  0.00  0.00    +0.000 A 
ATOM      6  C   UNL     1       7.948   7.625  18.339  0.00  0.00    +0.000 A 
ATOM      7  N   UNL     1       8.619   6.871  19.224  0.00  0.00    +0.000 NA
ATOM      8  N   UNL     1       7.860   5.777  19.374  0.00  0.00    +0.000 N 
ATOM      9  C   UNL     1       6.717   5.772  18.623  0.00  0.00    +0.000 A 
ATOM     10  C   UNL     1       5.698   4.816  18.493  0.00  0.00    +0.000 A 
ATOM     11  H   UNL     1       8.179   5.058  20.013  0.00  0.00    +0.000 HD
BRANCH   6  12
ATOM     12  C   UNL     1       8.416   8.907  17.875  0.00  0.00    +0.000 C 
ATOM     13  C   UNL     1       9.052   9.805  18.651  0.00  0.00    +0.000 C 
BRANCH  13  14
ATOM     14  C   UNL     1       9.573  11.109  18.213  0.00  0.00    +0.000 A 
ATOM     15  C   UNL     1      10.945  11.283  18.045  0.00  0.00    +0.000 A 
ATOM     16  C   UNL     1      11.427  12.515  17.604  0.00  0.00    +0.000 A 
ATOM     17  C   UNL     1      10.528  13.539  17.339  0.00  0.00    +0.000 A 
ATOM     18  C   UNL     1       9.181  13.284  17.532  0.00  0.00    +0.000 A 
ATOM     19  N   UNL     1       8.683  12.099  17.964  0.00  0.00    +0.000 NA
ENDBRANCH  13  14
ENDBRANCH   6  12
ENDBRANCH   1   2
BRANCH   1  25
ATOM     20  C   UNL     1       2.126   4.321  19.753  0.00  0.00    +0.000 A 
ATOM     21  C   UNL     1       1.793   3.896  21.062  0.00  0.00    +0.000 A 
ATOM     22  C   UNL     1       2.014   2.589  21.489  0.00  0.00    +0.000 A 
ATOM     23  C   UNL     1       2.543   1.664  20.601  0.00  0.00    +0.000 A 
ATOM     24  C   UNL     1       2.883   2.064  19.303  0.00  0.00    +0.000 A 
ATOM     25  C   UNL     1       2.703   3.392  18.860  0.00  0.00    +0.000 A 
BRANCH  20  27
ATOM     26  N   UNL     1       1.769   6.642  20.517  0.00  0.00    +0.000 N 
ATOM     27  C   UNL     1       1.776   5.754  19.470  0.00  0.00    +0.000 C 
ATOM     28  O   UNL     1       1.498   6.027  18.301  0.00  0.00    +0.000 OA
ATOM     29  H   UNL     1       2.040   6.302  21.430  0.00  0.00    +0.000 HD
BRANCH  26  34
ATOM     30  C   UNL     1       1.571  10.040  19.247  0.00  0.00    +0.000 A 
ATOM     31  C   UNL     1       0.982  10.716  20.311  0.00  0.00    +0.000 A 
ATOM     32  C   UNL     1       0.614   9.999  21.442  0.00  0.00    +0.000 A 
ATOM     33  C   UNL     1       0.856   8.628  21.488  0.00  0.00    +0.000 A 
ATOM     34  C   UNL     1       1.477   8.017  20.404  0.00  0.00    +0.000 A 
ATOM     35  N   UNL     1       1.818   8.711  19.297  0.00  0.00    +0.000 NA
BRANCH  30  37
ATOM     36  C   UNL     1       2.332  12.295  18.230  0.00  0.00    +0.000 C 
ATOM     37  C   UNL     1       1.959  10.835  18.019  0.00  0.00    +0.000 C 
ENDBRANCH  30  37
ENDBRANCH  26  34
ENDBRANCH  20  27
ENDBRANCH   1  25
TORSDOF 7
ENDMDL
