MODEL 1
REMARK VINA RESULT:      -5.0      0.000      0.000
REMARK  Name = 
REMARK  13 active torsions:
REMARK  status: ('A' for Active; 'I' for Inactive)
REMARK    1  A    between atoms: C_1  and  C_2
REMARK    2  A    between atoms: C_2  and  C_3
REMARK    3  A    between atoms: C_3  and  C_4
REMARK    4  A    between atoms: C_4  and  C_5
REMARK    5  A    between atoms: C_5  and  C_6
REMARK    6  A    between atoms: C_6  and  O_7
REMARK    7  A    between atoms: O_7  and  C_8
REMARK    8  A    between atoms: C_8  and  C_10
REMARK    9  A    between atoms: C_10  and  C_11
REMARK   10  A    between atoms: C_11  and  C_12
REMARK   11  A    between atoms: C_12  and  C_13
REMARK   12  A    between atoms: C_13  and  C_14
REMARK   13  A    between atoms: C_14  and  N_15
REMARK                            x       y       z     vdW  Elec       q    Type
REMARK                         _______ _______ _______ _____ _____    ______ ____
ROOT
ATOM      1  C   UNL     1       4.590   3.003  19.002  0.00  0.00    +0.000 C 
ATOM      2  O   UNL     1       4.677   2.407  20.061  0.00  0.00    +0.000 OA
ENDROOT
BRANCH   1   3
ATOM      3  O   UNL     1       5.279   4.140  18.694  0.00  0.00    +0.000 OA
BRANCH   3   4
ATOM      4  C   UNL     1       4.647   5.324  19.189  0.00  0.00    +0.000 C 
BRANCH   4   5
ATOM      5  C   UNL     1       4.174   6.231  18.064  0.00  0.00    +0.000 C 
BRANCH   5   6
ATOM      6  C   UNL     1       5.346   6.617  17.155  0.00  0.00    +0.000 C 
BRANCH   6   7
ATOM      7  C   UNL     1       5.163   6.066  15.742  0.00  0.00    +0.000 C 
BRANCH   7   9
ATOM      8  C   UNL     1       5.994   3.787  15.080  0.00  0.00    +0.000 C 
ATOM      9  C   UNL     1       6.372   5.243  15.298  0.00  0.00    +0.000 C 
ENDBRANCH   7   9
ENDBRANCH   6   7
ENDBRANCH   5   6
ENDBRANCH   4   5
ENDBRANCH   3   4
ENDBRANCH   1   3
BRANCH   1  10
ATOM     10  C   UNL     1       3.639   2.666  17.871  0.00  0.00    +0.000 C 
BRANCH  10  11
ATOM     11  C   UNL     1       2.234   2.415  18.418  0.00  0.00    +0.000 C 
BRANCH  11  12
ATOM     12  C   UNL     1       1.425   3.703  18.564  0.00  0.00    +0.000 C 
BRANCH  12  13
ATOM     13  C   UNL     1       1.114   3.988  20.037  0.00  0.00    +0.000 C 
BRANCH  13  14
ATOM     14  C   UNL     1       1.257   2.729  20.892  0.00  0.00    +0.000 C 
BRANCH  14  15
ATOM     15  N   UNL     1       2.217   2.955  21.966  0.00  0.00    +0.000 NA
ATOM     16  H   UNL     1       2.384   2.082  22.466  0.00  0.00    +0.000 HD
ATOM     17  H   UNL     1       1.818   3.601  22.646  0.00  0.00    +0.000 HD
ENDBRANCH  14  15
ENDBRANCH  13  14
ENDBRANCH  12  13
ENDBRANCH  11  12
ENDBRANCH  10  11
ENDBRANCH   1  10
TORSDOF 12
ENDMDL
MODEL 2
REMARK VINA RESULT:      -4.8      2.198      5.103
REMARK  Name = 
REMARK  13 active torsions:
REMARK  status: ('A' for Active; 'I' for Inactive)
REMARK    1  A    between atoms: C_1  and  C_2
REMARK    2  A    between atoms: C_2  and  C_3
REMARK    3  A    between atoms: C_3  and  C_4
REMARK    4  A    between atoms: C_4  and  C_5
REMARK    5  A    between atoms: C_5  and  C_6
REMARK    6  A    between atoms: C_6  and  O_7
REMARK    7  A    between atoms: O_7  and  C_8
REMARK    8  A    between atoms: C_8  and  C_10
REMARK    9  A    between atoms: C_10  and  C_11
REMARK   10  A    between atoms: C_11  and  C_12
REMARK   11  A    between atoms: C_12  and  C_13
REMARK   12  A    between atoms: C_13  and  C_14
REMARK   13  A    between atoms: C_14  and  N_15
REMARK                            x       y       z     vdW  Elec       q    Type
REMARK                         _______ _______ _______ _____ _____    ______ ____
ROOT
ATOM      1  C   UNL     1       4.387   5.316  19.429  0.00  0.00    +0.000 C 
ATOM      2  O   UNL     1       5.564   5.546  19.639  0.00  0.00    +0.000 OA
ENDROOT
BRANCH   1   3
ATOM      3  O   UNL     1       3.601   4.521  20.213  0.00  0.00    +0.000 OA
BRANCH   3   4
ATOM      4  C   UNL     1       2.296   5.067  20.424  0.00  0.00    +0.000 C 
BRANCH   4   5
ATOM      5  C   UNL     1       1.275   3.990  20.764  0.00  0.00    +0.000 C 
BRANCH   5   6
ATOM      6  C   UNL     1       0.664   3.407  19.485  0.00  0.00    +0.000 C 
BRANCH   6   7
ATOM      7  C   UNL     1       1.351   2.104  19.081  0.00  0.00    +0.000 C 
BRANCH   7   9
ATOM      8  C   UNL     1       3.629   1.754  18.074  0.00  0.00    +0.000 C 
ATOM      9  C   UNL     1       2.226   2.292  17.842  0.00  0.00    +0.000 C 
ENDBRANCH   7   9
ENDBRANCH   6   7
ENDBRANCH   5   6
ENDBRANCH   4   5
ENDBRANCH   3   4
ENDBRANCH   1   3
BRANCH   1  10
ATOM     10  C   UNL     1       3.596   5.775  18.220  0.00  0.00    +0.000 C 
BRANCH  10  11
ATOM     11  C   UNL     1       4.460   6.673  17.333  0.00  0.00    +0.000 C 
BRANCH  11  12
ATOM     12  C   UNL     1       5.109   5.905  16.183  0.00  0.00    +0.000 C 
BRANCH  12  13
ATOM     13  C   UNL     1       6.634   5.887  16.332  0.00  0.00    +0.000 C 
BRANCH  13  14
ATOM     14  C   UNL     1       7.157   4.467  16.545  0.00  0.00    +0.000 C 
BRANCH  14  15
ATOM     15  N   UNL     1       7.689   4.321  17.895  0.00  0.00    +0.000 NA
ATOM     16  H   UNL     1       6.927   4.137  18.546  0.00  0.00    +0.000 HD
ATOM     17  H   UNL     1       8.109   5.202  18.190  0.00  0.00    +0.000 HD
ENDBRANCH  14  15
ENDBRANCH  13  14
ENDBRANCH  12  13
ENDBRANCH  11  12
ENDBRANCH  10  11
ENDBRANCH   1  10
TORSDOF 12
ENDMDL
MODEL 3
REMARK VINA RESULT:      -4.8      2.503      5.688
REMARK  Name = 
REMARK  13 active torsions:
REMARK  status: ('A' for Active; 'I' for Inactive)
REMARK    1  A    between atoms: C_1  and  C_2
REMARK    2  A    between atoms: C_2  and  C_3
REMARK    3  A    between atoms: C_3  and  C_4
REMARK    4  A    between atoms: C_4  and  C_5
REMARK    5  A    between atoms: C_5  and  C_6
REMARK    6  A    between atoms: C_6  and  O_7
REMARK    7  A    between atoms: O_7  and  C_8
REMARK    8  A    between atoms: C_8  and  C_10
REMARK    9  A    between atoms: C_10  and  C_11
REMARK   10  A    between atoms: C_11  and  C_12
REMARK   11  A    between atoms: C_12  and  C_13
REMARK   12  A    between atoms: C_13  and  C_14
REMARK   13  A    between atoms: C_14  and  N_15
REMARK                            x       y       z     vdW  Elec       q    Type
REMARK                         _______ _______ _______ _____ _____    ______ ____
ROOT
ATOM      1  C   UNL     1       5.232   4.506  18.673  0.00  0.00    +0.000 C 
ATOM      2  O   UNL     1       6.387   4.622  19.041  0.00  0.00    +0.000 OA
ENDROOT
BRANCH   1   3
ATOM      3  O   UNL     1       4.529   3.336  18.687  0.00  0.00    +0.000 OA
BRANCH   3   4
ATOM      4  C   UNL     1       3.465   3.316  17.731  0.00  0.00    +0.000 C 
BRANCH   4   5
ATOM      5  C   UNL     1       2.632   2.047  17.829  0.00  0.00    +0.000 C 
BRANCH   5   6
ATOM      6  C   UNL     1       1.438   2.259  18.767  0.00  0.00    +0.000 C 
BRANCH   6   7
ATOM      7  C   UNL     1       1.187   3.744  19.023  0.00  0.00    +0.000 C 
BRANCH   7   9
ATOM      8  C   UNL     1       1.437   2.813  21.346  0.00  0.00    +0.000 C 
ATOM      9  C   UNL     1       1.169   4.060  20.519  0.00  0.00    +0.000 C 
ENDBRANCH   7   9
ENDBRANCH   6   7
ENDBRANCH   5   6
ENDBRANCH   4   5
ENDBRANCH   3   4
ENDBRANCH   1   3
BRANCH   1  10
ATOM     10  C   UNL     1       4.389   5.595  18.041  0.00  0.00    +0.000 C 
BRANCH  10  11
ATOM     11  C   UNL     1       5.268   6.528  17.208  0.00  0.00    +0.000 C 
BRANCH  11  12
ATOM     12  C   UNL     1       5.250   6.174  15.721  0.00  0.00    +0.000 C 
BRANCH  12  13
ATOM     13  C   UNL     1       6.481   5.345  15.343  0.00  0.00    +0.000 C 
BRANCH  13  14
ATOM     14  C   UNL     1       6.131   3.867  15.180  0.00  0.00    +0.000 C 
BRANCH  14  15
ATOM     15  N   UNL     1       6.254   3.469  13.783  0.00  0.00    +0.000 NA
ATOM     16  H   UNL     1       6.979   4.024  13.330  0.00  0.00    +0.000 HD
ATOM     17  H   UNL     1       5.385   3.682  13.293  0.00  0.00    +0.000 HD
ENDBRANCH  14  15
ENDBRANCH  13  14
ENDBRANCH  12  13
ENDBRANCH  11  12
ENDBRANCH  10  11
ENDBRANCH   1  10
TORSDOF 12
ENDMDL
MODEL 4
REMARK VINA RESULT:      -4.7      2.330      5.507
REMARK  Name = 
REMARK  13 active torsions:
REMARK  status: ('A' for Active; 'I' for Inactive)
REMARK    1  A    between atoms: C_1  and  C_2
REMARK    2  A    between atoms: C_2  and  C_3
REMARK    3  A    between atoms: C_3  and  C_4
REMARK    4  A    between atoms: C_4  and  C_5
REMARK    5  A    between atoms: C_5  and  C_6
REMARK    6  A    between atoms: C_6  and  O_7
REMARK    7  A    between atoms: O_7  and  C_8
REMARK    8  A    between atoms: C_8  and  C_10
REMARK    9  A    between atoms: C_10  and  C_11
REMARK   10  A    between atoms: C_11  and  C_12
REMARK   11  A    between atoms: C_12  and  C_13
REMARK   12  A    between atoms: C_13  and  C_14
REMARK   13  A    between atoms: C_14  and  N_15
REMARK                            x       y       z     vdW  Elec       q    Type
REMARK                         _______ _______ _______ _____ _____    ______ ____
ROOT
ATOM      1  C   UNL     1       4.081   4.600  17.690  0.00  0.00    +0.000 C 
ATOM      2  O   UNL     1       3.600   3.834  16.874  0.00  0.00    +0.000 OA
ENDROOT
BRANCH   1   3
ATOM      3  O   UNL     1       4.514   4.236  18.932  0.00  0.00    +0.000 OA
BRANCH   3   4
ATOM      4  C   UNL     1       4.324   2.845  19.201  0.00  0.00    +0.000 C 
BRANCH   4   5
ATOM      5  C   UNL     1       3.335   2.612  20.334  0.00  0.00    +0.000 C 
BRANCH   5   6
ATOM      6  C   UNL     1       1.922   2.401  19.778  0.00  0.00    +0.000 C 
BRANCH   6   7
ATOM      7  C   UNL     1       1.050   3.638  19.983  0.00  0.00    +0.000 C 
BRANCH   7   9
ATOM      8  C   UNL     1       1.828   5.986  20.439  0.00  0.00    +0.000 C 
ATOM      9  C   UNL     1       1.658   4.589  21.014  0.00  0.00    +0.000 C 
ENDBRANCH   7   9
ENDBRANCH   6   7
ENDBRANCH   5   6
ENDBRANCH   4   5
ENDBRANCH   3   4
ENDBRANCH   1   3
BRANCH   1  10
ATOM     10  C   UNL     1       4.199   6.103  17.532  0.00  0.00    +0.000 C 
BRANCH  10  11
ATOM     11  C   UNL     1       5.059   6.441  16.314  0.00  0.00    +0.000 C 
BRANCH  11  12
ATOM     12  C   UNL     1       6.499   5.950  16.461  0.00  0.00    +0.000 C 
BRANCH  12  13
ATOM     13  C   UNL     1       7.226   6.716  17.571  0.00  0.00    +0.000 C 
BRANCH  13  14
ATOM     14  C   UNL     1       7.712   5.775  18.672  0.00  0.00    +0.000 C 
BRANCH  14  15
ATOM     15  N   UNL     1       7.599   4.388  18.238  0.00  0.00    +0.000 NA
ATOM     16  H   UNL     1       8.234   3.805  18.782  0.00  0.00    +0.000 HD
ATOM     17  H   UNL     1       7.902   4.311  17.268  0.00  0.00    +0.000 HD
ENDBRANCH  14  15
ENDBRANCH  13  14
ENDBRANCH  12  13
ENDBRANCH  11  12
ENDBRANCH  10  11
ENDBRANCH   1  10
TORSDOF 12
ENDMDL
MODEL 5
REMARK VINA RESULT:      -4.7      1.506      2.304
REMARK  Name = 
REMARK  13 active torsions:
REMARK  status: ('A' for Active; 'I' for Inactive)
REMARK    1  A    between atoms: C_1  and  C_2
REMARK    2  A    between atoms: C_2  and  C_3
REMARK    3  A    between atoms: C_3  and  C_4
REMARK    4  A    between atoms: C_4  and  C_5
REMARK    5  A    between atoms: C_5  and  C_6
REMARK    6  A    between atoms: C_6  and  O_7
REMARK    7  A    between atoms: O_7  and  C_8
REMARK    8  A    between atoms: C_8  and  C_10
REMARK    9  A    between atoms: C_10  and  C_11
REMARK   10  A    between atoms: C_11  and  C_12
REMARK   11  A    between atoms: C_12  and  C_13
REMARK   12  A    between atoms: C_13  and  C_14
REMARK   13  A    between atoms: C_14  and  N_15
REMARK                            x       y       z     vdW  Elec       q    Type
REMARK                         _______ _______ _______ _____ _____    ______ ____
ROOT
ATOM      1  C   UNL     1       3.992   3.260  18.415  0.00  0.00    +0.000 C 
ATOM      2  O   UNL     1       4.394   2.556  19.325  0.00  0.00    +0.000 OA
ENDROOT
BRANCH   1   3
ATOM      3  O   UNL     1       4.598   4.410  18.000  0.00  0.00    +0.000 OA
BRANCH   3   4
ATOM      4  C   UNL     1       5.085   4.327  16.657  0.00  0.00    +0.000 C 
BRANCH   4   5
ATOM      5  C   UNL     1       5.064   5.677  15.957  0.00  0.00    +0.000 C 
BRANCH   5   6
ATOM      6  C   UNL     1       5.756   6.740  16.819  0.00  0.00    +0.000 C 
BRANCH   6   7
ATOM      7  C   UNL     1       7.254   6.468  16.943  0.00  0.00    +0.000 C 
BRANCH   7   9
ATOM      8  C   UNL     1       8.132   8.641  17.856  0.00  0.00    +0.000 C 
ATOM      9  C   UNL     1       7.855   7.177  18.157  0.00  0.00    +0.000 C 
ENDBRANCH   7   9
ENDBRANCH   6   7
ENDBRANCH   5   6
ENDBRANCH   4   5
ENDBRANCH   3   4
ENDBRANCH   1   3
BRANCH   1  10
ATOM     10  C   UNL     1       2.704   3.059  17.643  0.00  0.00    +0.000 C 
BRANCH  10  11
ATOM     11  C   UNL     1       1.689   4.140  18.015  0.00  0.00    +0.000 C 
BRANCH  11  12
ATOM     12  C   UNL     1       1.508   4.275  19.527  0.00  0.00    +0.000 C 
BRANCH  12  13
ATOM     13  C   UNL     1       0.996   2.965  20.135  0.00  0.00    +0.000 C 
BRANCH  13  14
ATOM     14  C   UNL     1       1.292   2.891  21.632  0.00  0.00    +0.000 C 
BRANCH  14  15
ATOM     15  N   UNL     1       2.682   2.513  21.855  0.00  0.00    +0.000 NA
ATOM     16  H   UNL     1       2.949   2.736  22.812  0.00  0.00    +0.000 HD
ATOM     17  H   UNL     1       3.285   3.072  21.253  0.00  0.00    +0.000 HD
ENDBRANCH  14  15
ENDBRANCH  13  14
ENDBRANCH  12  13
ENDBRANCH  11  12
ENDBRANCH  10  11
ENDBRANCH   1  10
TORSDOF 12
ENDMDL
MODEL 6
REMARK VINA RESULT:      -4.7      1.801      2.567
REMARK  Name = 
REMARK  13 active torsions:
REMARK  status: ('A' for Active; 'I' for Inactive)
REMARK    1  A    between atoms: C_1  and  C_2
REMARK    2  A    between atoms: C_2  and  C_3
REMARK    3  A    between atoms: C_3  and  C_4
REMARK    4  A    between atoms: C_4  and  C_5
REMARK    5  A    between atoms: C_5  and  C_6
REMARK    6  A    between atoms: C_6  and  O_7
REMARK    7  A    between atoms: O_7  and  C_8
REMARK    8  A    between atoms: C_8  and  C_10
REMARK    9  A    between atoms: C_10  and  C_11
REMARK   10  A    between atoms: C_11  and  C_12
REMARK   11  A    between atoms: C_12  and  C_13
REMARK   12  A    between atoms: C_13  and  C_14
REMARK   13  A    between atoms: C_14  and  N_15
REMARK                            x       y       z     vdW  Elec       q    Type
REMARK                         _______ _______ _______ _____ _____    ______ ____
ROOT
ATOM      1  C   UNL     1       3.757   4.418  17.928  0.00  0.00    +0.000 C 
ATOM      2  O   UNL     1       3.994   5.350  18.676  0.00  0.00    +0.000 OA
ENDROOT
BRANCH   1   3
ATOM      3  O   UNL     1       4.707   3.685  17.277  0.00  0.00    +0.000 OA
BRANCH   3   4
ATOM      4  C   UNL     1       5.806   4.480  16.822  0.00  0.00    +0.000 C 
BRANCH   4   5
ATOM      5  C   UNL     1       5.488   5.203  15.522  0.00  0.00    +0.000 C 
BRANCH   5   6
ATOM      6  C   UNL     1       5.283   4.195  14.384  0.00  0.00    +0.000 C 
BRANCH   6   7
ATOM      7  C   UNL     1       6.520   4.099  13.494  0.00  0.00    +0.000 C 
BRANCH   7   9
ATOM      8  C   UNL     1       4.757   3.335  11.872  0.00  0.00    +0.000 C 
ATOM      9  C   UNL     1       6.236   3.299  12.223  0.00  0.00    +0.000 C 
ENDBRANCH   7   9
ENDBRANCH   6   7
ENDBRANCH   5   6
ENDBRANCH   4   5
ENDBRANCH   3   4
ENDBRANCH   1   3
BRANCH   1  10
ATOM     10  C   UNL     1       2.379   3.956  17.498  0.00  0.00    +0.000 C 
BRANCH  10  11
ATOM     11  C   UNL     1       1.846   2.902  18.468  0.00  0.00    +0.000 C 
BRANCH  11  12
ATOM     12  C   UNL     1       0.875   3.489  19.492  0.00  0.00    +0.000 C 
BRANCH  12  13
ATOM     13  C   UNL     1       1.195   2.981  20.901  0.00  0.00    +0.000 C 
BRANCH  13  14
ATOM     14  C   UNL     1       2.363   3.748  21.519  0.00  0.00    +0.000 C 
BRANCH  14  15
ATOM     15  N   UNL     1       2.259   5.168  21.202  0.00  0.00    +0.000 NA
ATOM     16  H   UNL     1       1.300   5.392  20.939  0.00  0.00    +0.000 HD
ATOM     17  H   UNL     1       2.834   5.375  20.387  0.00  0.00    +0.000 HD
ENDBRANCH  14  15
ENDBRANCH  13  14
ENDBRANCH  12  13
ENDBRANCH  11  12
ENDBRANCH  10  11
ENDBRANCH   1  10
TORSDOF 12
ENDMDL
MODEL 7
REMARK VINA RESULT:      -4.7      2.923      5.755
REMARK  Name = 
REMARK  13 active torsions:
REMARK  status: ('A' for Active; 'I' for Inactive)
REMARK    1  A    between atoms: C_1  and  C_2
REMARK    2  A    between atoms: C_2  and  C_3
REMARK    3  A    between atoms: C_3  and  C_4
REMARK    4  A    between atoms: C_4  and  C_5
REMARK    5  A    between atoms: C_5  and  C_6
REMARK    6  A    between atoms: C_6  and  O_7
REMARK    7  A    between atoms: O_7  and  C_8
REMARK    8  A    between atoms: C_8  and  C_10
REMARK    9  A    between atoms: C_10  and  C_11
REMARK   10  A    between atoms: C_11  and  C_12
REMARK   11  A    between atoms: C_12  and  C_13
REMARK   12  A    between atoms: C_13  and  C_14
REMARK   13  A    between atoms: C_14  and  N_15
REMARK                            x       y       z     vdW  Elec       q    Type
REMARK                         _______ _______ _______ _____ _____    ______ ____
ROOT
ATOM      1  C   UNL     1       6.244   5.265  18.423  0.00  0.00    +0.000 C 
ATOM      2  O   UNL     1       7.350   5.733  18.222  0.00  0.00    +0.000 OA
ENDROOT
BRANCH   1   3
ATOM      3  O   UNL     1       6.000   4.139  19.155  0.00  0.00    +0.000 OA
BRANCH   3   4
ATOM      4  C   UNL     1       4.610   3.943  19.427  0.00  0.00    +0.000 C 
BRANCH   4   5
ATOM      5  C   UNL     1       4.270   2.475  19.635  0.00  0.00    +0.000 C 
BRANCH   5   6
ATOM      6  C   UNL     1       3.382   1.963  18.495  0.00  0.00    +0.000 C 
BRANCH   6   7
ATOM      7  C   UNL     1       2.279   2.963  18.154  0.00  0.00    +0.000 C 
BRANCH   7   9
ATOM      8  C   UNL     1       0.827   3.657  20.086  0.00  0.00    +0.000 C 
ATOM      9  C   UNL     1       0.998   2.675  18.938  0.00  0.00    +0.000 C 
ENDBRANCH   7   9
ENDBRANCH   6   7
ENDBRANCH   5   6
ENDBRANCH   4   5
ENDBRANCH   3   4
ENDBRANCH   1   3
BRANCH   1  10
ATOM     10  C   UNL     1       4.946   5.772  17.827  0.00  0.00    +0.000 C 
BRANCH  10  11
ATOM     11  C   UNL     1       5.015   5.735  16.300  0.00  0.00    +0.000 C 
BRANCH  11  12
ATOM     12  C   UNL     1       5.047   4.309  15.751  0.00  0.00    +0.000 C 
BRANCH  12  13
ATOM     13  C   UNL     1       5.991   4.210  14.549  0.00  0.00    +0.000 C 
BRANCH  13  14
ATOM     14  C   UNL     1       7.329   4.890  14.831  0.00  0.00    +0.000 C 
BRANCH  14  15
ATOM     15  N   UNL     1       7.842   5.519  13.620  0.00  0.00    +0.000 NA
ATOM     16  H   UNL     1       8.595   4.953  13.231  0.00  0.00    +0.000 HD
ATOM     17  H   UNL     1       8.256   6.420  13.856  0.00  0.00    +0.000 HD
ENDBRANCH  14  15
ENDBRANCH  13  14
ENDBRANCH  12  13
ENDBRANCH  11  12
ENDBRANCH  10  11
ENDBRANCH   1  10
TORSDOF 12
ENDMDL
MODEL 8
REMARK VINA RESULT:      -4.7      1.615      2.170
REMARK  Name = 
REMARK  13 active torsions:
REMARK  status: ('A' for Active; 'I' for Inactive)
REMARK    1  A    between atoms: C_1  and  C_2
REMARK    2  A    between atoms: C_2  and  C_3
REMARK    3  A    between atoms: C_3  and  C_4
REMARK    4  A    between atoms: C_4  and  C_5
REMARK    5  A    between atoms: C_5  and  C_6
REMARK    6  A    between atoms: C_6  and  O_7
REMARK    7  A    between atoms: O_7  and  C_8
REMARK    8  A    between atoms: C_8  and  C_10
REMARK    9  A    between atoms: C_10  and  C_11
REMARK   10  A    between atoms: C_11  and  C_12
REMARK   11  A    between atoms: C_12  and  C_13
REMARK   12  A    between atoms: C_13  and  C_14
REMARK   13  A    between atoms: C_14  and  N_15
REMARK                            x       y       z     vdW  Elec       q    Type
REMARK                         _______ _______ _______ _____ _____    ______ ____
ROOT
ATOM      1  C   UNL     1       3.766   5.243  17.871  0.00  0.00    +0.000 C 
ATOM      2  O   UNL     1       3.696   6.158  17.070  0.00  0.00    +0.000 OA
ENDROOT
BRANCH   1   3
ATOM      3  O   UNL     1       4.312   5.345  19.118  0.00  0.00    +0.000 OA
BRANCH   3   4
ATOM      4  C   UNL     1       5.518   4.590  19.259  0.00  0.00    +0.000 C 
BRANCH   4   5
ATOM      5  C   UNL     1       6.741   5.380  18.818  0.00  0.00    +0.000 C 
BRANCH   5   6
ATOM      6  C   UNL     1       7.516   4.614  17.739  0.00  0.00    +0.000 C 
BRANCH   6   7
ATOM      7  C   UNL     1       7.106   5.058  16.336  0.00  0.00    +0.000 C 
BRANCH   7   9
ATOM      8  C   UNL     1       5.465   4.424  14.539  0.00  0.00    +0.000 C 
ATOM      9  C   UNL     1       6.483   3.909  15.543  0.00  0.00    +0.000 C 
ENDBRANCH   7   9
ENDBRANCH   6   7
ENDBRANCH   5   6
ENDBRANCH   4   5
ENDBRANCH   3   4
ENDBRANCH   1   3
BRANCH   1  10
ATOM     10  C   UNL     1       3.362   3.806  17.611  0.00  0.00    +0.000 C 
BRANCH  10  11
ATOM     11  C   UNL     1       1.839   3.672  17.631  0.00  0.00    +0.000 C 
BRANCH  11  12
ATOM     12  C   UNL     1       1.339   2.870  18.832  0.00  0.00    +0.000 C 
BRANCH  12  13
ATOM     13  C   UNL     1       0.784   3.799  19.916  0.00  0.00    +0.000 C 
BRANCH  13  14
ATOM     14  C   UNL     1       1.661   3.785  21.166  0.00  0.00    +0.000 C 
BRANCH  14  15
ATOM     15  N   UNL     1       2.443   5.013  21.250  0.00  0.00    +0.000 NA
ATOM     16  H   UNL     1       1.933   5.709  21.793  0.00  0.00    +0.000 HD
ATOM     17  H   UNL     1       2.555   5.407  20.317  0.00  0.00    +0.000 HD
ENDBRANCH  14  15
ENDBRANCH  13  14
ENDBRANCH  12  13
ENDBRANCH  11  12
ENDBRANCH  10  11
ENDBRANCH   1  10
TORSDOF 12
ENDMDL
MODEL 9
REMARK VINA RESULT:      -4.6      2.649      5.115
REMARK  Name = 
REMARK  13 active torsions:
REMARK  status: ('A' for Active; 'I' for Inactive)
REMARK    1  A    between atoms: C_1  and  C_2
REMARK    2  A    between atoms: C_2  and  C_3
REMARK    3  A    between atoms: C_3  and  C_4
REMARK    4  A    between atoms: C_4  and  C_5
REMARK    5  A    between atoms: C_5  and  C_6
REMARK    6  A    between atoms: C_6  and  O_7
REMARK    7  A    between atoms: O_7  and  C_8
REMARK    8  A    between atoms: C_8  and  C_10
REMARK    9  A    between atoms: C_10  and  C_11
REMARK   10  A    between atoms: C_11  and  C_12
REMARK   11  A    between atoms: C_12  and  C_13
REMARK   12  A    between atoms: C_13  and  C_14
REMARK   13  A    between atoms: C_14  and  N_15
REMARK                            x       y       z     vdW  Elec       q    Type
REMARK                         _______ _______ _______ _____ _____    ______ ____
ROOT
ATOM      1  C   UNL     1       2.607   6.375  19.582  0.00  0.00    +0.000 C 
ATOM      2  O   UNL     1       2.119   7.301  20.204  0.00  0.00    +0.000 OA
ENDROOT
BRANCH   1   3
ATOM      3  O   UNL     1       3.174   5.272  20.152  0.00  0.00    +0.000 OA
BRANCH   3   4
ATOM      4  C   UNL     1       2.305   4.619  21.082  0.00  0.00    +0.000 C 
BRANCH   4   5
ATOM      5  C   UNL     1       1.031   4.117  20.419  0.00  0.00    +0.000 C 
BRANCH   5   6
ATOM      6  C   UNL     1       1.132   2.614  20.132  0.00  0.00    +0.000 C 
BRANCH   6   7
ATOM      7  C   UNL     1       0.930   2.314  18.647  0.00  0.00    +0.000 C 
BRANCH   7   9
ATOM      8  C   UNL     1       3.398   1.829  18.614  0.00  0.00    +0.000 C 
ATOM      9  C   UNL     1       2.235   2.459  17.863  0.00  0.00    +0.000 C 
ENDBRANCH   7   9
ENDBRANCH   6   7
ENDBRANCH   5   6
ENDBRANCH   4   5
ENDBRANCH   3   4
ENDBRANCH   1   3
BRANCH   1  10
ATOM     10  C   UNL     1       2.772   6.308  18.077  0.00  0.00    +0.000 C 
BRANCH  10  11
ATOM     11  C   UNL     1       4.245   6.122  17.713  0.00  0.00    +0.000 C 
BRANCH  11  12
ATOM     12  C   UNL     1       4.447   5.094  16.601  0.00  0.00    +0.000 C 
BRANCH  12  13
ATOM     13  C   UNL     1       5.660   4.205  16.894  0.00  0.00    +0.000 C 
BRANCH  13  14
ATOM     14  C   UNL     1       6.649   4.901  17.828  0.00  0.00    +0.000 C 
BRANCH  14  15
ATOM     15  N   UNL     1       7.899   4.152  17.889  0.00  0.00    +0.000 NA
ATOM     16  H   UNL     1       8.113   3.765  16.971  0.00  0.00    +0.000 HD
ATOM     17  H   UNL     1       7.786   3.356  18.514  0.00  0.00    +0.000 HD
ENDBRANCH  14  15
ENDBRANCH  13  14
ENDBRANCH  12  13
ENDBRANCH  11  12
ENDBRANCH  10  11
ENDBRANCH   1  10
TORSDOF 12
ENDMDL
