MODEL 1
REMARK VINA RESULT:      -6.7      0.000      0.000
REMARK  Name = 
REMARK  4 active torsions:
REMARK  status: ('A' for Active; 'I' for Inactive)
REMARK    1  A    between atoms: C_2  and  C_11
REMARK    2  A    between atoms: N_3  and  C_4
REMARK    3  A    between atoms: C_7  and  O_8
REMARK    4  A    between atoms: C_12  and  O_13
REMARK                            x       y       z     vdW  Elec       q    Type
REMARK                         _______ _______ _______ _____ _____    ______ ____
ROOT
ATOM      1  O   UNL     1       5.807   4.339  16.819  0.00  0.00    +0.000 OA
ATOM      2  C   UNL     1       5.686   5.077  17.799  0.00  0.00    +0.000 C 
ATOM      3  N   UNL     1       4.682   5.004  18.739  0.00  0.00    +0.000 N 
ATOM      4  H   UNL     1       4.646   5.740  19.447  0.00  0.00    +0.000 HD
ENDROOT
BRANCH   2   5
ATOM      5  C   UNL     1       6.656   6.195  17.965  0.00  0.00    +0.000 A 
ATOM      6  C   UNL     1       6.585   7.255  17.135  0.00  0.00    +0.000 A 
ATOM      7  N   UNL     1       7.415   8.328  17.267  0.00  0.00    +0.000 N 
ATOM      8  C   UNL     1       8.349   8.442  18.248  0.00  0.00    +0.000 A 
ATOM      9  S   UNL     1       9.290   9.797  18.418  0.00  0.00    +0.000 S 
ATOM     10  N   UNL     1       8.463   7.374  19.090  0.00  0.00    +0.000 N 
ATOM     11  C   UNL     1       7.702   6.236  19.017  0.00  0.00    +0.000 A 
ATOM     12  O   UNL     1       7.870   5.300  19.794  0.00  0.00    +0.000 OA
ATOM     13  H   UNL     1       7.293   9.093  16.611  0.00  0.00    +0.000 HD
ATOM     14  H   UNL     1       9.160   7.417  19.823  0.00  0.00    +0.000 HD
BRANCH   6  15
ATOM     15  O   UNL     1       5.702   7.411  16.096  0.00  0.00    +0.000 OA
ATOM     16  H   UNL     1       5.012   8.056  16.376  0.00  0.00    +0.000 HD
ENDBRANCH   6  15
ENDBRANCH   2   5
BRANCH   3  17
ATOM     17  C   UNL     1       3.609   4.088  18.733  0.00  0.00    +0.000 A 
ATOM     18  C   UNL     1       3.754   2.742  19.083  0.00  0.00    +0.000 A 
ATOM     19  C   UNL     1       2.683   1.856  18.970  0.00  0.00    +0.000 A 
ATOM     20  C   UNL     1       1.459   2.321  18.515  0.00  0.00    +0.000 A 
ATOM     21  C   UNL     1       1.277   3.667  18.216  0.00  0.00    +0.000 A 
ATOM     22  C   UNL     1       2.350   4.555  18.336  0.00  0.00    +0.000 A 
BRANCH  20  23
ATOM     23  O   UNL     1       0.406   1.474  18.341  0.00  0.00    +0.000 OA
ATOM     24  H   UNL     1      -0.398   1.918  18.658  0.00  0.00    +0.000 HD
ENDBRANCH  20  23
ENDBRANCH   3  17
TORSDOF 4
ENDMDL
MODEL 2
REMARK VINA RESULT:      -6.7      0.262      1.121
REMARK  Name = 
REMARK  4 active torsions:
REMARK  status: ('A' for Active; 'I' for Inactive)
REMARK    1  A    between atoms: C_2  and  C_11
REMARK    2  A    between atoms: N_3  and  C_4
REMARK    3  A    between atoms: C_7  and  O_8
REMARK    4  A    between atoms: C_12  and  O_13
REMARK                            x       y       z     vdW  Elec       q    Type
REMARK                         _______ _______ _______ _____ _____    ______ ____
ROOT
ATOM      1  O   UNL     1       6.176   4.088  17.151  0.00  0.00    +0.000 OA
ATOM      2  C   UNL     1       5.825   5.028  17.867  0.00  0.00    +0.000 C 
ATOM      3  N   UNL     1       4.615   5.135  18.515  0.00  0.00    +0.000 N 
ATOM      4  H   UNL     1       4.415   6.014  18.997  0.00  0.00    +0.000 HD
ENDROOT
BRANCH   2   5
ATOM      5  C   UNL     1       6.744   6.193  18.003  0.00  0.00    +0.000 A 
ATOM      6  C   UNL     1       6.573   7.263  17.201  0.00  0.00    +0.000 A 
ATOM      7  N   UNL     1       7.352   8.375  17.310  0.00  0.00    +0.000 N 
ATOM      8  C   UNL     1       8.332   8.520  18.241  0.00  0.00    +0.000 A 
ATOM      9  S   UNL     1       9.210   9.920  18.388  0.00  0.00    +0.000 S 
ATOM     10  N   UNL     1       8.548   7.444  19.052  0.00  0.00    +0.000 N 
ATOM     11  C   UNL     1       7.843   6.269  18.997  0.00  0.00    +0.000 A 
ATOM     12  O   UNL     1       8.103   5.329  19.743  0.00  0.00    +0.000 OA
ATOM     13  H   UNL     1       7.154   9.145  16.678  0.00  0.00    +0.000 HD
ATOM     14  H   UNL     1       9.282   7.511  19.747  0.00  0.00    +0.000 HD
BRANCH   6  15
ATOM     15  O   UNL     1       5.626   7.391  16.216  0.00  0.00    +0.000 OA
ATOM     16  H   UNL     1       4.929   6.712  16.372  0.00  0.00    +0.000 HD
ENDBRANCH   6  15
ENDBRANCH   2   5
BRANCH   3  17
ATOM     17  C   UNL     1       3.559   4.200  18.455  0.00  0.00    +0.000 A 
ATOM     18  C   UNL     1       2.343   4.466  17.819  0.00  0.00    +0.000 A 
ATOM     19  C   UNL     1       1.295   3.546  17.870  0.00  0.00    +0.000 A 
ATOM     20  C   UNL     1       1.471   2.351  18.552  0.00  0.00    +0.000 A 
ATOM     21  C   UNL     1       2.691   2.043  19.143  0.00  0.00    +0.000 A 
ATOM     22  C   UNL     1       3.741   2.963  19.085  0.00  0.00    +0.000 A 
BRANCH  20  23
ATOM     23  O   UNL     1       0.453   1.453  18.668  0.00  0.00    +0.000 OA
ATOM     24  H   UNL     1      -0.340   1.836  18.258  0.00  0.00    +0.000 HD
ENDBRANCH  20  23
ENDBRANCH   3  17
TORSDOF 4
ENDMDL
MODEL 3
REMARK VINA RESULT:      -6.5      4.608      5.396
REMARK  Name = 
REMARK  4 active torsions:
REMARK  status: ('A' for Active; 'I' for Inactive)
REMARK    1  A    between atoms: C_2  and  C_11
REMARK    2  A    between atoms: N_3  and  C_4
REMARK    3  A    between atoms: C_7  and  O_8
REMARK    4  A    between atoms: C_12  and  O_13
REMARK                            x       y       z     vdW  Elec       q    Type
REMARK                         _______ _______ _______ _____ _____    ______ ____
ROOT
ATOM      1  O   UNL     1       3.479   7.266  17.965  0.00  0.00    +0.000 OA
ATOM      2  C   UNL     1       2.566   7.123  18.780  0.00  0.00    +0.000 C 
ATOM      3  N   UNL     1       2.114   5.920  19.275  0.00  0.00    +0.000 N 
ATOM      4  H   UNL     1       1.284   5.938  19.871  0.00  0.00    +0.000 HD
ENDROOT
BRANCH   2   5
ATOM      5  C   UNL     1       1.825   8.335  19.230  0.00  0.00    +0.000 A 
ATOM      6  C   UNL     1       1.643   9.352  18.365  0.00  0.00    +0.000 A 
ATOM      7  N   UNL     1       0.934  10.465  18.705  0.00  0.00    +0.000 N 
ATOM      8  C   UNL     1       0.329  10.635  19.910  0.00  0.00    +0.000 A 
ATOM      9  S   UNL     1      -0.586  11.974  20.258  0.00  0.00    +0.000 S 
ATOM     10  N   UNL     1       0.516   9.633  20.817  0.00  0.00    +0.000 N 
ATOM     11  C   UNL     1       1.241   8.492  20.585  0.00  0.00    +0.000 A 
ATOM     12  O   UNL     1       1.389   7.637  21.454  0.00  0.00    +0.000 OA
ATOM     13  H   UNL     1       0.831  11.185  17.995  0.00  0.00    +0.000 HD
ATOM     14  H   UNL     1       0.093   9.733  21.732  0.00  0.00    +0.000 HD
BRANCH   6  15
ATOM     15  O   UNL     1       2.107   9.409  17.075  0.00  0.00    +0.000 OA
ATOM     16  H   UNL     1       2.341  10.345  16.875  0.00  0.00    +0.000 HD
ENDBRANCH   6  15
ENDBRANCH   2   5
BRANCH   3  17
ATOM     17  C   UNL     1       2.602   4.644  18.922  0.00  0.00    +0.000 A 
ATOM     18  C   UNL     1       2.090   3.903  17.851  0.00  0.00    +0.000 A 
ATOM     19  C   UNL     1       2.540   2.607  17.601  0.00  0.00    +0.000 A 
ATOM     20  C   UNL     1       3.514   2.054  18.419  0.00  0.00    +0.000 A 
ATOM     21  C   UNL     1       4.076   2.794  19.453  0.00  0.00    +0.000 A 
ATOM     22  C   UNL     1       3.629   4.095  19.699  0.00  0.00    +0.000 A 
BRANCH  20  23
ATOM     23  O   UNL     1       3.939   0.772  18.238  0.00  0.00    +0.000 OA
ATOM     24  H   UNL     1       4.573   0.559  18.942  0.00  0.00    +0.000 HD
ENDBRANCH  20  23
ENDBRANCH   3  17
TORSDOF 4
ENDMDL
MODEL 4
REMARK VINA RESULT:      -6.5      2.968      3.593
REMARK  Name = 
REMARK  4 active torsions:
REMARK  status: ('A' for Active; 'I' for Inactive)
REMARK    1  A    between atoms: C_2  and  C_11
REMARK    2  A    between atoms: N_3  and  C_4
REMARK    3  A    between atoms: C_7  and  O_8
REMARK    4  A    between atoms: C_12  and  O_13
REMARK                            x       y       z     vdW  Elec       q    Type
REMARK                         _______ _______ _______ _____ _____    ______ ____
ROOT
ATOM      1  O   UNL     1       5.801   5.376  19.411  0.00  0.00    +0.000 OA
ATOM      2  C   UNL     1       5.259   4.922  18.401  0.00  0.00    +0.000 C 
ATOM      3  N   UNL     1       4.106   4.169  18.380  0.00  0.00    +0.000 N 
ATOM      4  H   UNL     1       3.819   3.773  17.483  0.00  0.00    +0.000 HD
ENDROOT
BRANCH   2   5
ATOM      5  C   UNL     1       5.927   5.132  17.086  0.00  0.00    +0.000 A 
ATOM      6  C   UNL     1       7.133   4.572  16.865  0.00  0.00    +0.000 A 
ATOM      7  N   UNL     1       7.770   4.690  15.666  0.00  0.00    +0.000 N 
ATOM      8  C   UNL     1       7.246   5.341  14.594  0.00  0.00    +0.000 A 
ATOM      9  S   UNL     1       8.024   5.401  13.130  0.00  0.00    +0.000 S 
ATOM     10  N   UNL     1       6.037   5.941  14.795  0.00  0.00    +0.000 N 
ATOM     11  C   UNL     1       5.333   5.911  15.972  0.00  0.00    +0.000 A 
ATOM     12  O   UNL     1       4.258   6.491  16.092  0.00  0.00    +0.000 OA
ATOM     13  H   UNL     1       8.672   4.231  15.572  0.00  0.00    +0.000 HD
ATOM     14  H   UNL     1       5.624   6.450  14.023  0.00  0.00    +0.000 HD
BRANCH   6  15
ATOM     15  O   UNL     1       7.854   3.824  17.762  0.00  0.00    +0.000 OA
ATOM     16  H   UNL     1       7.265   3.605  18.520  0.00  0.00    +0.000 HD
ENDBRANCH   6  15
ENDBRANCH   2   5
BRANCH   3  17
ATOM     17  C   UNL     1       3.358   3.770  19.508  0.00  0.00    +0.000 A 
ATOM     18  C   UNL     1       3.741   2.714  20.341  0.00  0.00    +0.000 A 
ATOM     19  C   UNL     1       2.919   2.296  21.387  0.00  0.00    +0.000 A 
ATOM     20  C   UNL     1       1.713   2.945  21.606  0.00  0.00    +0.000 A 
ATOM     21  C   UNL     1       1.339   4.033  20.826  0.00  0.00    +0.000 A 
ATOM     22  C   UNL     1       2.167   4.455  19.782  0.00  0.00    +0.000 A 
BRANCH  20  23
ATOM     23  O   UNL     1       0.859   2.530  22.585  0.00  0.00    +0.000 OA
ATOM     24  H   UNL     1       0.273   3.270  22.811  0.00  0.00    +0.000 HD
ENDBRANCH  20  23
ENDBRANCH   3  17
TORSDOF 4
ENDMDL
MODEL 5
REMARK VINA RESULT:      -6.5      2.994      3.695
REMARK  Name = 
REMARK  4 active torsions:
REMARK  status: ('A' for Active; 'I' for Inactive)
REMARK    1  A    between atoms: C_2  and  C_11
REMARK    2  A    between atoms: N_3  and  C_4
REMARK    3  A    between atoms: C_7  and  O_8
REMARK    4  A    between atoms: C_12  and  O_13
REMARK                            x       y       z     vdW  Elec       q    Type
REMARK                         _______ _______ _______ _____ _____    ______ ____
ROOT
ATOM      1  O   UNL     1       6.141   4.169  19.130  0.00  0.00    +0.000 OA
ATOM      2  C   UNL     1       5.437   4.288  18.125  0.00  0.00    +0.000 C 
ATOM      3  N   UNL     1       4.068   4.151  18.083  0.00  0.00    +0.000 N 
ATOM      4  H   UNL     1       3.620   4.179  17.165  0.00  0.00    +0.000 HD
ENDROOT
BRANCH   2   5
ATOM      5  C   UNL     1       6.110   4.533  16.818  0.00  0.00    +0.000 A 
ATOM      6  C   UNL     1       6.017   3.604  15.846  0.00  0.00    +0.000 A 
ATOM      7  N   UNL     1       6.571   3.793  14.616  0.00  0.00    +0.000 N 
ATOM      8  C   UNL     1       7.225   4.927  14.250  0.00  0.00    +0.000 A 
ATOM      9  S   UNL     1       7.823   5.147  12.718  0.00  0.00    +0.000 S 
ATOM     10  N   UNL     1       7.358   5.878  15.220  0.00  0.00    +0.000 N 
ATOM     11  C   UNL     1       6.869   5.767  16.497  0.00  0.00    +0.000 A 
ATOM     12  O   UNL     1       7.043   6.653  17.329  0.00  0.00    +0.000 OA
ATOM     13  H   UNL     1       6.450   3.051  13.933  0.00  0.00    +0.000 HD
ATOM     14  H   UNL     1       7.855   6.729  14.988  0.00  0.00    +0.000 HD
BRANCH   6  15
ATOM     15  O   UNL     1       5.371   2.397  15.942  0.00  0.00    +0.000 OA
ATOM     16  H   UNL     1       5.768   1.784  15.280  0.00  0.00    +0.000 HD
ENDBRANCH   6  15
ENDBRANCH   2   5
BRANCH   3  17
ATOM     17  C   UNL     1       3.235   3.829  19.176  0.00  0.00    +0.000 A 
ATOM     18  C   UNL     1       2.938   4.736  20.199  0.00  0.00    +0.000 A 
ATOM     19  C   UNL     1       2.188   4.340  21.306  0.00  0.00    +0.000 A 
ATOM     20  C   UNL     1       1.724   3.036  21.384  0.00  0.00    +0.000 A 
ATOM     21  C   UNL     1       1.960   2.135  20.352  0.00  0.00    +0.000 A 
ATOM     22  C   UNL     1       2.706   2.535  19.240  0.00  0.00    +0.000 A 
BRANCH  20  23
ATOM     23  O   UNL     1       1.034   2.599  22.476  0.00  0.00    +0.000 OA
ATOM     24  H   UNL     1       0.635   1.740  22.259  0.00  0.00    +0.000 HD
ENDBRANCH  20  23
ENDBRANCH   3  17
TORSDOF 4
ENDMDL
MODEL 6
REMARK VINA RESULT:      -6.5      5.086      5.882
REMARK  Name = 
REMARK  4 active torsions:
REMARK  status: ('A' for Active; 'I' for Inactive)
REMARK    1  A    between atoms: C_2  and  C_11
REMARK    2  A    between atoms: N_3  and  C_4
REMARK    3  A    between atoms: C_7  and  O_8
REMARK    4  A    between atoms: C_12  and  O_13
REMARK                            x       y       z     vdW  Elec       q    Type
REMARK                         _______ _______ _______ _____ _____    ______ ____
ROOT
ATOM      1  O   UNL     1       2.069   7.355  17.793  0.00  0.00    +0.000 OA
ATOM      2  C   UNL     1       2.089   7.645  18.991  0.00  0.00    +0.000 C 
ATOM      3  N   UNL     1       2.582   6.848  20.001  0.00  0.00    +0.000 N 
ATOM      4  H   UNL     1       2.448   7.170  20.962  0.00  0.00    +0.000 HD
ENDROOT
BRANCH   2   5
ATOM      5  C   UNL     1       1.472   8.933  19.416  0.00  0.00    +0.000 A 
ATOM      6  C   UNL     1       1.486   9.979  18.567  0.00  0.00    +0.000 A 
ATOM      7  N   UNL     1       0.896  11.167  18.882  0.00  0.00    +0.000 N 
ATOM      8  C   UNL     1       0.224  11.391  20.042  0.00  0.00    +0.000 A 
ATOM      9  S   UNL     1      -0.542  12.829  20.355  0.00  0.00    +0.000 S 
ATOM     10  N   UNL     1       0.214  10.358  20.934  0.00  0.00    +0.000 N 
ATOM     11  C   UNL     1       0.807   9.139  20.727  0.00  0.00    +0.000 A 
ATOM     12  O   UNL     1       0.779   8.258  21.581  0.00  0.00    +0.000 OA
ATOM     13  H   UNL     1       0.939  11.905  18.185  0.00  0.00    +0.000 HD
ATOM     14  H   UNL     1      -0.264  10.495  21.816  0.00  0.00    +0.000 HD
BRANCH   6  15
ATOM     15  O   UNL     1       2.053   9.999  17.318  0.00  0.00    +0.000 OA
ATOM     16  H   UNL     1       3.032   9.971  17.425  0.00  0.00    +0.000 HD
ENDBRANCH   6  15
ENDBRANCH   2   5
BRANCH   3  17
ATOM     17  C   UNL     1       3.127   5.556  19.844  0.00  0.00    +0.000 A 
ATOM     18  C   UNL     1       2.446   4.393  20.218  0.00  0.00    +0.000 A 
ATOM     19  C   UNL     1       3.065   3.146  20.132  0.00  0.00    +0.000 A 
ATOM     20  C   UNL     1       4.366   3.062  19.660  0.00  0.00    +0.000 A 
ATOM     21  C   UNL     1       5.040   4.199  19.230  0.00  0.00    +0.000 A 
ATOM     22  C   UNL     1       4.417   5.447  19.311  0.00  0.00    +0.000 A 
BRANCH  20  23
ATOM     23  O   UNL     1       5.021   1.868  19.613  0.00  0.00    +0.000 OA
ATOM     24  H   UNL     1       4.563   1.295  18.976  0.00  0.00    +0.000 HD
ENDBRANCH  20  23
ENDBRANCH   3  17
TORSDOF 4
ENDMDL
MODEL 7
REMARK VINA RESULT:      -6.4      4.494      5.526
REMARK  Name = 
REMARK  4 active torsions:
REMARK  status: ('A' for Active; 'I' for Inactive)
REMARK    1  A    between atoms: C_2  and  C_11
REMARK    2  A    between atoms: N_3  and  C_4
REMARK    3  A    between atoms: C_7  and  O_8
REMARK    4  A    between atoms: C_12  and  O_13
REMARK                            x       y       z     vdW  Elec       q    Type
REMARK                         _______ _______ _______ _____ _____    ______ ____
ROOT
ATOM      1  O   UNL     1       3.672   7.109  18.109  0.00  0.00    +0.000 OA
ATOM      2  C   UNL     1       2.692   6.971  18.843  0.00  0.00    +0.000 C 
ATOM      3  N   UNL     1       2.172   5.770  19.271  0.00  0.00    +0.000 N 
ATOM      4  H   UNL     1       1.297   5.796  19.797  0.00  0.00    +0.000 HD
ENDROOT
BRANCH   2   5
ATOM      5  C   UNL     1       1.946   8.192  19.261  0.00  0.00    +0.000 A 
ATOM      6  C   UNL     1       1.529   8.302  20.538  0.00  0.00    +0.000 A 
ATOM      7  N   UNL     1       0.885   9.414  20.989  0.00  0.00    +0.000 N 
ATOM      8  C   UNL     1       0.638  10.507  20.219  0.00  0.00    +0.000 A 
ATOM      9  S   UNL     1      -0.086  11.871  20.827  0.00  0.00    +0.000 S 
ATOM     10  N   UNL     1       1.026  10.417  18.914  0.00  0.00    +0.000 N 
ATOM     11  C   UNL     1       1.647   9.329  18.356  0.00  0.00    +0.000 A 
ATOM     12  O   UNL     1       1.952   9.304  17.166  0.00  0.00    +0.000 OA
ATOM     13  H   UNL     1       0.611   9.428  21.967  0.00  0.00    +0.000 HD
ATOM     14  H   UNL     1       0.843  11.206  18.307  0.00  0.00    +0.000 HD
BRANCH   6  15
ATOM     15  O   UNL     1       1.696   7.365  21.526  0.00  0.00    +0.000 OA
ATOM     16  H   UNL     1       1.880   7.840  22.370  0.00  0.00    +0.000 HD
ENDBRANCH   6  15
ENDBRANCH   2   5
BRANCH   3  17
ATOM     17  C   UNL     1       2.657   4.490  18.927  0.00  0.00    +0.000 A 
ATOM     18  C   UNL     1       2.128   3.733  17.876  0.00  0.00    +0.000 A 
ATOM     19  C   UNL     1       2.577   2.434  17.637  0.00  0.00    +0.000 A 
ATOM     20  C   UNL     1       3.565   1.895  18.446  0.00  0.00    +0.000 A 
ATOM     21  C   UNL     1       4.144   2.650  19.460  0.00  0.00    +0.000 A 
ATOM     22  C   UNL     1       3.698   3.953  19.694  0.00  0.00    +0.000 A 
BRANCH  20  23
ATOM     23  O   UNL     1       3.990   0.611  18.276  0.00  0.00    +0.000 OA
ATOM     24  H   UNL     1       3.478   0.215  17.551  0.00  0.00    +0.000 HD
ENDBRANCH  20  23
ENDBRANCH   3  17
TORSDOF 4
ENDMDL
MODEL 8
REMARK VINA RESULT:      -6.4      4.502      5.357
REMARK  Name = 
REMARK  4 active torsions:
REMARK  status: ('A' for Active; 'I' for Inactive)
REMARK    1  A    between atoms: C_2  and  C_11
REMARK    2  A    between atoms: N_3  and  C_4
REMARK    3  A    between atoms: C_7  and  O_8
REMARK    4  A    between atoms: C_12  and  O_13
REMARK                            x       y       z     vdW  Elec       q    Type
REMARK                         _______ _______ _______ _____ _____    ______ ____
ROOT
ATOM      1  O   UNL     1       2.478   6.462  20.436  0.00  0.00    +0.000 OA
ATOM      2  C   UNL     1       2.167   6.846  19.307  0.00  0.00    +0.000 C 
ATOM      3  N   UNL     1       2.169   6.073  18.167  0.00  0.00    +0.000 N 
ATOM      4  H   UNL     1       1.983   6.544  17.279  0.00  0.00    +0.000 HD
ENDROOT
BRANCH   2   5
ATOM      5  C   UNL     1       1.821   8.284  19.122  0.00  0.00    +0.000 A 
ATOM      6  C   UNL     1       1.168   8.934  20.105  0.00  0.00    +0.000 A 
ATOM      7  N   UNL     1       0.867  10.260  20.012  0.00  0.00    +0.000 N 
ATOM      8  C   UNL     1       1.220  11.041  18.958  0.00  0.00    +0.000 A 
ATOM      9  S   UNL     1       0.898  12.668  18.917  0.00  0.00    +0.000 S 
ATOM     10  N   UNL     1       1.862  10.407  17.934  0.00  0.00    +0.000 N 
ATOM     11  C   UNL     1       2.177   9.072  17.916  0.00  0.00    +0.000 A 
ATOM     12  O   UNL     1       2.737   8.558  16.951  0.00  0.00    +0.000 OA
ATOM     13  H   UNL     1       0.382  10.682  20.799  0.00  0.00    +0.000 HD
ATOM     14  H   UNL     1       2.125  10.955  17.124  0.00  0.00    +0.000 HD
BRANCH   6  15
ATOM     15  O   UNL     1       0.744   8.390  21.291  0.00  0.00    +0.000 OA
ATOM     16  H   UNL     1       1.358   8.688  22.001  0.00  0.00    +0.000 HD
ENDBRANCH   6  15
ENDBRANCH   2   5
BRANCH   3  17
ATOM     17  C   UNL     1       2.547   4.717  18.088  0.00  0.00    +0.000 A 
ATOM     18  C   UNL     1       1.644   3.663  18.264  0.00  0.00    +0.000 A 
ATOM     19  C   UNL     1       2.085   2.340  18.271  0.00  0.00    +0.000 A 
ATOM     20  C   UNL     1       3.433   2.070  18.091  0.00  0.00    +0.000 A 
ATOM     21  C   UNL     1       4.339   3.099  17.858  0.00  0.00    +0.000 A 
ATOM     22  C   UNL     1       3.895   4.423  17.845  0.00  0.00    +0.000 A 
BRANCH  20  23
ATOM     23  O   UNL     1       3.908   0.793  18.146  0.00  0.00    +0.000 OA
ATOM     24  H   UNL     1       4.610   0.701  17.480  0.00  0.00    +0.000 HD
ENDBRANCH  20  23
ENDBRANCH   3  17
TORSDOF 4
ENDMDL
MODEL 9
REMARK VINA RESULT:      -6.4      4.449      5.158
REMARK  Name = 
REMARK  4 active torsions:
REMARK  status: ('A' for Active; 'I' for Inactive)
REMARK    1  A    between atoms: C_2  and  C_11
REMARK    2  A    between atoms: N_3  and  C_4
REMARK    3  A    between atoms: C_7  and  O_8
REMARK    4  A    between atoms: C_12  and  O_13
REMARK                            x       y       z     vdW  Elec       q    Type
REMARK                         _______ _______ _______ _____ _____    ______ ____
ROOT
ATOM      1  O   UNL     1       3.836   6.864  18.431  0.00  0.00    +0.000 OA
ATOM      2  C   UNL     1       2.727   6.820  18.968  0.00  0.00    +0.000 C 
ATOM      3  N   UNL     1       2.065   5.674  19.349  0.00  0.00    +0.000 N 
ATOM      4  H   UNL     1       1.108   5.776  19.694  0.00  0.00    +0.000 HD
ENDROOT
BRANCH   2   5
ATOM      5  C   UNL     1       1.990   8.099  19.170  0.00  0.00    +0.000 A 
ATOM      6  C   UNL     1       1.953   9.001  18.169  0.00  0.00    +0.000 A 
ATOM      7  N   UNL     1       1.256  10.166  18.278  0.00  0.00    +0.000 N 
ATOM      8  C   UNL     1       0.521  10.506  19.370  0.00  0.00    +0.000 A 
ATOM      9  S   UNL     1      -0.372  11.903  19.435  0.00  0.00    +0.000 S 
ATOM     10  N   UNL     1       0.559   9.625  20.412  0.00  0.00    +0.000 N 
ATOM     11  C   UNL     1       1.258   8.445  20.414  0.00  0.00    +0.000 A 
ATOM     12  O   UNL     1       1.267   7.706  21.394  0.00  0.00    +0.000 OA
ATOM     13  H   UNL     1       1.266  10.791  17.477  0.00  0.00    +0.000 HD
ATOM     14  H   UNL     1       0.036   9.853  21.249  0.00  0.00    +0.000 HD
BRANCH   6  15
ATOM     15  O   UNL     1       2.566   8.878  16.948  0.00  0.00    +0.000 OA
ATOM     16  H   UNL     1       2.831   9.778  16.647  0.00  0.00    +0.000 HD
ENDBRANCH   6  15
ENDBRANCH   2   5
BRANCH   3  17
ATOM     17  C   UNL     1       2.529   4.353  19.172  0.00  0.00    +0.000 A 
ATOM     18  C   UNL     1       3.404   3.727  20.066  0.00  0.00    +0.000 A 
ATOM     19  C   UNL     1       3.908   2.455  19.797  0.00  0.00    +0.000 A 
ATOM     20  C   UNL     1       3.527   1.803  18.635  0.00  0.00    +0.000 A 
ATOM     21  C   UNL     1       2.614   2.383  17.761  0.00  0.00    +0.000 A 
ATOM     22  C   UNL     1       2.105   3.655  18.035  0.00  0.00    +0.000 A 
BRANCH  20  23
ATOM     23  O   UNL     1       4.041   0.582  18.313  0.00  0.00    +0.000 OA
ATOM     24  H   UNL     1       4.049   0.501  17.345  0.00  0.00    +0.000 HD
ENDBRANCH  20  23
ENDBRANCH   3  17
TORSDOF 4
ENDMDL
