MODEL 1
REMARK VINA RESULT:      -4.5      0.000      0.000
REMARK  Name = 
REMARK  8 active torsions:
REMARK  status: ('A' for Active; 'I' for Inactive)
REMARK    1  A    between atoms: C_2  and  C_3
REMARK    2  A    between atoms: C_3  and  O_4
REMARK    3  A    between atoms: N_5  and  C_6
REMARK    4  A    between atoms: N_5  and  C_9
REMARK    5  A    between atoms: C_6  and  C_7
REMARK    6  A    between atoms: C_7  and  O_8
REMARK    7  A    between atoms: C_9  and  C_10
REMARK    8  A    between atoms: C_10  and  O_11
REMARK                            x       y       z     vdW  Elec       q    Type
REMARK                         _______ _______ _______ _____ _____    ______ ____
ROOT
ATOM      1  O   UNL     1       7.796   5.233  14.887  0.00  0.00    +0.000 OA
ATOM      2  C   UNL     1       6.730   4.770  15.309  0.00  0.00    +0.000 C 
ATOM      3  N   UNL     1       6.425   4.732  16.664  0.00  0.00    +0.000 N 
ENDROOT
BRANCH   2   4
ATOM      4  C   UNL     1       5.700   4.237  14.304  0.00  0.00    +0.000 C 
BRANCH   4   5
ATOM      5  O   UNL     1       6.268   3.294  13.401  0.00  0.00    +0.000 OA
ATOM      6  H   UNL     1       6.017   2.412  13.741  0.00  0.00    +0.000 HD
ENDBRANCH   4   5
ENDBRANCH   2   4
BRANCH   3   7
ATOM      7  C   UNL     1       5.207   4.109  17.215  0.00  0.00    +0.000 C 
BRANCH   7   8
ATOM      8  C   UNL     1       5.123   4.146  18.742  0.00  0.00    +0.000 C 
BRANCH   8   9
ATOM      9  O   UNL     1       5.219   2.832  19.282  0.00  0.00    +0.000 OA
ATOM     10  H   UNL     1       6.096   2.797  19.713  0.00  0.00    +0.000 HD
ENDBRANCH   8   9
ENDBRANCH   7   8
ENDBRANCH   3   7
BRANCH   3  11
ATOM     11  C   UNL     1       7.449   5.174  17.621  0.00  0.00    +0.000 C 
BRANCH  11  12
ATOM     12  C   UNL     1       7.359   6.656  18.004  0.00  0.00    +0.000 C 
BRANCH  12  13
ATOM     13  O   UNL     1       7.695   7.480  16.885  0.00  0.00    +0.000 OA
ATOM     14  H   UNL     1       8.242   8.196  17.258  0.00  0.00    +0.000 HD
ENDBRANCH  12  13
ENDBRANCH  11  12
ENDBRANCH   3  11
TORSDOF 8
ENDMDL
MODEL 2
REMARK VINA RESULT:      -4.5      1.704      3.731
REMARK  Name = 
REMARK  8 active torsions:
REMARK  status: ('A' for Active; 'I' for Inactive)
REMARK    1  A    between atoms: C_2  and  C_3
REMARK    2  A    between atoms: C_3  and  O_4
REMARK    3  A    between atoms: N_5  and  C_6
REMARK    4  A    between atoms: N_5  and  C_9
REMARK    5  A    between atoms: C_6  and  C_7
REMARK    6  A    between atoms: C_7  and  O_8
REMARK    7  A    between atoms: C_9  and  C_10
REMARK    8  A    between atoms: C_10  and  O_11
REMARK                            x       y       z     vdW  Elec       q    Type
REMARK                         _______ _______ _______ _____ _____    ______ ____
ROOT
ATOM      1  O   UNL     1       5.436   3.834  19.427  0.00  0.00    +0.000 OA
ATOM      2  C   UNL     1       5.219   4.320  18.311  0.00  0.00    +0.000 C 
ATOM      3  N   UNL     1       6.240   4.796  17.500  0.00  0.00    +0.000 N 
ENDROOT
BRANCH   2   4
ATOM      4  C   UNL     1       3.775   4.382  17.795  0.00  0.00    +0.000 C 
BRANCH   4   5
ATOM      5  O   UNL     1       3.383   3.175  17.148  0.00  0.00    +0.000 OA
ATOM      6  H   UNL     1       3.911   3.129  16.326  0.00  0.00    +0.000 HD
ENDBRANCH   4   5
ENDBRANCH   2   4
BRANCH   3   7
ATOM      7  C   UNL     1       6.017   5.464  16.203  0.00  0.00    +0.000 C 
BRANCH   7   8
ATOM      8  C   UNL     1       6.629   4.728  15.009  0.00  0.00    +0.000 C 
BRANCH   8   9
ATOM      9  O   UNL     1       7.743   5.448  14.493  0.00  0.00    +0.000 OA
ATOM     10  H   UNL     1       7.358   6.228  14.046  0.00  0.00    +0.000 HD
ENDBRANCH   8   9
ENDBRANCH   7   8
ENDBRANCH   3   7
BRANCH   3  11
ATOM     11  C   UNL     1       7.609   4.803  18.034  0.00  0.00    +0.000 C 
BRANCH  11  12
ATOM     12  C   UNL     1       7.902   5.951  19.007  0.00  0.00    +0.000 C 
BRANCH  12  13
ATOM     13  O   UNL     1       7.869   5.480  20.357  0.00  0.00    +0.000 OA
ATOM     14  H   UNL     1       7.484   6.216  20.867  0.00  0.00    +0.000 HD
ENDBRANCH  12  13
ENDBRANCH  11  12
ENDBRANCH   3  11
TORSDOF 8
ENDMDL
MODEL 3
REMARK VINA RESULT:      -4.5      2.046      3.637
REMARK  Name = 
REMARK  8 active torsions:
REMARK  status: ('A' for Active; 'I' for Inactive)
REMARK    1  A    between atoms: C_2  and  C_3
REMARK    2  A    between atoms: C_3  and  O_4
REMARK    3  A    between atoms: N_5  and  C_6
REMARK    4  A    between atoms: N_5  and  C_9
REMARK    5  A    between atoms: C_6  and  C_7
REMARK    6  A    between atoms: C_7  and  O_8
REMARK    7  A    between atoms: C_9  and  C_10
REMARK    8  A    between atoms: C_10  and  O_11
REMARK                            x       y       z     vdW  Elec       q    Type
REMARK                         _______ _______ _______ _____ _____    ______ ____
ROOT
ATOM      1  O   UNL     1       8.250   4.213  17.473  0.00  0.00    +0.000 OA
ATOM      2  C   UNL     1       7.176   4.742  17.784  0.00  0.00    +0.000 C 
ATOM      3  N   UNL     1       6.038   4.624  16.996  0.00  0.00    +0.000 N 
ENDROOT
BRANCH   2   4
ATOM      4  C   UNL     1       7.090   5.539  19.093  0.00  0.00    +0.000 C 
BRANCH   4   5
ATOM      5  O   UNL     1       8.275   5.422  19.872  0.00  0.00    +0.000 OA
ATOM      6  H   UNL     1       8.295   4.498  20.192  0.00  0.00    +0.000 HD
ENDBRANCH   4   5
ENDBRANCH   2   4
BRANCH   3   7
ATOM      7  C   UNL     1       4.764   5.311  17.283  0.00  0.00    +0.000 C 
BRANCH   7   8
ATOM      8  C   UNL     1       3.570   4.369  17.448  0.00  0.00    +0.000 C 
BRANCH   8   9
ATOM      9  O   UNL     1       2.410   5.094  17.841  0.00  0.00    +0.000 OA
ATOM     10  H   UNL     1       1.767   4.413  18.123  0.00  0.00    +0.000 HD
ENDBRANCH   8   9
ENDBRANCH   7   8
ENDBRANCH   3   7
BRANCH   3  11
ATOM     11  C   UNL     1       6.151   3.925  15.709  0.00  0.00    +0.000 C 
BRANCH  11  12
ATOM     12  C   UNL     1       6.412   4.844  14.510  0.00  0.00    +0.000 C 
BRANCH  12  13
ATOM     13  O   UNL     1       7.743   5.366  14.563  0.00  0.00    +0.000 OA
ATOM     14  H   UNL     1       8.218   4.774  15.175  0.00  0.00    +0.000 HD
ENDBRANCH  12  13
ENDBRANCH  11  12
ENDBRANCH   3  11
TORSDOF 8
ENDMDL
MODEL 4
REMARK VINA RESULT:      -4.5      1.799      4.826
REMARK  Name = 
REMARK  8 active torsions:
REMARK  status: ('A' for Active; 'I' for Inactive)
REMARK    1  A    between atoms: C_2  and  C_3
REMARK    2  A    between atoms: C_3  and  O_4
REMARK    3  A    between atoms: N_5  and  C_6
REMARK    4  A    between atoms: N_5  and  C_9
REMARK    5  A    between atoms: C_6  and  C_7
REMARK    6  A    between atoms: C_7  and  O_8
REMARK    7  A    between atoms: C_9  and  C_10
REMARK    8  A    between atoms: C_10  and  O_11
REMARK                            x       y       z     vdW  Elec       q    Type
REMARK                         _______ _______ _______ _____ _____    ______ ____
ROOT
ATOM      1  O   UNL     1       5.460   5.568  19.669  0.00  0.00    +0.000 OA
ATOM      2  C   UNL     1       6.348   5.346  18.837  0.00  0.00    +0.000 C 
ATOM      3  N   UNL     1       6.064   4.889  17.557  0.00  0.00    +0.000 N 
ENDROOT
BRANCH   2   4
ATOM      4  C   UNL     1       7.811   5.602  19.223  0.00  0.00    +0.000 C 
BRANCH   4   5
ATOM      5  O   UNL     1       8.041   5.407  20.615  0.00  0.00    +0.000 OA
ATOM      6  H   UNL     1       7.842   4.465  20.789  0.00  0.00    +0.000 HD
ENDBRANCH   4   5
ENDBRANCH   2   4
BRANCH   3   7
ATOM      7  C   UNL     1       7.095   4.527  16.565  0.00  0.00    +0.000 C 
BRANCH   7   8
ATOM      8  C   UNL     1       6.689   4.796  15.115  0.00  0.00    +0.000 C 
BRANCH   8   9
ATOM      9  O   UNL     1       7.742   5.445  14.411  0.00  0.00    +0.000 OA
ATOM     10  H   UNL     1       8.402   5.674  15.094  0.00  0.00    +0.000 HD
ENDBRANCH   8   9
ENDBRANCH   7   8
ENDBRANCH   3   7
BRANCH   3  11
ATOM     11  C   UNL     1       4.668   4.574  17.223  0.00  0.00    +0.000 C 
BRANCH  11  12
ATOM     12  C   UNL     1       4.278   3.110  17.451  0.00  0.00    +0.000 C 
BRANCH  12  13
ATOM     13  O   UNL     1       4.584   2.716  18.791  0.00  0.00    +0.000 OA
ATOM     14  H   UNL     1       3.792   2.235  19.096  0.00  0.00    +0.000 HD
ENDBRANCH  12  13
ENDBRANCH  11  12
ENDBRANCH   3  11
TORSDOF 8
ENDMDL
MODEL 5
REMARK VINA RESULT:      -4.5      2.067      4.201
REMARK  Name = 
REMARK  8 active torsions:
REMARK  status: ('A' for Active; 'I' for Inactive)
REMARK    1  A    between atoms: C_2  and  C_3
REMARK    2  A    between atoms: C_3  and  O_4
REMARK    3  A    between atoms: N_5  and  C_6
REMARK    4  A    between atoms: N_5  and  C_9
REMARK    5  A    between atoms: C_6  and  C_7
REMARK    6  A    between atoms: C_7  and  O_8
REMARK    7  A    between atoms: C_9  and  C_10
REMARK    8  A    between atoms: C_10  and  O_11
REMARK                            x       y       z     vdW  Elec       q    Type
REMARK                         _______ _______ _______ _____ _____    ______ ____
ROOT
ATOM      1  O   UNL     1       5.738   4.165  19.374  0.00  0.00    +0.000 OA
ATOM      2  C   UNL     1       6.108   4.873  18.431  0.00  0.00    +0.000 C 
ATOM      3  N   UNL     1       5.208   5.490  17.572  0.00  0.00    +0.000 N 
ENDROOT
BRANCH   2   4
ATOM      4  C   UNL     1       7.610   5.095  18.212  0.00  0.00    +0.000 C 
BRANCH   4   5
ATOM      5  O   UNL     1       8.186   4.095  17.378  0.00  0.00    +0.000 OA
ATOM      6  H   UNL     1       9.131   4.050  17.627  0.00  0.00    +0.000 HD
ENDBRANCH   4   5
ENDBRANCH   2   4
BRANCH   3   7
ATOM      7  C   UNL     1       5.607   6.269  16.383  0.00  0.00    +0.000 C 
BRANCH   7   8
ATOM      8  C   UNL     1       5.852   5.420  15.135  0.00  0.00    +0.000 C 
BRANCH   8   9
ATOM      9  O   UNL     1       7.240   5.378  14.820  0.00  0.00    +0.000 OA
ATOM     10  H   UNL     1       7.337   4.634  14.193  0.00  0.00    +0.000 HD
ENDBRANCH   8   9
ENDBRANCH   7   8
ENDBRANCH   3   7
BRANCH   3  11
ATOM     11  C   UNL     1       3.776   5.209  17.744  0.00  0.00    +0.000 C 
BRANCH  11  12
ATOM     12  C   UNL     1       3.035   6.221  18.626  0.00  0.00    +0.000 C 
BRANCH  12  13
ATOM     13  O   UNL     1       3.255   5.930  20.009  0.00  0.00    +0.000 OA
ATOM     14  H   UNL     1       3.918   6.583  20.298  0.00  0.00    +0.000 HD
ENDBRANCH  12  13
ENDBRANCH  11  12
ENDBRANCH   3  11
TORSDOF 8
ENDMDL
MODEL 6
REMARK VINA RESULT:      -4.4      2.309      4.075
REMARK  Name = 
REMARK  8 active torsions:
REMARK  status: ('A' for Active; 'I' for Inactive)
REMARK    1  A    between atoms: C_2  and  C_3
REMARK    2  A    between atoms: C_3  and  O_4
REMARK    3  A    between atoms: N_5  and  C_6
REMARK    4  A    between atoms: N_5  and  C_9
REMARK    5  A    between atoms: C_6  and  C_7
REMARK    6  A    between atoms: C_7  and  O_8
REMARK    7  A    between atoms: C_9  and  C_10
REMARK    8  A    between atoms: C_10  and  O_11
REMARK                            x       y       z     vdW  Elec       q    Type
REMARK                         _______ _______ _______ _____ _____    ______ ____
ROOT
ATOM      1  O   UNL     1       8.345   4.052  17.740  0.00  0.00    +0.000 OA
ATOM      2  C   UNL     1       7.533   4.976  17.872  0.00  0.00    +0.000 C 
ATOM      3  N   UNL     1       6.376   5.058  17.109  0.00  0.00    +0.000 N 
ENDROOT
BRANCH   2   4
ATOM      4  C   UNL     1       7.800   6.057  18.928  0.00  0.00    +0.000 C 
BRANCH   4   5
ATOM      5  O   UNL     1       7.848   5.521  20.246  0.00  0.00    +0.000 OA
ATOM      6  H   UNL     1       8.596   5.970  20.690  0.00  0.00    +0.000 HD
ENDBRANCH   4   5
ENDBRANCH   2   4
BRANCH   3   7
ATOM      7  C   UNL     1       5.427   6.187  17.171  0.00  0.00    +0.000 C 
BRANCH   7   8
ATOM      8  C   UNL     1       4.061   5.823  17.756  0.00  0.00    +0.000 C 
BRANCH   8   9
ATOM      9  O   UNL     1       3.253   6.986  17.905  0.00  0.00    +0.000 OA
ATOM     10  H   UNL     1       3.369   7.259  18.837  0.00  0.00    +0.000 HD
ENDBRANCH   8   9
ENDBRANCH   7   8
ENDBRANCH   3   7
BRANCH   3  11
ATOM     11  C   UNL     1       6.168   4.060  16.050  0.00  0.00    +0.000 C 
BRANCH  11  12
ATOM     12  C   UNL     1       6.615   4.516  14.656  0.00  0.00    +0.000 C 
BRANCH  12  13
ATOM     13  O   UNL     1       6.384   3.481  13.697  0.00  0.00    +0.000 OA
ATOM     14  H   UNL     1       5.444   3.571  13.455  0.00  0.00    +0.000 HD
ENDBRANCH  12  13
ENDBRANCH  11  12
ENDBRANCH   3  11
TORSDOF 8
ENDMDL
MODEL 7
REMARK VINA RESULT:      -4.4      1.549      3.435
REMARK  Name = 
REMARK  8 active torsions:
REMARK  status: ('A' for Active; 'I' for Inactive)
REMARK    1  A    between atoms: C_2  and  C_3
REMARK    2  A    between atoms: C_3  and  O_4
REMARK    3  A    between atoms: N_5  and  C_6
REMARK    4  A    between atoms: N_5  and  C_9
REMARK    5  A    between atoms: C_6  and  C_7
REMARK    6  A    between atoms: C_7  and  O_8
REMARK    7  A    between atoms: C_9  and  C_10
REMARK    8  A    between atoms: C_10  and  O_11
REMARK                            x       y       z     vdW  Elec       q    Type
REMARK                         _______ _______ _______ _____ _____    ______ ____
ROOT
ATOM      1  O   UNL     1       8.211   4.479  16.997  0.00  0.00    +0.000 OA
ATOM      2  C   UNL     1       7.291   4.988  17.648  0.00  0.00    +0.000 C 
ATOM      3  N   UNL     1       5.956   4.769  17.336  0.00  0.00    +0.000 N 
ENDROOT
BRANCH   2   4
ATOM      4  C   UNL     1       7.633   5.874  18.853  0.00  0.00    +0.000 C 
BRANCH   4   5
ATOM      5  O   UNL     1       7.519   5.171  20.086  0.00  0.00    +0.000 OA
ATOM      6  H   UNL     1       8.431   5.075  20.425  0.00  0.00    +0.000 HD
ENDBRANCH   4   5
ENDBRANCH   2   4
BRANCH   3   7
ATOM      7  C   UNL     1       4.831   5.426  18.029  0.00  0.00    +0.000 C 
BRANCH   7   8
ATOM      8  C   UNL     1       4.082   4.516  19.005  0.00  0.00    +0.000 C 
BRANCH   8   9
ATOM      9  O   UNL     1       4.974   3.584  19.607  0.00  0.00    +0.000 OA
ATOM     10  H   UNL     1       5.039   3.861  20.543  0.00  0.00    +0.000 HD
ENDBRANCH   8   9
ENDBRANCH   7   8
ENDBRANCH   3   7
BRANCH   3  11
ATOM     11  C   UNL     1       5.640   3.983  16.135  0.00  0.00    +0.000 C 
BRANCH  11  12
ATOM     12  C   UNL     1       5.495   4.814  14.855  0.00  0.00    +0.000 C 
BRANCH  12  13
ATOM     13  O   UNL     1       6.783   5.130  14.319  0.00  0.00    +0.000 OA
ATOM     14  H   UNL     1       7.120   4.286  13.967  0.00  0.00    +0.000 HD
ENDBRANCH  12  13
ENDBRANCH  11  12
ENDBRANCH   3  11
TORSDOF 8
ENDMDL
MODEL 8
REMARK VINA RESULT:      -4.3      2.829      4.538
REMARK  Name = 
REMARK  8 active torsions:
REMARK  status: ('A' for Active; 'I' for Inactive)
REMARK    1  A    between atoms: C_2  and  C_3
REMARK    2  A    between atoms: C_3  and  O_4
REMARK    3  A    between atoms: N_5  and  C_6
REMARK    4  A    between atoms: N_5  and  C_9
REMARK    5  A    between atoms: C_6  and  C_7
REMARK    6  A    between atoms: C_7  and  O_8
REMARK    7  A    between atoms: C_9  and  C_10
REMARK    8  A    between atoms: C_10  and  O_11
REMARK                            x       y       z     vdW  Elec       q    Type
REMARK                         _______ _______ _______ _____ _____    ______ ____
ROOT
ATOM      1  O   UNL     1       4.934   2.316  20.095  0.00  0.00    +0.000 OA
ATOM      2  C   UNL     1       4.010   2.962  19.586  0.00  0.00    +0.000 C 
ATOM      3  N   UNL     1       4.209   4.213  19.018  0.00  0.00    +0.000 N 
ENDROOT
BRANCH   2   4
ATOM      4  C   UNL     1       2.601   2.354  19.562  0.00  0.00    +0.000 C 
BRANCH   4   5
ATOM      5  O   UNL     1       2.390   1.532  18.419  0.00  0.00    +0.000 OA
ATOM      6  H   UNL     1       3.194   1.626  17.870  0.00  0.00    +0.000 HD
ENDBRANCH   4   5
ENDBRANCH   2   4
BRANCH   3   7
ATOM      7  C   UNL     1       3.122   5.055  18.481  0.00  0.00    +0.000 C 
BRANCH   7   8
ATOM      8  C   UNL     1       2.845   6.315  19.303  0.00  0.00    +0.000 C 
BRANCH   8   9
ATOM      9  O   UNL     1       2.495   5.975  20.640  0.00  0.00    +0.000 OA
ATOM     10  H   UNL     1       1.826   5.266  20.557  0.00  0.00    +0.000 HD
ENDBRANCH   8   9
ENDBRANCH   7   8
ENDBRANCH   3   7
BRANCH   3  11
ATOM     11  C   UNL     1       5.545   4.818  19.113  0.00  0.00    +0.000 C 
BRANCH  11  12
ATOM     12  C   UNL     1       6.361   4.756  17.818  0.00  0.00    +0.000 C 
BRANCH  12  13
ATOM     13  O   UNL     1       7.662   4.221  18.074  0.00  0.00    +0.000 OA
ATOM     14  H   UNL     1       7.749   4.233  19.045  0.00  0.00    +0.000 HD
ENDBRANCH  12  13
ENDBRANCH  11  12
ENDBRANCH   3  11
TORSDOF 8
ENDMDL
MODEL 9
REMARK VINA RESULT:      -4.3      1.880      3.902
REMARK  Name = 
REMARK  8 active torsions:
REMARK  status: ('A' for Active; 'I' for Inactive)
REMARK    1  A    between atoms: C_2  and  C_3
REMARK    2  A    between atoms: C_3  and  O_4
REMARK    3  A    between atoms: N_5  and  C_6
REMARK    4  A    between atoms: N_5  and  C_9
REMARK    5  A    between atoms: C_6  and  C_7
REMARK    6  A    between atoms: C_7  and  O_8
REMARK    7  A    between atoms: C_9  and  C_10
REMARK    8  A    between atoms: C_10  and  O_11
REMARK                            x       y       z     vdW  Elec       q    Type
REMARK                         _______ _______ _______ _____ _____    ______ ____
ROOT
ATOM      1  O   UNL     1       8.368   4.166  17.863  0.00  0.00    +0.000 OA
ATOM      2  C   UNL     1       7.302   4.793  17.862  0.00  0.00    +0.000 C 
ATOM      3  N   UNL     1       6.447   4.796  16.768  0.00  0.00    +0.000 N 
ENDROOT
BRANCH   2   4
ATOM      4  C   UNL     1       6.899   5.577  19.118  0.00  0.00    +0.000 C 
BRANCH   4   5
ATOM      5  O   UNL     1       7.838   5.418  20.176  0.00  0.00    +0.000 OA
ATOM      6  H   UNL     1       7.810   6.252  20.687  0.00  0.00    +0.000 HD
ENDBRANCH   4   5
ENDBRANCH   2   4
BRANCH   3   7
ATOM      7  C   UNL     1       5.212   5.600  16.692  0.00  0.00    +0.000 C 
BRANCH   7   8
ATOM      8  C   UNL     1       4.021   4.987  17.430  0.00  0.00    +0.000 C 
BRANCH   8   9
ATOM      9  O   UNL     1       4.007   3.572  17.272  0.00  0.00    +0.000 OA
ATOM     10  H   UNL     1       3.657   3.420  16.372  0.00  0.00    +0.000 HD
ENDBRANCH   8   9
ENDBRANCH   7   8
ENDBRANCH   3   7
BRANCH   3  11
ATOM     11  C   UNL     1       6.878   4.106  15.545  0.00  0.00    +0.000 C 
BRANCH  11  12
ATOM     12  C   UNL     1       5.911   4.248  14.364  0.00  0.00    +0.000 C 
BRANCH  12  13
ATOM     13  O   UNL     1       6.262   3.336  13.320  0.00  0.00    +0.000 OA
ATOM     14  H   UNL     1       5.665   2.576  13.443  0.00  0.00    +0.000 HD
ENDBRANCH  12  13
ENDBRANCH  11  12
ENDBRANCH   3  11
TORSDOF 8
ENDMDL
