MODEL 1
REMARK VINA RESULT:      -7.6      0.000      0.000
REMARK  Name = 
REMARK  12 active torsions:
REMARK  status: ('A' for Active; 'I' for Inactive)
REMARK    1  A    between atoms: C_1  and  O_2
REMARK    2  A    between atoms: O_2  and  C_3
REMARK    3  A    between atoms: C_6  and  S_7
REMARK    4  A    between atoms: S_7  and  N_10
REMARK    5  A    between atoms: N_10  and  C_11
REMARK    6  A    between atoms: N_10  and  C_12
REMARK    7  A    between atoms: C_12  and  C_13
REMARK    8  A    between atoms: N_23  and  C_24
REMARK    9  A    between atoms: C_24  and  C_25
REMARK   10  A    between atoms: C_24  and  C_26
REMARK   11  A    between atoms: C_26  and  O_27
REMARK   12  A    between atoms: C_29  and  C_30
REMARK                            x       y       z     vdW  Elec       q    Type
REMARK                         _______ _______ _______ _____ _____    ______ ____
ROOT
ATOM      1  C   UNL     1       2.672   6.599  18.839  0.00  0.00    +0.000 C 
ATOM      2  O   UNL     1       1.790   5.757  18.088  0.00  0.00    +0.000 OA
ATOM      3  C   UNL     1       2.253   4.534  17.713  0.00  0.00    +0.000 A 
ATOM      4  N   UNL     1       1.338   3.561  17.949  0.00  0.00    +0.000 NA
ATOM      5  C   UNL     1       1.750   2.275  17.885  0.00  0.00    +0.000 A 
ATOM      6  C   UNL     1       3.041   1.899  17.564  0.00  0.00    +0.000 A 
ATOM      7  C   UNL     1       3.952   2.901  17.256  0.00  0.00    +0.000 A 
ATOM      8  C   UNL     1       3.555   4.243  17.338  0.00  0.00    +0.000 A 
ATOM      9  C   UNL     1       4.591   5.250  17.106  0.00  0.00    +0.000 C 
ATOM     10  O   UNL     1       4.766   5.685  15.972  0.00  0.00    +0.000 OA
ATOM     11  N   UNL     1       5.479   5.482  18.159  0.00  0.00    +0.000 N 
ATOM     12  C   UNL     1       5.060   5.946  19.497  0.00  0.00    +0.000 C 
ATOM     13  C   UNL     1       3.574   5.910  19.922  0.00  0.00    +0.000 C 
ATOM     14  C   UNL     1       3.196   4.528  20.481  0.00  0.00    +0.000 C 
ENDROOT
BRANCH  11  15
ATOM     15  C   UNL     1       6.899   5.696  17.774  0.00  0.00    +0.000 C 
ATOM     16  C   UNL     1       7.534   4.402  17.263  0.00  0.00    +0.000 C 
BRANCH  15  17
ATOM     17  C   UNL     1       7.786   6.326  18.871  0.00  0.00    +0.000 C 
BRANCH  17  18
ATOM     18  O   UNL     1       8.368   5.386  19.765  0.00  0.00    +0.000 OA
ATOM     19  H   UNL     1       9.225   5.744  20.078  0.00  0.00    +0.000 HD
ENDBRANCH  17  18
ENDBRANCH  15  17
ENDBRANCH  11  15
BRANCH   1  20
ATOM     20  C   UNL     1       1.810   7.721  19.488  0.00  0.00    +0.000 C 
BRANCH  20  21
ATOM     21  N   UNL     1       1.394   8.823  18.536  0.00  0.00    +0.000 NA
ATOM     22  C   UNL     1       2.464   9.249  17.601  0.00  0.00    +0.000 C 
BRANCH  21  23
ATOM     23  S   UNL     1       0.671  10.150  19.380  0.00  0.00    +0.000 S 
ATOM     24  O   UNL     1       1.525  11.300  19.152  0.00  0.00    +0.000 OA
ATOM     25  O   UNL     1       0.361   9.704  20.719  0.00  0.00    +0.000 OA
BRANCH  23  29
ATOM     26  C   UNL     1      -3.217  11.000  17.135  0.00  0.00    +0.000 A 
ATOM     27  C   UNL     1      -2.911  11.689  18.315  0.00  0.00    +0.000 A 
ATOM     28  C   UNL     1      -1.735  11.412  19.017  0.00  0.00    +0.000 A 
ATOM     29  C   UNL     1      -0.874  10.418  18.547  0.00  0.00    +0.000 A 
ATOM     30  C   UNL     1      -1.189   9.697  17.390  0.00  0.00    +0.000 A 
ATOM     31  C   UNL     1      -2.363   9.990  16.685  0.00  0.00    +0.000 A 
BRANCH  26  33
ATOM     32  C   UNL     1      -5.407  11.860  17.397  0.00  0.00    +0.000 C 
ATOM     33  O   UNL     1      -4.390  11.363  16.531  0.00  0.00    +0.000 OA
ENDBRANCH  26  33
ENDBRANCH  23  29
ENDBRANCH  21  23
ENDBRANCH  20  21
ENDBRANCH   1  20
TORSDOF 8
ENDMDL
MODEL 2
REMARK VINA RESULT:      -7.5      0.713      1.114
REMARK  Name = 
REMARK  12 active torsions:
REMARK  status: ('A' for Active; 'I' for Inactive)
REMARK    1  A    between atoms: C_1  and  O_2
REMARK    2  A    between atoms: O_2  and  C_3
REMARK    3  A    between atoms: C_6  and  S_7
REMARK    4  A    between atoms: S_7  and  N_10
REMARK    5  A    between atoms: N_10  and  C_11
REMARK    6  A    between atoms: N_10  and  C_12
REMARK    7  A    between atoms: C_12  and  C_13
REMARK    8  A    between atoms: N_23  and  C_24
REMARK    9  A    between atoms: C_24  and  C_25
REMARK   10  A    between atoms: C_24  and  C_26
REMARK   11  A    between atoms: C_26  and  O_27
REMARK   12  A    between atoms: C_29  and  C_30
REMARK                            x       y       z     vdW  Elec       q    Type
REMARK                         _______ _______ _______ _____ _____    ______ ____
ROOT
ATOM      1  C   UNL     1       2.755   6.621  18.856  0.00  0.00    +0.000 C 
ATOM      2  O   UNL     1       1.820   5.790  18.158  0.00  0.00    +0.000 OA
ATOM      3  C   UNL     1       2.250   4.569  17.740  0.00  0.00    +0.000 A 
ATOM      4  N   UNL     1       1.348   3.598  18.029  0.00  0.00    +0.000 NA
ATOM      5  C   UNL     1       1.748   2.311  17.924  0.00  0.00    +0.000 A 
ATOM      6  C   UNL     1       3.014   1.932  17.513  0.00  0.00    +0.000 A 
ATOM      7  C   UNL     1       3.907   2.934  17.153  0.00  0.00    +0.000 A 
ATOM      8  C   UNL     1       3.523   4.276  17.275  0.00  0.00    +0.000 A 
ATOM      9  C   UNL     1       4.546   5.281  16.984  0.00  0.00    +0.000 C 
ATOM     10  O   UNL     1       4.646   5.727  15.844  0.00  0.00    +0.000 OA
ATOM     11  N   UNL     1       5.504   5.498  17.976  0.00  0.00    +0.000 N 
ATOM     12  C   UNL     1       5.179   5.951  19.344  0.00  0.00    +0.000 C 
ATOM     13  C   UNL     1       3.725   5.917  19.868  0.00  0.00    +0.000 C 
ATOM     14  C   UNL     1       3.379   4.531  20.438  0.00  0.00    +0.000 C 
ENDROOT
BRANCH  11  15
ATOM     15  C   UNL     1       6.895   5.710  17.497  0.00  0.00    +0.000 C 
ATOM     16  C   UNL     1       7.754   4.464  17.724  0.00  0.00    +0.000 C 
BRANCH  15  17
ATOM     17  C   UNL     1       7.604   6.956  18.076  0.00  0.00    +0.000 C 
BRANCH  17  18
ATOM     18  O   UNL     1       7.761   8.023  17.150  0.00  0.00    +0.000 OA
ATOM     19  H   UNL     1       8.020   7.647  16.283  0.00  0.00    +0.000 HD
ENDBRANCH  17  18
ENDBRANCH  15  17
ENDBRANCH  11  15
BRANCH   1  20
ATOM     20  C   UNL     1       1.945   7.740  19.572  0.00  0.00    +0.000 C 
BRANCH  20  21
ATOM     21  N   UNL     1       1.402   8.812  18.650  0.00  0.00    +0.000 NA
ATOM     22  C   UNL     1       2.381   9.293  17.644  0.00  0.00    +0.000 C 
BRANCH  21  23
ATOM     23  S   UNL     1       0.663  10.099  19.539  0.00  0.00    +0.000 S 
ATOM     24  O   UNL     1       1.569  11.229  19.463  0.00  0.00    +0.000 OA
ATOM     25  O   UNL     1       0.240   9.567  20.814  0.00  0.00    +0.000 OA
BRANCH  23  29
ATOM     26  C   UNL     1      -3.217  10.945  17.279  0.00  0.00    +0.000 A 
ATOM     27  C   UNL     1      -2.327   9.964  16.824  0.00  0.00    +0.000 A 
ATOM     28  C   UNL     1      -1.128   9.722  17.499  0.00  0.00    +0.000 A 
ATOM     29  C   UNL     1      -0.806  10.487  18.621  0.00  0.00    +0.000 A 
ATOM     30  C   UNL     1      -1.670  11.496  19.062  0.00  0.00    +0.000 A 
ATOM     31  C   UNL     1      -2.877  11.724  18.388  0.00  0.00    +0.000 A 
BRANCH  26  33
ATOM     32  C   UNL     1      -5.377  11.900  17.122  0.00  0.00    +0.000 C 
ATOM     33  O   UNL     1      -4.362  11.085  16.542  0.00  0.00    +0.000 OA
ENDBRANCH  26  33
ENDBRANCH  23  29
ENDBRANCH  21  23
ENDBRANCH  20  21
ENDBRANCH   1  20
TORSDOF 8
ENDMDL
MODEL 3
REMARK VINA RESULT:      -6.9      1.243      1.451
REMARK  Name = 
REMARK  12 active torsions:
REMARK  status: ('A' for Active; 'I' for Inactive)
REMARK    1  A    between atoms: C_1  and  O_2
REMARK    2  A    between atoms: O_2  and  C_3
REMARK    3  A    between atoms: C_6  and  S_7
REMARK    4  A    between atoms: S_7  and  N_10
REMARK    5  A    between atoms: N_10  and  C_11
REMARK    6  A    between atoms: N_10  and  C_12
REMARK    7  A    between atoms: C_12  and  C_13
REMARK    8  A    between atoms: N_23  and  C_24
REMARK    9  A    between atoms: C_24  and  C_25
REMARK   10  A    between atoms: C_24  and  C_26
REMARK   11  A    between atoms: C_26  and  O_27
REMARK   12  A    between atoms: C_29  and  C_30
REMARK                            x       y       z     vdW  Elec       q    Type
REMARK                         _______ _______ _______ _____ _____    ______ ____
ROOT
ATOM      1  C   UNL     1       2.344   6.417  18.103  0.00  0.00    +0.000 C 
ATOM      2  O   UNL     1       1.609   5.319  17.550  0.00  0.00    +0.000 OA
ATOM      3  C   UNL     1       2.134   4.072  17.695  0.00  0.00    +0.000 A 
ATOM      4  N   UNL     1       1.194   3.180  18.096  0.00  0.00    +0.000 NA
ATOM      5  C   UNL     1       1.614   1.975  18.542  0.00  0.00    +0.000 A 
ATOM      6  C   UNL     1       2.943   1.594  18.584  0.00  0.00    +0.000 A 
ATOM      7  C   UNL     1       3.891   2.489  18.105  0.00  0.00    +0.000 A 
ATOM      8  C   UNL     1       3.482   3.753  17.659  0.00  0.00    +0.000 A 
ATOM      9  C   UNL     1       4.540   4.687  17.270  0.00  0.00    +0.000 C 
ATOM     10  O   UNL     1       4.909   4.727  16.100  0.00  0.00    +0.000 OA
ATOM     11  N   UNL     1       5.230   5.312  18.311  0.00  0.00    +0.000 N 
ATOM     12  C   UNL     1       4.583   6.171  19.324  0.00  0.00    +0.000 C 
ATOM     13  C   UNL     1       3.046   6.188  19.487  0.00  0.00    +0.000 C 
ATOM     14  C   UNL     1       2.580   5.052  20.413  0.00  0.00    +0.000 C 
ENDROOT
BRANCH  11  15
ATOM     15  C   UNL     1       6.695   5.472  18.112  0.00  0.00    +0.000 C 
ATOM     16  C   UNL     1       7.424   5.598  19.451  0.00  0.00    +0.000 C 
BRANCH  15  17
ATOM     17  C   UNL     1       7.105   6.630  17.174  0.00  0.00    +0.000 C 
BRANCH  17  18
ATOM     18  O   UNL     1       7.526   6.214  15.881  0.00  0.00    +0.000 OA
ATOM     19  H   UNL     1       8.066   5.401  15.976  0.00  0.00    +0.000 HD
ENDBRANCH  17  18
ENDBRANCH  15  17
ENDBRANCH  11  15
BRANCH   1  20
ATOM     20  C   UNL     1       1.380   7.635  18.181  0.00  0.00    +0.000 C 
BRANCH  20  21
ATOM     21  N   UNL     1       1.746   8.661  19.234  0.00  0.00    +0.000 NA
ATOM     22  C   UNL     1       1.114   8.421  20.554  0.00  0.00    +0.000 C 
BRANCH  21  23
ATOM     23  S   UNL     1       1.509  10.275  18.657  0.00  0.00    +0.000 S 
ATOM     24  O   UNL     1       2.116  10.338  17.341  0.00  0.00    +0.000 OA
ATOM     25  O   UNL     1       1.910  11.182  19.708  0.00  0.00    +0.000 OA
BRANCH  23  29
ATOM     26  C   UNL     1      -2.988  10.847  18.085  0.00  0.00    +0.000 A 
ATOM     27  C   UNL     1      -2.318  11.482  19.137  0.00  0.00    +0.000 A 
ATOM     28  C   UNL     1      -0.948  11.288  19.329  0.00  0.00    +0.000 A 
ATOM     29  C   UNL     1      -0.251  10.429  18.478  0.00  0.00    +0.000 A 
ATOM     30  C   UNL     1      -0.918   9.759  17.446  0.00  0.00    +0.000 A 
ATOM     31  C   UNL     1      -2.290   9.970  17.252  0.00  0.00    +0.000 A 
BRANCH  26  33
ATOM     32  C   UNL     1      -4.824  12.101  18.898  0.00  0.00    +0.000 C 
ATOM     33  O   UNL     1      -4.326  11.121  17.991  0.00  0.00    +0.000 OA
ENDBRANCH  26  33
ENDBRANCH  23  29
ENDBRANCH  21  23
ENDBRANCH  20  21
ENDBRANCH   1  20
TORSDOF 8
ENDMDL
MODEL 4
REMARK VINA RESULT:      -6.6      6.196      8.475
REMARK  Name = 
REMARK  12 active torsions:
REMARK  status: ('A' for Active; 'I' for Inactive)
REMARK    1  A    between atoms: C_1  and  O_2
REMARK    2  A    between atoms: O_2  and  C_3
REMARK    3  A    between atoms: C_6  and  S_7
REMARK    4  A    between atoms: S_7  and  N_10
REMARK    5  A    between atoms: N_10  and  C_11
REMARK    6  A    between atoms: N_10  and  C_12
REMARK    7  A    between atoms: C_12  and  C_13
REMARK    8  A    between atoms: N_23  and  C_24
REMARK    9  A    between atoms: C_24  and  C_25
REMARK   10  A    between atoms: C_24  and  C_26
REMARK   11  A    between atoms: C_26  and  O_27
REMARK   12  A    between atoms: C_29  and  C_30
REMARK                            x       y       z     vdW  Elec       q    Type
REMARK                         _______ _______ _______ _____ _____    ______ ____
ROOT
ATOM      1  C   UNL     1      -1.093  12.021  21.621  0.00  0.00    +0.000 C 
ATOM      2  O   UNL     1       0.323  12.067  21.837  0.00  0.00    +0.000 OA
ATOM      3  C   UNL     1       1.121  12.252  20.752  0.00  0.00    +0.000 A 
ATOM      4  N   UNL     1       2.079  13.183  20.990  0.00  0.00    +0.000 NA
ATOM      5  C   UNL     1       2.767  13.669  19.933  0.00  0.00    +0.000 A 
ATOM      6  C   UNL     1       2.569  13.248  18.631  0.00  0.00    +0.000 A 
ATOM      7  C   UNL     1       1.635  12.245  18.407  0.00  0.00    +0.000 A 
ATOM      8  C   UNL     1       0.893  11.741  19.483  0.00  0.00    +0.000 A 
ATOM      9  C   UNL     1      -0.149  10.764  19.164  0.00  0.00    +0.000 C 
ATOM     10  O   UNL     1       0.121   9.567  19.182  0.00  0.00    +0.000 OA
ATOM     11  N   UNL     1      -1.334  11.272  18.626  0.00  0.00    +0.000 N 
ATOM     12  C   UNL     1      -2.197  12.248  19.321  0.00  0.00    +0.000 C 
ATOM     13  C   UNL     1      -1.690  13.015  20.564  0.00  0.00    +0.000 C 
ATOM     14  C   UNL     1      -0.907  14.272  20.152  0.00  0.00    +0.000 C 
ENDROOT
BRANCH  11  15
ATOM     15  C   UNL     1      -1.949  10.466  17.539  0.00  0.00    +0.000 C 
ATOM     16  C   UNL     1      -2.325  11.344  16.344  0.00  0.00    +0.000 C 
BRANCH  15  17
ATOM     17  C   UNL     1      -3.159   9.605  17.967  0.00  0.00    +0.000 C 
BRANCH  17  18
ATOM     18  O   UNL     1      -4.420  10.239  17.791  0.00  0.00    +0.000 OA
ATOM     19  H   UNL     1      -4.997   9.998  18.547  0.00  0.00    +0.000 HD
ENDBRANCH  17  18
ENDBRANCH  15  17
ENDBRANCH  11  15
BRANCH   1  20
ATOM     20  C   UNL     1      -1.785  12.219  23.001  0.00  0.00    +0.000 C 
BRANCH  20  21
ATOM     21  N   UNL     1      -2.412  13.584  23.199  0.00  0.00    +0.000 NA
ATOM     22  C   UNL     1      -1.663  14.461  24.133  0.00  0.00    +0.000 C 
BRANCH  21  23
ATOM     23  S   UNL     1      -4.092  13.458  23.595  0.00  0.00    +0.000 S 
ATOM     24  O   UNL     1      -4.420  14.630  24.385  0.00  0.00    +0.000 OA
ATOM     25  O   UNL     1      -4.326  12.126  24.103  0.00  0.00    +0.000 OA
BRANCH  23  29
ATOM     26  C   UNL     1      -6.055  13.744  19.479  0.00  0.00    +0.000 A 
ATOM     27  C   UNL     1      -5.544  14.888  20.105  0.00  0.00    +0.000 A 
ATOM     28  C   UNL     1      -4.967  14.807  21.375  0.00  0.00    +0.000 A 
ATOM     29  C   UNL     1      -4.927  13.576  22.033  0.00  0.00    +0.000 A 
ATOM     30  C   UNL     1      -5.468  12.434  21.432  0.00  0.00    +0.000 A 
ATOM     31  C   UNL     1      -6.034  12.521  20.153  0.00  0.00    +0.000 A 
BRANCH  26  33
ATOM     32  C   UNL     1      -6.932  12.769  17.508  0.00  0.00    +0.000 C 
ATOM     33  O   UNL     1      -6.587  13.946  18.234  0.00  0.00    +0.000 OA
ENDBRANCH  26  33
ENDBRANCH  23  29
ENDBRANCH  21  23
ENDBRANCH  20  21
ENDBRANCH   1  20
TORSDOF 8
ENDMDL
MODEL 5
REMARK VINA RESULT:      -6.4      4.117     10.577
REMARK  Name = 
REMARK  12 active torsions:
REMARK  status: ('A' for Active; 'I' for Inactive)
REMARK    1  A    between atoms: C_1  and  O_2
REMARK    2  A    between atoms: O_2  and  C_3
REMARK    3  A    between atoms: C_6  and  S_7
REMARK    4  A    between atoms: S_7  and  N_10
REMARK    5  A    between atoms: N_10  and  C_11
REMARK    6  A    between atoms: N_10  and  C_12
REMARK    7  A    between atoms: C_12  and  C_13
REMARK    8  A    between atoms: N_23  and  C_24
REMARK    9  A    between atoms: C_24  and  C_25
REMARK   10  A    between atoms: C_24  and  C_26
REMARK   11  A    between atoms: C_26  and  O_27
REMARK   12  A    between atoms: C_29  and  C_30
REMARK                            x       y       z     vdW  Elec       q    Type
REMARK                         _______ _______ _______ _____ _____    ______ ____
ROOT
ATOM      1  C   UNL     1      -0.414  12.686  21.103  0.00  0.00    +0.000 C 
ATOM      2  O   UNL     1      -0.370  13.478  19.910  0.00  0.00    +0.000 OA
ATOM      3  C   UNL     1      -1.069  14.644  19.900  0.00  0.00    +0.000 A 
ATOM      4  N   UNL     1      -0.332  15.662  19.388  0.00  0.00    +0.000 NA
ATOM      5  C   UNL     1      -0.786  16.923  19.564  0.00  0.00    +0.000 A 
ATOM      6  C   UNL     1      -1.970  17.229  20.210  0.00  0.00    +0.000 A 
ATOM      7  C   UNL     1      -2.751  16.175  20.668  0.00  0.00    +0.000 A 
ATOM      8  C   UNL     1      -2.291  14.860  20.518  0.00  0.00    +0.000 A 
ATOM      9  C   UNL     1      -3.108  13.805  21.119  0.00  0.00    +0.000 C 
ATOM     10  O   UNL     1      -3.976  13.258  20.446  0.00  0.00    +0.000 OA
ATOM     11  N   UNL     1      -3.003  13.650  22.503  0.00  0.00    +0.000 N 
ATOM     12  C   UNL     1      -1.740  13.330  23.199  0.00  0.00    +0.000 C 
ATOM     13  C   UNL     1      -0.380  13.450  22.472  0.00  0.00    +0.000 C 
ATOM     14  C   UNL     1       0.155  14.890  22.544  0.00  0.00    +0.000 C 
ENDROOT
BRANCH  11  15
ATOM     15  C   UNL     1      -4.272  13.359  23.220  0.00  0.00    +0.000 C 
ATOM     16  C   UNL     1      -5.042  14.644  23.526  0.00  0.00    +0.000 C 
BRANCH  15  17
ATOM     17  C   UNL     1      -4.118  12.513  24.505  0.00  0.00    +0.000 C 
BRANCH  17  18
ATOM     18  O   UNL     1      -5.221  11.659  24.779  0.00  0.00    +0.000 OA
ATOM     19  H   UNL     1      -5.637  11.406  23.928  0.00  0.00    +0.000 HD
ENDBRANCH  17  18
ENDBRANCH  15  17
ENDBRANCH  11  15
BRANCH   1  20
ATOM     20  C   UNL     1       0.751  11.658  21.028  0.00  0.00    +0.000 C 
BRANCH  20  21
ATOM     21  N   UNL     1       0.403  10.364  20.321  0.00  0.00    +0.000 NA
ATOM     22  C   UNL     1      -0.968  10.336  19.755  0.00  0.00    +0.000 C 
BRANCH  21  23
ATOM     23  S   UNL     1       0.752   8.988  21.310  0.00  0.00    +0.000 S 
ATOM     24  O   UNL     1      -0.525   8.389  21.650  0.00  0.00    +0.000 OA
ATOM     25  O   UNL     1       1.676   9.407  22.338  0.00  0.00    +0.000 OA
BRANCH  23  29
ATOM     26  C   UNL     1       2.828   6.064  18.478  0.00  0.00    +0.000 A 
ATOM     27  C   UNL     1       2.413   5.651  19.750  0.00  0.00    +0.000 A 
ATOM     28  C   UNL     1       1.802   6.550  20.627  0.00  0.00    +0.000 A 
ATOM     29  C   UNL     1       1.630   7.880  20.237  0.00  0.00    +0.000 A 
ATOM     30  C   UNL     1       2.075   8.312  18.983  0.00  0.00    +0.000 A 
ATOM     31  C   UNL     1       2.676   7.402  18.104  0.00  0.00    +0.000 A 
BRANCH  26  33
ATOM     32  C   UNL     1       4.384   4.285  18.352  0.00  0.00    +0.000 C 
ATOM     33  O   UNL     1       3.405   5.094  17.704  0.00  0.00    +0.000 OA
ENDBRANCH  26  33
ENDBRANCH  23  29
ENDBRANCH  21  23
ENDBRANCH  20  21
ENDBRANCH   1  20
TORSDOF 8
ENDMDL
MODEL 6
REMARK VINA RESULT:      -6.4      2.368      3.055
REMARK  Name = 
REMARK  12 active torsions:
REMARK  status: ('A' for Active; 'I' for Inactive)
REMARK    1  A    between atoms: C_1  and  O_2
REMARK    2  A    between atoms: O_2  and  C_3
REMARK    3  A    between atoms: C_6  and  S_7
REMARK    4  A    between atoms: S_7  and  N_10
REMARK    5  A    between atoms: N_10  and  C_11
REMARK    6  A    between atoms: N_10  and  C_12
REMARK    7  A    between atoms: C_12  and  C_13
REMARK    8  A    between atoms: N_23  and  C_24
REMARK    9  A    between atoms: C_24  and  C_25
REMARK   10  A    between atoms: C_24  and  C_26
REMARK   11  A    between atoms: C_26  and  O_27
REMARK   12  A    between atoms: C_29  and  C_30
REMARK                            x       y       z     vdW  Elec       q    Type
REMARK                         _______ _______ _______ _____ _____    ______ ____
ROOT
ATOM      1  C   UNL     1       2.387   6.205  18.146  0.00  0.00    +0.000 C 
ATOM      2  O   UNL     1       1.695   5.079  17.592  0.00  0.00    +0.000 OA
ATOM      3  C   UNL     1       2.270   3.855  17.729  0.00  0.00    +0.000 A 
ATOM      4  N   UNL     1       1.368   2.923  18.131  0.00  0.00    +0.000 NA
ATOM      5  C   UNL     1       1.838   1.735  18.570  0.00  0.00    +0.000 A 
ATOM      6  C   UNL     1       3.182   1.408  18.606  0.00  0.00    +0.000 A 
ATOM      7  C   UNL     1       4.091   2.342  18.128  0.00  0.00    +0.000 A 
ATOM      8  C   UNL     1       3.630   3.590  17.688  0.00  0.00    +0.000 A 
ATOM      9  C   UNL     1       4.648   4.568  17.300  0.00  0.00    +0.000 C 
ATOM     10  O   UNL     1       5.011   4.627  16.129  0.00  0.00    +0.000 OA
ATOM     11  N   UNL     1       5.315   5.217  18.341  0.00  0.00    +0.000 N 
ATOM     12  C   UNL     1       4.638   6.045  19.359  0.00  0.00    +0.000 C 
ATOM     13  C   UNL     1       3.101   5.998  19.527  0.00  0.00    +0.000 C 
ATOM     14  C   UNL     1       2.685   4.842  20.451  0.00  0.00    +0.000 C 
ENDROOT
BRANCH  11  15
ATOM     15  C   UNL     1       6.772   5.436  18.138  0.00  0.00    +0.000 C 
ATOM     16  C   UNL     1       7.500   5.585  19.475  0.00  0.00    +0.000 C 
BRANCH  15  17
ATOM     17  C   UNL     1       7.131   6.614  17.204  0.00  0.00    +0.000 C 
BRANCH  17  18
ATOM     18  O   UNL     1       7.531   6.223  15.896  0.00  0.00    +0.000 OA
ATOM     19  H   UNL     1       6.911   5.535  15.574  0.00  0.00    +0.000 HD
ENDBRANCH  17  18
ENDBRANCH  15  17
ENDBRANCH  11  15
BRANCH   1  20
ATOM     20  C   UNL     1       1.374   7.383  18.232  0.00  0.00    +0.000 C 
BRANCH  20  21
ATOM     21  N   UNL     1       1.841   8.553  19.072  0.00  0.00    +0.000 NA
ATOM     22  C   UNL     1       1.572   8.398  20.523  0.00  0.00    +0.000 C 
BRANCH  21  23
ATOM     23  S   UNL     1       1.267  10.058  18.439  0.00  0.00    +0.000 S 
ATOM     24  O   UNL     1       0.146   9.742  17.574  0.00  0.00    +0.000 OA
ATOM     25  O   UNL     1       2.409  10.790  17.942  0.00  0.00    +0.000 OA
BRANCH  23  29
ATOM     26  C   UNL     1      -0.400  12.445  21.960  0.00  0.00    +0.000 A 
ATOM     27  C   UNL     1       0.766  12.861  21.306  0.00  0.00    +0.000 A 
ATOM     28  C   UNL     1       1.292  12.118  20.246  0.00  0.00    +0.000 A 
ATOM     29  C   UNL     1       0.660  10.935  19.857  0.00  0.00    +0.000 A 
ATOM     30  C   UNL     1      -0.484  10.490  20.528  0.00  0.00    +0.000 A 
ATOM     31  C   UNL     1      -1.013  11.247  21.582  0.00  0.00    +0.000 A 
BRANCH  26  33
ATOM     32  C   UNL     1      -0.525  14.643  22.830  0.00  0.00    +0.000 C 
ATOM     33  O   UNL     1      -0.825  13.257  22.976  0.00  0.00    +0.000 OA
ENDBRANCH  26  33
ENDBRANCH  23  29
ENDBRANCH  21  23
ENDBRANCH  20  21
ENDBRANCH   1  20
TORSDOF 8
ENDMDL
MODEL 7
REMARK VINA RESULT:      -6.3      4.193     10.170
REMARK  Name = 
REMARK  12 active torsions:
REMARK  status: ('A' for Active; 'I' for Inactive)
REMARK    1  A    between atoms: C_1  and  O_2
REMARK    2  A    between atoms: O_2  and  C_3
REMARK    3  A    between atoms: C_6  and  S_7
REMARK    4  A    between atoms: S_7  and  N_10
REMARK    5  A    between atoms: N_10  and  C_11
REMARK    6  A    between atoms: N_10  and  C_12
REMARK    7  A    between atoms: C_12  and  C_13
REMARK    8  A    between atoms: N_23  and  C_24
REMARK    9  A    between atoms: C_24  and  C_25
REMARK   10  A    between atoms: C_24  and  C_26
REMARK   11  A    between atoms: C_26  and  O_27
REMARK   12  A    between atoms: C_29  and  C_30
REMARK                            x       y       z     vdW  Elec       q    Type
REMARK                         _______ _______ _______ _____ _____    ______ ____
ROOT
ATOM      1  C   UNL     1      -1.141  12.024  21.555  0.00  0.00    +0.000 C 
ATOM      2  O   UNL     1      -1.762  11.680  22.800  0.00  0.00    +0.000 OA
ATOM      3  C   UNL     1      -2.592  12.596  23.366  0.00  0.00    +0.000 A 
ATOM      4  N   UNL     1      -3.744  12.025  23.798  0.00  0.00    +0.000 NA
ATOM      5  C   UNL     1      -4.770  12.841  24.130  0.00  0.00    +0.000 A 
ATOM      6  C   UNL     1      -4.699  14.221  24.080  0.00  0.00    +0.000 A 
ATOM      7  C   UNL     1      -3.492  14.796  23.703  0.00  0.00    +0.000 A 
ATOM      8  C   UNL     1      -2.421  13.972  23.333  0.00  0.00    +0.000 A 
ATOM      9  C   UNL     1      -1.215  14.641  22.843  0.00  0.00    +0.000 C 
ATOM     10  O   UNL     1      -0.323  14.932  23.634  0.00  0.00    +0.000 OA
ATOM     11  N   UNL     1      -1.259  15.119  21.532  0.00  0.00    +0.000 N 
ATOM     12  C   UNL     1      -1.490  14.260  20.353  0.00  0.00    +0.000 C 
ATOM     13  C   UNL     1      -2.010  12.812  20.514  0.00  0.00    +0.000 C 
ATOM     14  C   UNL     1      -3.545  12.788  20.608  0.00  0.00    +0.000 C 
ENDROOT
BRANCH  11  15
ATOM     15  C   UNL     1      -0.611  16.437  21.301  0.00  0.00    +0.000 C 
ATOM     16  C   UNL     1      -1.652  17.553  21.190  0.00  0.00    +0.000 C 
BRANCH  15  17
ATOM     17  C   UNL     1       0.354  16.490  20.095  0.00  0.00    +0.000 C 
BRANCH  17  18
ATOM     18  O   UNL     1       1.709  16.205  20.417  0.00  0.00    +0.000 OA
ATOM     19  H   UNL     1       2.163  17.049  20.625  0.00  0.00    +0.000 HD
ENDBRANCH  17  18
ENDBRANCH  15  17
ENDBRANCH  11  15
BRANCH   1  20
ATOM     20  C   UNL     1      -0.598  10.711  20.922  0.00  0.00    +0.000 C 
BRANCH  20  21
ATOM     21  N   UNL     1       0.849  10.780  20.477  0.00  0.00    +0.000 NA
ATOM     22  C   UNL     1       1.497  12.090  20.733  0.00  0.00    +0.000 C 
BRANCH  21  23
ATOM     23  S   UNL     1       1.035  10.245  18.842  0.00  0.00    +0.000 S 
ATOM     24  O   UNL     1       1.947  11.175  18.204  0.00  0.00    +0.000 OA
ATOM     25  O   UNL     1      -0.284  10.006  18.304  0.00  0.00    +0.000 OA
BRANCH  23  29
ATOM     26  C   UNL     1       2.919   6.093  19.138  0.00  0.00    +0.000 A 
ATOM     27  C   UNL     1       2.221   6.637  20.223  0.00  0.00    +0.000 A 
ATOM     28  C   UNL     1       1.666   7.917  20.143  0.00  0.00    +0.000 A 
ATOM     29  C   UNL     1       1.837   8.667  18.979  0.00  0.00    +0.000 A 
ATOM     30  C   UNL     1       2.565   8.148  17.903  0.00  0.00    +0.000 A 
ATOM     31  C   UNL     1       3.107   6.859  17.985  0.00  0.00    +0.000 A 
BRANCH  26  33
ATOM     32  C   UNL     1       3.984   4.206  18.184  0.00  0.00    +0.000 C 
ATOM     33  O   UNL     1       3.409   4.829  19.330  0.00  0.00    +0.000 OA
ENDBRANCH  26  33
ENDBRANCH  23  29
ENDBRANCH  21  23
ENDBRANCH  20  21
ENDBRANCH   1  20
TORSDOF 8
ENDMDL
MODEL 8
REMARK VINA RESULT:      -6.3      4.386     10.257
REMARK  Name = 
REMARK  12 active torsions:
REMARK  status: ('A' for Active; 'I' for Inactive)
REMARK    1  A    between atoms: C_1  and  O_2
REMARK    2  A    between atoms: O_2  and  C_3
REMARK    3  A    between atoms: C_6  and  S_7
REMARK    4  A    between atoms: S_7  and  N_10
REMARK    5  A    between atoms: N_10  and  C_11
REMARK    6  A    between atoms: N_10  and  C_12
REMARK    7  A    between atoms: C_12  and  C_13
REMARK    8  A    between atoms: N_23  and  C_24
REMARK    9  A    between atoms: C_24  and  C_25
REMARK   10  A    between atoms: C_24  and  C_26
REMARK   11  A    between atoms: C_26  and  O_27
REMARK   12  A    between atoms: C_29  and  C_30
REMARK                            x       y       z     vdW  Elec       q    Type
REMARK                         _______ _______ _______ _____ _____    ______ ____
ROOT
ATOM      1  C   UNL     1      -1.310  12.105  21.878  0.00  0.00    +0.000 C 
ATOM      2  O   UNL     1      -2.139  11.716  22.979  0.00  0.00    +0.000 OA
ATOM      3  C   UNL     1      -3.002  12.641  23.478  0.00  0.00    +0.000 A 
ATOM      4  N   UNL     1      -4.237  12.116  23.678  0.00  0.00    +0.000 NA
ATOM      5  C   UNL     1      -5.259  12.969  23.906  0.00  0.00    +0.000 A 
ATOM      6  C   UNL     1      -5.111  14.343  23.976  0.00  0.00    +0.000 A 
ATOM      7  C   UNL     1      -3.831  14.865  23.839  0.00  0.00    +0.000 A 
ATOM      8  C   UNL     1      -2.758  14.002  23.578  0.00  0.00    +0.000 A 
ATOM      9  C   UNL     1      -1.456  14.626  23.337  0.00  0.00    +0.000 C 
ATOM     10  O   UNL     1      -0.690  14.806  24.279  0.00  0.00    +0.000 OA
ATOM     11  N   UNL     1      -1.264  15.195  22.076  0.00  0.00    +0.000 N 
ATOM     12  C   UNL     1      -1.345  14.434  20.812  0.00  0.00    +0.000 C 
ATOM     13  C   UNL     1      -1.958  13.014  20.778  0.00  0.00    +0.000 C 
ATOM     14  C   UNL     1      -3.487  13.080  20.627  0.00  0.00    +0.000 C 
ENDROOT
BRANCH  11  15
ATOM     15  C   UNL     1      -0.521  16.482  22.053  0.00  0.00    +0.000 C 
ATOM     16  C   UNL     1      -1.201  17.496  21.131  0.00  0.00    +0.000 C 
BRANCH  15  17
ATOM     17  C   UNL     1       0.979  16.366  21.699  0.00  0.00    +0.000 C 
BRANCH  17  18
ATOM     18  O   UNL     1       1.709  15.473  22.531  0.00  0.00    +0.000 OA
ATOM     19  H   UNL     1       1.952  15.945  23.355  0.00  0.00    +0.000 HD
ENDBRANCH  17  18
ENDBRANCH  15  17
ENDBRANCH  11  15
BRANCH   1  20
ATOM     20  C   UNL     1      -0.739  10.806  21.239  0.00  0.00    +0.000 C 
BRANCH  20  21
ATOM     21  N   UNL     1       0.682  10.929  20.728  0.00  0.00    +0.000 NA
ATOM     22  C   UNL     1       1.321  12.232  21.033  0.00  0.00    +0.000 C 
BRANCH  21  23
ATOM     23  S   UNL     1       0.794  10.499  19.056  0.00  0.00    +0.000 S 
ATOM     24  O   UNL     1       1.709  11.444  18.446  0.00  0.00    +0.000 OA
ATOM     25  O   UNL     1      -0.550  10.333  18.553  0.00  0.00    +0.000 OA
BRANCH  23  29
ATOM     26  C   UNL     1       2.932   6.461  19.112  0.00  0.00    +0.000 A 
ATOM     27  C   UNL     1       2.938   7.254  17.958  0.00  0.00    +0.000 A 
ATOM     28  C   UNL     1       2.263   8.477  17.931  0.00  0.00    +0.000 A 
ATOM     29  C   UNL     1       1.554   8.895  19.058  0.00  0.00    +0.000 A 
ATOM     30  C   UNL     1       1.508   8.092  20.203  0.00  0.00    +0.000 A 
ATOM     31  C   UNL     1       2.199   6.873  20.228  0.00  0.00    +0.000 A 
BRANCH  26  33
ATOM     32  C   UNL     1       3.095   4.186  19.744  0.00  0.00    +0.000 C 
ATOM     33  O   UNL     1       3.635   5.290  19.023  0.00  0.00    +0.000 OA
ENDBRANCH  26  33
ENDBRANCH  23  29
ENDBRANCH  21  23
ENDBRANCH  20  21
ENDBRANCH   1  20
TORSDOF 8
ENDMDL
MODEL 9
REMARK VINA RESULT:      -6.3      6.536     11.014
REMARK  Name = 
REMARK  12 active torsions:
REMARK  status: ('A' for Active; 'I' for Inactive)
REMARK    1  A    between atoms: C_1  and  O_2
REMARK    2  A    between atoms: O_2  and  C_3
REMARK    3  A    between atoms: C_6  and  S_7
REMARK    4  A    between atoms: S_7  and  N_10
REMARK    5  A    between atoms: N_10  and  C_11
REMARK    6  A    between atoms: N_10  and  C_12
REMARK    7  A    between atoms: C_12  and  C_13
REMARK    8  A    between atoms: N_23  and  C_24
REMARK    9  A    between atoms: C_24  and  C_25
REMARK   10  A    between atoms: C_24  and  C_26
REMARK   11  A    between atoms: C_26  and  O_27
REMARK   12  A    between atoms: C_29  and  C_30
REMARK                            x       y       z     vdW  Elec       q    Type
REMARK                         _______ _______ _______ _____ _____    ______ ____
ROOT
ATOM      1  C   UNL     1      -2.757  12.911  22.661  0.00  0.00    +0.000 C 
ATOM      2  O   UNL     1      -3.546  12.505  23.786  0.00  0.00    +0.000 OA
ATOM      3  C   UNL     1      -4.765  13.086  23.944  0.00  0.00    +0.000 A 
ATOM      4  N   UNL     1      -5.722  12.167  24.230  0.00  0.00    +0.000 NA
ATOM      5  C   UNL     1      -7.015  12.551  24.145  0.00  0.00    +0.000 A 
ATOM      6  C   UNL     1      -7.413  13.833  23.812  0.00  0.00    +0.000 A 
ATOM      7  C   UNL     1      -6.425  14.784  23.590  0.00  0.00    +0.000 A 
ATOM      8  C   UNL     1      -5.078  14.404  23.650  0.00  0.00    +0.000 A 
ATOM      9  C   UNL     1      -4.090  15.426  23.298  0.00  0.00    +0.000 C 
ATOM     10  O   UNL     1      -3.617  16.135  24.182  0.00  0.00    +0.000 OA
ATOM     11  N   UNL     1      -3.924  15.687  21.937  0.00  0.00    +0.000 N 
ATOM     12  C   UNL     1      -3.500  14.670  20.953  0.00  0.00    +0.000 C 
ATOM     13  C   UNL     1      -3.512  13.166  21.310  0.00  0.00    +0.000 C 
ATOM     14  C   UNL     1      -4.903  12.556  21.072  0.00  0.00    +0.000 C 
ENDROOT
BRANCH  11  15
ATOM     15  C   UNL     1      -3.734  17.115  21.570  0.00  0.00    +0.000 C 
ATOM     16  C   UNL     1      -4.629  17.508  20.394  0.00  0.00    +0.000 C 
BRANCH  15  17
ATOM     17  C   UNL     1      -2.271  17.529  21.287  0.00  0.00    +0.000 C 
BRANCH  17  18
ATOM     18  O   UNL     1      -2.126  18.491  20.250  0.00  0.00    +0.000 OA
ATOM     19  H   UNL     1      -2.334  19.376  20.616  0.00  0.00    +0.000 HD
ENDBRANCH  17  18
ENDBRANCH  15  17
ENDBRANCH  11  15
BRANCH   1  20
ATOM     20  C   UNL     1      -1.638  11.848  22.463  0.00  0.00    +0.000 C 
BRANCH  20  21
ATOM     21  N   UNL     1      -0.233  12.413  22.433  0.00  0.00    +0.000 NA
ATOM     22  C   UNL     1      -0.180  13.893  22.356  0.00  0.00    +0.000 C 
BRANCH  21  23
ATOM     23  S   UNL     1       0.735  11.640  21.225  0.00  0.00    +0.000 S 
ATOM     24  O   UNL     1       1.019  10.305  21.713  0.00  0.00    +0.000 OA
ATOM     25  O   UNL     1       1.801  12.547  20.869  0.00  0.00    +0.000 OA
BRANCH  23  29
ATOM     26  C   UNL     1      -2.182  11.339  17.720  0.00  0.00    +0.000 A 
ATOM     27  C   UNL     1      -1.885  10.213  18.498  0.00  0.00    +0.000 A 
ATOM     28  C   UNL     1      -0.973  10.298  19.554  0.00  0.00    +0.000 A 
ATOM     29  C   UNL     1      -0.335  11.512  19.814  0.00  0.00    +0.000 A 
ATOM     30  C   UNL     1      -0.596  12.633  19.019  0.00  0.00    +0.000 A 
ATOM     31  C   UNL     1      -1.521  12.545  17.970  0.00  0.00    +0.000 A 
BRANCH  26  33
ATOM     32  C   UNL     1      -2.609  10.469  15.561  0.00  0.00    +0.000 C 
ATOM     33  O   UNL     1      -3.096  11.138  16.721  0.00  0.00    +0.000 OA
ENDBRANCH  26  33
ENDBRANCH  23  29
ENDBRANCH  21  23
ENDBRANCH  20  21
ENDBRANCH   1  20
TORSDOF 8
ENDMDL
