MODEL 1
REMARK VINA RESULT:      -8.5      0.000      0.000
REMARK  Name = 
REMARK  4 active torsions:
REMARK  status: ('A' for Active; 'I' for Inactive)
REMARK    1  A    between atoms: O_1  and  C_2
REMARK    2  A    between atoms: C_2  and  C_3
REMARK    3  A    between atoms: N_15  and  C_16
REMARK    4  A    between atoms: C_16  and  C_17
REMARK                            x       y       z     vdW  Elec       q    Type
REMARK                         _______ _______ _______ _____ _____    ______ ____
ROOT
ATOM      1  C   UNL     1       5.590   4.995  15.821  0.00  0.00    +0.000 A 
ATOM      2  C   UNL     1       5.759   6.148  16.586  0.00  0.00    +0.000 A 
ATOM      3  N   UNL     1       5.036   6.501  17.677  0.00  0.00    +0.000 NA
ATOM      4  C   UNL     1       4.078   5.605  17.994  0.00  0.00    +0.000 A 
ATOM      5  C   UNL     1       3.807   4.412  17.336  0.00  0.00    +0.000 A 
ATOM      6  C   UNL     1       4.589   4.098  16.210  0.00  0.00    +0.000 A 
ATOM      7  C   UNL     1       2.733   3.778  18.028  0.00  0.00    +0.000 A 
ATOM      8  C   UNL     1       2.037   2.567  17.841  0.00  0.00    +0.000 A 
ATOM      9  C   UNL     1       1.016   2.210  18.726  0.00  0.00    +0.000 A 
ATOM     10  C   UNL     1       0.683   3.041  19.791  0.00  0.00    +0.000 A 
ATOM     11  C   UNL     1       1.353   4.253  19.997  0.00  0.00    +0.000 A 
ATOM     12  C   UNL     1       2.375   4.606  19.101  0.00  0.00    +0.000 A 
ATOM     13  N   UNL     1       3.200   5.719  19.045  0.00  0.00    +0.000 N 
ENDROOT
BRANCH   1  14
ATOM     14  C   UNL     1       6.469   4.715  14.643  0.00  0.00    +0.000 C 
BRANCH  14  15
ATOM     15  O   UNL     1       7.712   5.381  14.811  0.00  0.00    +0.000 OA
ATOM     16  H   UNL     1       8.252   5.174  14.030  0.00  0.00    +0.000 HD
ENDBRANCH  14  15
ENDBRANCH   1  14
BRANCH  13  17
ATOM     17  C   UNL     1       3.143   6.867  19.942  0.00  0.00    +0.000 C 
BRANCH  17  18
ATOM     18  C   UNL     1       2.143   7.888  19.468  0.00  0.00    +0.000 A 
ATOM     19  C   UNL     1       2.065   8.246  18.112  0.00  0.00    +0.000 A 
ATOM     20  C   UNL     1       1.193   9.255  17.698  0.00  0.00    +0.000 A 
ATOM     21  C   UNL     1       0.386   9.891  18.634  0.00  0.00    +0.000 A 
ATOM     22  F   UNL     1      -0.428  10.878  18.237  0.00  0.00    +0.000 F 
ATOM     23  C   UNL     1       0.416   9.527  19.972  0.00  0.00    +0.000 A 
ATOM     24  C   UNL     1       1.290   8.525  20.376  0.00  0.00    +0.000 A 
ATOM     25  F   UNL     1       1.315   8.177  21.672  0.00  0.00    +0.000 F 
ENDBRANCH  17  18
ENDBRANCH  13  17
TORSDOF 4
ENDMDL
MODEL 2
REMARK VINA RESULT:      -8.1      3.448      5.725
REMARK  Name = 
REMARK  4 active torsions:
REMARK  status: ('A' for Active; 'I' for Inactive)
REMARK    1  A    between atoms: O_1  and  C_2
REMARK    2  A    between atoms: C_2  and  C_3
REMARK    3  A    between atoms: N_15  and  C_16
REMARK    4  A    between atoms: C_16  and  C_17
REMARK                            x       y       z     vdW  Elec       q    Type
REMARK                         _______ _______ _______ _____ _____    ______ ____
ROOT
ATOM      1  C   UNL     1       2.158   8.251  18.131  0.00  0.00    +0.000 A 
ATOM      2  C   UNL     1       3.449   8.101  17.631  0.00  0.00    +0.000 A 
ATOM      3  N   UNL     1       4.270   7.041  17.833  0.00  0.00    +0.000 NA
ATOM      4  C   UNL     1       3.719   6.080  18.604  0.00  0.00    +0.000 A 
ATOM      5  C   UNL     1       2.443   6.087  19.154  0.00  0.00    +0.000 A 
ATOM      6  C   UNL     1       1.637   7.213  18.911  0.00  0.00    +0.000 A 
ATOM      7  C   UNL     1       2.281   4.863  19.869  0.00  0.00    +0.000 A 
ATOM      8  C   UNL     1       1.223   4.307  20.614  0.00  0.00    +0.000 A 
ATOM      9  C   UNL     1       1.372   3.044  21.194  0.00  0.00    +0.000 A 
ATOM     10  C   UNL     1       2.556   2.331  21.038  0.00  0.00    +0.000 A 
ATOM     11  C   UNL     1       3.626   2.862  20.308  0.00  0.00    +0.000 A 
ATOM     12  C   UNL     1       3.469   4.134  19.732  0.00  0.00    +0.000 A 
ATOM     13  N   UNL     1       4.333   4.907  18.971  0.00  0.00    +0.000 N 
ENDROOT
BRANCH   1  14
ATOM     14  C   UNL     1       1.347   9.470  17.819  0.00  0.00    +0.000 C 
BRANCH  14  15
ATOM     15  O   UNL     1       2.211  10.526  17.428  0.00  0.00    +0.000 OA
ATOM     16  H   UNL     1       3.111  10.267  17.686  0.00  0.00    +0.000 HD
ENDBRANCH  14  15
ENDBRANCH   1  14
BRANCH  13  17
ATOM     17  C   UNL     1       5.705   4.558  18.623  0.00  0.00    +0.000 C 
BRANCH  17  18
ATOM     18  C   UNL     1       5.899   4.513  17.130  0.00  0.00    +0.000 A 
ATOM     19  C   UNL     1       5.037   3.764  16.312  0.00  0.00    +0.000 A 
ATOM     20  C   UNL     1       5.278   3.661  14.941  0.00  0.00    +0.000 A 
ATOM     21  C   UNL     1       6.367   4.321  14.384  0.00  0.00    +0.000 A 
ATOM     22  F   UNL     1       6.611   4.196  13.073  0.00  0.00    +0.000 F 
ATOM     23  C   UNL     1       7.209   5.099  15.165  0.00  0.00    +0.000 A 
ATOM     24  C   UNL     1       6.965   5.193  16.530  0.00  0.00    +0.000 A 
ATOM     25  F   UNL     1       7.783   5.947  17.279  0.00  0.00    +0.000 F 
ENDBRANCH  17  18
ENDBRANCH  13  17
TORSDOF 4
ENDMDL
MODEL 3
REMARK VINA RESULT:      -8.1      3.549      5.929
REMARK  Name = 
REMARK  4 active torsions:
REMARK  status: ('A' for Active; 'I' for Inactive)
REMARK    1  A    between atoms: O_1  and  C_2
REMARK    2  A    between atoms: C_2  and  C_3
REMARK    3  A    between atoms: N_15  and  C_16
REMARK    4  A    between atoms: C_16  and  C_17
REMARK                            x       y       z     vdW  Elec       q    Type
REMARK                         _______ _______ _______ _____ _____    ______ ____
ROOT
ATOM      1  C   UNL     1       2.194   8.135  17.881  0.00  0.00    +0.000 A 
ATOM      2  C   UNL     1       3.551   8.154  17.563  0.00  0.00    +0.000 A 
ATOM      3  N   UNL     1       4.382   7.084  17.526  0.00  0.00    +0.000 NA
ATOM      4  C   UNL     1       3.770   5.923  17.841  0.00  0.00    +0.000 A 
ATOM      5  C   UNL     1       2.429   5.752  18.160  0.00  0.00    +0.000 A 
ATOM      6  C   UNL     1       1.614   6.898  18.184  0.00  0.00    +0.000 A 
ATOM      7  C   UNL     1       2.222   4.360  18.396  0.00  0.00    +0.000 A 
ATOM      8  C   UNL     1       1.094   3.592  18.744  0.00  0.00    +0.000 A 
ATOM      9  C   UNL     1       1.215   2.207  18.888  0.00  0.00    +0.000 A 
ATOM     10  C   UNL     1       2.442   1.582  18.688  0.00  0.00    +0.000 A 
ATOM     11  C   UNL     1       3.581   2.321  18.348  0.00  0.00    +0.000 A 
ATOM     12  C   UNL     1       3.450   3.713  18.209  0.00  0.00    +0.000 A 
ATOM     13  N   UNL     1       4.379   4.692  17.889  0.00  0.00    +0.000 N 
ENDROOT
BRANCH   1  14
ATOM     14  C   UNL     1       1.382   9.392  17.871  0.00  0.00    +0.000 C 
BRANCH  14  15
ATOM     15  O   UNL     1       2.206  10.485  17.497  0.00  0.00    +0.000 OA
ATOM     16  H   UNL     1       2.915  10.128  16.938  0.00  0.00    +0.000 HD
ENDBRANCH  14  15
ENDBRANCH   1  14
BRANCH  13  17
ATOM     17  C   UNL     1       5.802   4.473  17.658  0.00  0.00    +0.000 C 
BRANCH  17  18
ATOM     18  C   UNL     1       6.134   4.511  16.190  0.00  0.00    +0.000 A 
ATOM     19  C   UNL     1       5.536   3.612  15.292  0.00  0.00    +0.000 A 
ATOM     20  C   UNL     1       5.916   3.600  13.949  0.00  0.00    +0.000 A 
ATOM     21  C   UNL     1       6.876   4.498  13.498  0.00  0.00    +0.000 A 
ATOM     22  F   UNL     1       7.258   4.464  12.216  0.00  0.00    +0.000 F 
ATOM     23  C   UNL     1       7.451   5.422  14.358  0.00  0.00    +0.000 A 
ATOM     24  C   UNL     1       7.071   5.424  15.695  0.00  0.00    +0.000 A 
ATOM     25  F   UNL     1       7.631   6.320  16.521  0.00  0.00    +0.000 F 
ENDBRANCH  17  18
ENDBRANCH  13  17
TORSDOF 4
ENDMDL
MODEL 4
REMARK VINA RESULT:      -8.0      3.466      5.815
REMARK  Name = 
REMARK  4 active torsions:
REMARK  status: ('A' for Active; 'I' for Inactive)
REMARK    1  A    between atoms: O_1  and  C_2
REMARK    2  A    between atoms: C_2  and  C_3
REMARK    3  A    between atoms: N_15  and  C_16
REMARK    4  A    between atoms: C_16  and  C_17
REMARK                            x       y       z     vdW  Elec       q    Type
REMARK                         _______ _______ _______ _____ _____    ______ ____
ROOT
ATOM      1  C   UNL     1       1.260   8.374  20.456  0.00  0.00    +0.000 A 
ATOM      2  C   UNL     1       1.991   8.556  19.283  0.00  0.00    +0.000 A 
ATOM      3  N   UNL     1       2.631   7.591  18.577  0.00  0.00    +0.000 NA
ATOM      4  C   UNL     1       2.506   6.362  19.122  0.00  0.00    +0.000 A 
ATOM      5  C   UNL     1       1.799   6.031  20.271  0.00  0.00    +0.000 A 
ATOM      6  C   UNL     1       1.156   7.074  20.962  0.00  0.00    +0.000 A 
ATOM      7  C   UNL     1       1.922   4.622  20.455  0.00  0.00    +0.000 A 
ATOM      8  C   UNL     1       1.428   3.722  21.421  0.00  0.00    +0.000 A 
ATOM      9  C   UNL     1       1.718   2.359  21.311  0.00  0.00    +0.000 A 
ATOM     10  C   UNL     1       2.488   1.885  20.254  0.00  0.00    +0.000 A 
ATOM     11  C   UNL     1       2.997   2.757  19.285  0.00  0.00    +0.000 A 
ATOM     12  C   UNL     1       2.704   4.125  19.405  0.00  0.00    +0.000 A 
ATOM     13  N   UNL     1       3.061   5.210  18.618  0.00  0.00    +0.000 N 
ENDROOT
BRANCH   1  14
ATOM     14  C   UNL     1       0.587   9.527  21.131  0.00  0.00    +0.000 C 
BRANCH  14  15
ATOM     15  O   UNL     1       1.225   9.788  22.372  0.00  0.00    +0.000 OA
ATOM     16  H   UNL     1       2.183   9.736  22.215  0.00  0.00    +0.000 HD
ENDBRANCH  14  15
ENDBRANCH   1  14
BRANCH  13  17
ATOM     17  C   UNL     1       3.918   5.162  17.440  0.00  0.00    +0.000 C 
BRANCH  17  18
ATOM     18  C   UNL     1       5.281   5.733  17.727  0.00  0.00    +0.000 A 
ATOM     19  C   UNL     1       6.062   5.239  18.785  0.00  0.00    +0.000 A 
ATOM     20  C   UNL     1       7.287   5.833  19.095  0.00  0.00    +0.000 A 
ATOM     21  C   UNL     1       7.740   6.907  18.338  0.00  0.00    +0.000 A 
ATOM     22  F   UNL     1       8.901   7.493  18.657  0.00  0.00    +0.000 F 
ATOM     23  C   UNL     1       7.006   7.387  17.263  0.00  0.00    +0.000 A 
ATOM     24  C   UNL     1       5.786   6.792  16.964  0.00  0.00    +0.000 A 
ATOM     25  F   UNL     1       5.080   7.261  15.924  0.00  0.00    +0.000 F 
ENDBRANCH  17  18
ENDBRANCH  13  17
TORSDOF 4
ENDMDL
MODEL 5
REMARK VINA RESULT:      -7.8      3.364      5.639
REMARK  Name = 
REMARK  4 active torsions:
REMARK  status: ('A' for Active; 'I' for Inactive)
REMARK    1  A    between atoms: O_1  and  C_2
REMARK    2  A    between atoms: C_2  and  C_3
REMARK    3  A    between atoms: N_15  and  C_16
REMARK    4  A    between atoms: C_16  and  C_17
REMARK                            x       y       z     vdW  Elec       q    Type
REMARK                         _______ _______ _______ _____ _____    ______ ____
ROOT
ATOM      1  C   UNL     1       2.164   8.215  18.091  0.00  0.00    +0.000 A 
ATOM      2  C   UNL     1       3.473   8.076  17.632  0.00  0.00    +0.000 A 
ATOM      3  N   UNL     1       4.303   7.031  17.875  0.00  0.00    +0.000 NA
ATOM      4  C   UNL     1       3.741   6.074  18.643  0.00  0.00    +0.000 A 
ATOM      5  C   UNL     1       2.450   6.070  19.154  0.00  0.00    +0.000 A 
ATOM      6  C   UNL     1       1.635   7.180  18.870  0.00  0.00    +0.000 A 
ATOM      7  C   UNL     1       2.284   4.855  19.883  0.00  0.00    +0.000 A 
ATOM      8  C   UNL     1       1.212   4.295  20.605  0.00  0.00    +0.000 A 
ATOM      9  C   UNL     1       1.361   3.043  21.208  0.00  0.00    +0.000 A 
ATOM     10  C   UNL     1       2.559   2.346  21.099  0.00  0.00    +0.000 A 
ATOM     11  C   UNL     1       3.643   2.881  20.393  0.00  0.00    +0.000 A 
ATOM     12  C   UNL     1       3.486   4.142  19.794  0.00  0.00    +0.000 A 
ATOM     13  N   UNL     1       4.362   4.916  19.047  0.00  0.00    +0.000 N 
ENDROOT
BRANCH   1  14
ATOM     14  C   UNL     1       1.346   9.417  17.735  0.00  0.00    +0.000 C 
BRANCH  14  15
ATOM     15  O   UNL     1       2.207  10.489  17.386  0.00  0.00    +0.000 OA
ATOM     16  H   UNL     1       2.382  10.415  16.434  0.00  0.00    +0.000 HD
ENDBRANCH  14  15
ENDBRANCH   1  14
BRANCH  13  17
ATOM     17  C   UNL     1       5.749   4.582  18.746  0.00  0.00    +0.000 C 
BRANCH  17  18
ATOM     18  C   UNL     1       5.975   4.459  17.263  0.00  0.00    +0.000 A 
ATOM     19  C   UNL     1       7.043   5.124  16.637  0.00  0.00    +0.000 A 
ATOM     20  C   UNL     1       7.192   5.072  15.251  0.00  0.00    +0.000 A 
ATOM     21  C   UNL     1       6.287   4.340  14.490  0.00  0.00    +0.000 A 
ATOM     22  F   UNL     1       6.417   4.316  13.158  0.00  0.00    +0.000 F 
ATOM     23  C   UNL     1       5.249   3.641  15.088  0.00  0.00    +0.000 A 
ATOM     24  C   UNL     1       5.105   3.703  16.469  0.00  0.00    +0.000 A 
ATOM     25  F   UNL     1       4.099   3.026  17.042  0.00  0.00    +0.000 F 
ENDBRANCH  17  18
ENDBRANCH  13  17
TORSDOF 4
ENDMDL
MODEL 6
REMARK VINA RESULT:      -7.6      3.327      6.049
REMARK  Name = 
REMARK  4 active torsions:
REMARK  status: ('A' for Active; 'I' for Inactive)
REMARK    1  A    between atoms: O_1  and  C_2
REMARK    2  A    between atoms: C_2  and  C_3
REMARK    3  A    between atoms: N_15  and  C_16
REMARK    4  A    between atoms: C_16  and  C_17
REMARK                            x       y       z     vdW  Elec       q    Type
REMARK                         _______ _______ _______ _____ _____    ______ ____
ROOT
ATOM      1  C   UNL     1       2.632   7.290  18.683  0.00  0.00    +0.000 A 
ATOM      2  C   UNL     1       2.309   8.183  17.663  0.00  0.00    +0.000 A 
ATOM      3  N   UNL     1       1.520   9.280  17.776  0.00  0.00    +0.000 NA
ATOM      4  C   UNL     1       1.035   9.460  19.023  0.00  0.00    +0.000 A 
ATOM      5  C   UNL     1       1.286   8.666  20.134  0.00  0.00    +0.000 A 
ATOM      6  C   UNL     1       2.111   7.541  19.957  0.00  0.00    +0.000 A 
ATOM      7  C   UNL     1       0.590   9.245  21.236  0.00  0.00    +0.000 A 
ATOM      8  C   UNL     1       0.470   8.901  22.598  0.00  0.00    +0.000 A 
ATOM      9  C   UNL     1      -0.292   9.703  23.451  0.00  0.00    +0.000 A 
ATOM     10  C   UNL     1      -0.930  10.841  22.967  0.00  0.00    +0.000 A 
ATOM     11  C   UNL     1      -0.833  11.203  21.619  0.00  0.00    +0.000 A 
ATOM     12  C   UNL     1      -0.069  10.388  20.767  0.00  0.00    +0.000 A 
ATOM     13  N   UNL     1       0.205  10.485  19.411  0.00  0.00    +0.000 N 
ENDROOT
BRANCH   1  14
ATOM     14  C   UNL     1       3.531   6.121  18.428  0.00  0.00    +0.000 C 
BRANCH  14  15
ATOM     15  O   UNL     1       4.133   5.712  19.646  0.00  0.00    +0.000 OA
ATOM     16  H   UNL     1       5.093   5.695  19.497  0.00  0.00    +0.000 HD
ENDBRANCH  14  15
ENDBRANCH   1  14
BRANCH  13  17
ATOM     17  C   UNL     1      -0.319  11.501  18.506  0.00  0.00    +0.000 C 
BRANCH  17  18
ATOM     18  C   UNL     1      -1.794  11.316  18.267  0.00  0.00    +0.000 A 
ATOM     19  C   UNL     1      -2.735  12.172  18.864  0.00  0.00    +0.000 A 
ATOM     20  C   UNL     1      -4.102  11.939  18.704  0.00  0.00    +0.000 A 
ATOM     21  C   UNL     1      -4.530  10.864  17.934  0.00  0.00    +0.000 A 
ATOM     22  F   UNL     1      -5.841  10.627  17.807  0.00  0.00    +0.000 F 
ATOM     23  C   UNL     1      -3.620  10.030  17.301  0.00  0.00    +0.000 A 
ATOM     24  C   UNL     1      -2.261  10.266  17.469  0.00  0.00    +0.000 A 
ATOM     25  F   UNL     1      -1.386   9.455  16.855  0.00  0.00    +0.000 F 
ENDBRANCH  17  18
ENDBRANCH  13  17
TORSDOF 4
ENDMDL
MODEL 7
REMARK VINA RESULT:      -7.5      3.825      6.418
REMARK  Name = 
REMARK  4 active torsions:
REMARK  status: ('A' for Active; 'I' for Inactive)
REMARK    1  A    between atoms: O_1  and  C_2
REMARK    2  A    between atoms: C_2  and  C_3
REMARK    3  A    between atoms: N_15  and  C_16
REMARK    4  A    between atoms: C_16  and  C_17
REMARK                            x       y       z     vdW  Elec       q    Type
REMARK                         _______ _______ _______ _____ _____    ______ ____
ROOT
ATOM      1  C   UNL     1       0.769   8.692  21.049  0.00  0.00    +0.000 A 
ATOM      2  C   UNL     1       1.461   9.149  19.930  0.00  0.00    +0.000 A 
ATOM      3  N   UNL     1       2.172   8.390  19.060  0.00  0.00    +0.000 NA
ATOM      4  C   UNL     1       2.167   7.077  19.372  0.00  0.00    +0.000 A 
ATOM      5  C   UNL     1       1.511   6.481  20.441  0.00  0.00    +0.000 A 
ATOM      6  C   UNL     1       0.790   7.318  21.311  0.00  0.00    +0.000 A 
ATOM      7  C   UNL     1       1.763   5.079  20.367  0.00  0.00    +0.000 A 
ATOM      8  C   UNL     1       1.367   3.978  21.152  0.00  0.00    +0.000 A 
ATOM      9  C   UNL     1       1.776   2.689  20.797  0.00  0.00    +0.000 A 
ATOM     10  C   UNL     1       2.567   2.486  19.671  0.00  0.00    +0.000 A 
ATOM     11  C   UNL     1       2.980   3.561  18.876  0.00  0.00    +0.000 A 
ATOM     12  C   UNL     1       2.568   4.853  19.243  0.00  0.00    +0.000 A 
ATOM     13  N   UNL     1       2.814   6.091  18.667  0.00  0.00    +0.000 N 
ENDROOT
BRANCH   1  14
ATOM     14  C   UNL     1       0.006   9.638  21.923  0.00  0.00    +0.000 C 
BRANCH  14  15
ATOM     15  O   UNL     1      -0.719   8.903  22.897  0.00  0.00    +0.000 OA
ATOM     16  H   UNL     1      -0.451   9.243  23.767  0.00  0.00    +0.000 HD
ENDBRANCH  14  15
ENDBRANCH   1  14
BRANCH  13  17
ATOM     17  C   UNL     1       3.652   6.335  17.499  0.00  0.00    +0.000 C 
BRANCH  17  18
ATOM     18  C   UNL     1       5.005   5.691  17.649  0.00  0.00    +0.000 A 
ATOM     19  C   UNL     1       5.778   5.894  18.804  0.00  0.00    +0.000 A 
ATOM     20  C   UNL     1       7.065   5.361  18.894  0.00  0.00    +0.000 A 
ATOM     21  C   UNL     1       7.573   4.610  17.840  0.00  0.00    +0.000 A 
ATOM     22  F   UNL     1       8.818   4.126  17.919  0.00  0.00    +0.000 F 
ATOM     23  C   UNL     1       6.813   4.362  16.706  0.00  0.00    +0.000 A 
ATOM     24  C   UNL     1       5.534   4.900  16.623  0.00  0.00    +0.000 A 
ATOM     25  F   UNL     1       4.805   4.657  15.523  0.00  0.00    +0.000 F 
ENDBRANCH  17  18
ENDBRANCH  13  17
TORSDOF 4
ENDMDL
MODEL 8
REMARK VINA RESULT:      -7.5      3.494      5.713
REMARK  Name = 
REMARK  4 active torsions:
REMARK  status: ('A' for Active; 'I' for Inactive)
REMARK    1  A    between atoms: O_1  and  C_2
REMARK    2  A    between atoms: C_2  and  C_3
REMARK    3  A    between atoms: N_15  and  C_16
REMARK    4  A    between atoms: C_16  and  C_17
REMARK                            x       y       z     vdW  Elec       q    Type
REMARK                         _______ _______ _______ _____ _____    ______ ____
ROOT
ATOM      1  C   UNL     1       1.230   8.344  20.568  0.00  0.00    +0.000 A 
ATOM      2  C   UNL     1       2.018   8.608  19.450  0.00  0.00    +0.000 A 
ATOM      3  N   UNL     1       2.662   7.691  18.686  0.00  0.00    +0.000 NA
ATOM      4  C   UNL     1       2.480   6.423  19.111  0.00  0.00    +0.000 A 
ATOM      5  C   UNL     1       1.712   6.012  20.193  0.00  0.00    +0.000 A 
ATOM      6  C   UNL     1       1.067   7.007  20.949  0.00  0.00    +0.000 A 
ATOM      7  C   UNL     1       1.788   4.589  20.252  0.00  0.00    +0.000 A 
ATOM      8  C   UNL     1       1.226   3.621  21.109  0.00  0.00    +0.000 A 
ATOM      9  C   UNL     1       1.484   2.265  20.888  0.00  0.00    +0.000 A 
ATOM     10  C   UNL     1       2.287   1.865  19.826  0.00  0.00    +0.000 A 
ATOM     11  C   UNL     1       2.863   2.804  18.962  0.00  0.00    +0.000 A 
ATOM     12  C   UNL     1       2.603   4.165  19.195  0.00  0.00    +0.000 A 
ATOM     13  N   UNL     1       3.025   5.304  18.527  0.00  0.00    +0.000 N 
ENDROOT
BRANCH   1  14
ATOM     14  C   UNL     1       0.558   9.452  21.317  0.00  0.00    +0.000 C 
BRANCH  14  15
ATOM     15  O   UNL     1       1.275   9.718  22.513  0.00  0.00    +0.000 OA
ATOM     16  H   UNL     1       1.654  10.608  22.425  0.00  0.00    +0.000 HD
ENDBRANCH  14  15
ENDBRANCH   1  14
BRANCH  13  17
ATOM     17  C   UNL     1       3.933   5.337  17.387  0.00  0.00    +0.000 C 
BRANCH  17  18
ATOM     18  C   UNL     1       5.252   5.964  17.752  0.00  0.00    +0.000 A 
ATOM     19  C   UNL     1       5.715   7.110  17.085  0.00  0.00    +0.000 A 
ATOM     20  C   UNL     1       6.977   7.632  17.373  0.00  0.00    +0.000 A 
ATOM     21  C   UNL     1       7.768   7.023  18.340  0.00  0.00    +0.000 A 
ATOM     22  F   UNL     1       8.989   7.509  18.593  0.00  0.00    +0.000 F 
ATOM     23  C   UNL     1       7.316   5.914  19.041  0.00  0.00    +0.000 A 
ATOM     24  C   UNL     1       6.060   5.398  18.744  0.00  0.00    +0.000 A 
ATOM     25  F   UNL     1       5.628   4.326  19.425  0.00  0.00    +0.000 F 
ENDBRANCH  17  18
ENDBRANCH  13  17
TORSDOF 4
ENDMDL
MODEL 9
REMARK VINA RESULT:      -7.5      3.436      5.677
REMARK  Name = 
REMARK  4 active torsions:
REMARK  status: ('A' for Active; 'I' for Inactive)
REMARK    1  A    between atoms: O_1  and  C_2
REMARK    2  A    between atoms: C_2  and  C_3
REMARK    3  A    between atoms: N_15  and  C_16
REMARK    4  A    between atoms: C_16  and  C_17
REMARK                            x       y       z     vdW  Elec       q    Type
REMARK                         _______ _______ _______ _____ _____    ______ ____
ROOT
ATOM      1  C   UNL     1       1.484   8.551  19.192  0.00  0.00    +0.000 A 
ATOM      2  C   UNL     1       2.397   8.506  18.141  0.00  0.00    +0.000 A 
ATOM      3  N   UNL     1       3.196   7.460  17.815  0.00  0.00    +0.000 NA
ATOM      4  C   UNL     1       3.038   6.396  18.630  0.00  0.00    +0.000 A 
ATOM      5  C   UNL     1       2.159   6.293  19.700  0.00  0.00    +0.000 A 
ATOM      6  C   UNL     1       1.356   7.410  19.992  0.00  0.00    +0.000 A 
ATOM      7  C   UNL     1       2.316   4.989  20.257  0.00  0.00    +0.000 A 
ATOM      8  C   UNL     1       1.706   4.312  21.332  0.00  0.00    +0.000 A 
ATOM      9  C   UNL     1       2.076   2.996  21.622  0.00  0.00    +0.000 A 
ATOM     10  C   UNL     1       3.040   2.349  20.856  0.00  0.00    +0.000 A 
ATOM     11  C   UNL     1       3.667   2.999  19.786  0.00  0.00    +0.000 A 
ATOM     12  C   UNL     1       3.292   4.323  19.504  0.00  0.00    +0.000 A 
ATOM     13  N   UNL     1       3.727   5.211  18.531  0.00  0.00    +0.000 N 
ENDROOT
BRANCH   1  14
ATOM     14  C   UNL     1       0.648   9.768  19.435  0.00  0.00    +0.000 C 
BRANCH  14  15
ATOM     15  O   UNL     1       0.654  10.587  18.276  0.00  0.00    +0.000 OA
ATOM     16  H   UNL     1       0.444  11.490  18.565  0.00  0.00    +0.000 HD
ENDBRANCH  14  15
ENDBRANCH   1  14
BRANCH  13  17
ATOM     17  C   UNL     1       4.777   4.954  17.553  0.00  0.00    +0.000 C 
BRANCH  17  18
ATOM     18  C   UNL     1       6.007   5.775  17.838  0.00  0.00    +0.000 A 
ATOM     19  C   UNL     1       6.835   5.478  18.933  0.00  0.00    +0.000 A 
ATOM     20  C   UNL     1       7.923   6.298  19.237  0.00  0.00    +0.000 A 
ATOM     21  C   UNL     1       8.197   7.401  18.436  0.00  0.00    +0.000 A 
ATOM     22  F   UNL     1       9.224   8.201  18.748  0.00  0.00    +0.000 F 
ATOM     23  C   UNL     1       7.418   7.691  17.326  0.00  0.00    +0.000 A 
ATOM     24  C   UNL     1       6.333   6.872  17.033  0.00  0.00    +0.000 A 
ATOM     25  F   UNL     1       5.583   7.158  15.959  0.00  0.00    +0.000 F 
ENDBRANCH  17  18
ENDBRANCH  13  17
TORSDOF 4
ENDMDL
