MODEL 1
REMARK VINA RESULT:      -7.0      0.000      0.000
REMARK  Name = 
REMARK  10 active torsions:
REMARK  status: ('A' for Active; 'I' for Inactive)
REMARK    1  A    between atoms: C_2  and  C_3
REMARK    2  A    between atoms: C_3  and  O_4
REMARK    3  A    between atoms: O_4  and  C_5
REMARK    4  A    between atoms: C_5  and  C_6
REMARK    5  A    between atoms: C_16  and  O_17
REMARK    6  A    between atoms: O_17  and  C_18
REMARK    7  A    between atoms: C_18  and  C_19
REMARK    8  A    between atoms: C_25  and  O_26
REMARK    9  A    between atoms: O_26  and  N_27
REMARK   10  A    between atoms: C_31  and  C_32
REMARK                            x       y       z     vdW  Elec       q    Type
REMARK                         _______ _______ _______ _____ _____    ______ ____
ROOT
ATOM      1  C   UNL     1      -4.446  13.871  23.292  0.00  0.00    +0.000 C 
ATOM      2  C   UNL     1      -3.518  13.303  24.355  0.00  0.00    +0.000 C 
ATOM      3  C   UNL     1      -2.952  12.032  23.823  0.00  0.00    +0.000 C 
ATOM      4  C   UNL     1      -2.174  12.509  22.608  0.00  0.00    +0.000 C 
ATOM      5  C   UNL     1      -1.330  11.379  21.956  0.00  0.00    +0.000 C 
ATOM      6  C   UNL     1      -0.421  10.775  23.045  0.00  0.00    +0.000 C 
ATOM      7  C   UNL     1      -0.211   9.339  22.707  0.00  0.00    +0.000 C 
ATOM      8  C   UNL     1       0.396   9.216  21.351  0.00  0.00    +0.000 A 
ATOM      9  C   UNL     1       0.974   7.934  21.164  0.00  0.00    +0.000 A 
ATOM     10  C   UNL     1       1.677   7.624  20.027  0.00  0.00    +0.000 A 
ATOM     11  C   UNL     1       1.827   8.615  19.075  0.00  0.00    +0.000 A 
ATOM     12  C   UNL     1       1.196   9.935  19.246  0.00  0.00    +0.000 A 
ATOM     13  C   UNL     1       0.403  10.268  20.377  0.00  0.00    +0.000 A 
ATOM     14  C   UNL     1      -0.323  11.701  20.794  0.00  0.00    +0.000 C 
ATOM     15  C   UNL     1      -1.100  12.738  19.874  0.00  0.00    +0.000 C 
ATOM     16  C   UNL     1      -2.040  13.985  20.775  0.00  0.00    +0.000 C 
ATOM     17  C   UNL     1      -3.239  13.421  21.841  0.00  0.00    +0.000 C 
ATOM     18  C   UNL     1      -4.142  12.737  20.754  0.00  0.00    +0.000 C 
ENDROOT
BRANCH   1  20
ATOM     19  C   UNL     1      -5.119  16.323  24.522  0.00  0.00    +0.000 C 
ATOM     20  C   UNL     1      -4.808  15.191  23.954  0.00  0.00    +0.000 C 
ENDBRANCH   1  20
BRANCH   1  21
ATOM     21  O   UNL     1      -5.635  13.344  22.707  0.00  0.00    +0.000 OA
BRANCH  21  22
ATOM     22  C   UNL     1      -6.747  12.888  23.251  0.00  0.00    +0.000 C 
ATOM     23  C   UNL     1      -7.914  13.696  22.671  0.00  0.00    +0.000 C 
ATOM     24  O   UNL     1      -6.850  11.994  24.039  0.00  0.00    +0.000 OA
ENDBRANCH  21  22
ENDBRANCH   1  21
BRANCH  10  25
ATOM     25  O   UNL     1       2.148   6.271  20.073  0.00  0.00    +0.000 OA
BRANCH  25  26
ATOM     26  C   UNL     1       2.963   5.534  19.213  0.00  0.00    +0.000 C 
ATOM     27  C   UNL     1       2.155   4.853  18.151  0.00  0.00    +0.000 C 
ATOM     28  O   UNL     1       4.180   5.452  19.304  0.00  0.00    +0.000 OA
ENDBRANCH  25  26
ENDBRANCH  10  25
BRANCH  15  29
ATOM     29  O   UNL     1      -1.916  11.911  19.035  0.00  0.00    +0.000 OA
BRANCH  29  30
ATOM     30  N   UNL     1      -1.605  11.915  17.653  0.00  0.00    +0.000 N 
ATOM     31  O   UNL     1      -2.114  11.042  16.951  0.00  0.00    +0.000 OA
ATOM     32  O   UNL     1      -0.800  12.804  17.355  0.00  0.00    +0.000 OA
ENDBRANCH  29  30
ENDBRANCH  15  29
TORSDOF 7
ENDMDL
MODEL 2
REMARK VINA RESULT:      -6.7      1.158      1.357
REMARK  Name = 
REMARK  10 active torsions:
REMARK  status: ('A' for Active; 'I' for Inactive)
REMARK    1  A    between atoms: C_2  and  C_3
REMARK    2  A    between atoms: C_3  and  O_4
REMARK    3  A    between atoms: O_4  and  C_5
REMARK    4  A    between atoms: C_5  and  C_6
REMARK    5  A    between atoms: C_16  and  O_17
REMARK    6  A    between atoms: O_17  and  C_18
REMARK    7  A    between atoms: C_18  and  C_19
REMARK    8  A    between atoms: C_25  and  O_26
REMARK    9  A    between atoms: O_26  and  N_27
REMARK   10  A    between atoms: C_31  and  C_32
REMARK                            x       y       z     vdW  Elec       q    Type
REMARK                         _______ _______ _______ _____ _____    ______ ____
ROOT
ATOM      1  C   UNL     1      -3.791  13.554  22.731  0.00  0.00    +0.000 C 
ATOM      2  C   UNL     1      -2.534  13.345  23.561  0.00  0.00    +0.000 C 
ATOM      3  C   UNL     1      -1.927  12.052  23.139  0.00  0.00    +0.000 C 
ATOM      4  C   UNL     1      -1.589  12.315  21.681  0.00  0.00    +0.000 C 
ATOM      5  C   UNL     1      -0.773  11.160  21.038  0.00  0.00    +0.000 C 
ATOM      6  C   UNL     1       0.479  10.920  21.906  0.00  0.00    +0.000 C 
ATOM      7  C   UNL     1       0.825   9.475  21.801  0.00  0.00    +0.000 C 
ATOM      8  C   UNL     1       1.063   9.108  20.377  0.00  0.00    +0.000 A 
ATOM      9  C   UNL     1       1.774   7.884  20.276  0.00  0.00    +0.000 A 
ATOM     10  C   UNL     1       2.192   7.396  19.063  0.00  0.00    +0.000 A 
ATOM     11  C   UNL     1       1.919   8.151  17.939  0.00  0.00    +0.000 A 
ATOM     12  C   UNL     1       1.146   9.402  18.032  0.00  0.00    +0.000 A 
ATOM     13  C   UNL     1       0.638   9.902  19.262  0.00  0.00    +0.000 A 
ATOM     14  C   UNL     1      -0.178  11.309  19.592  0.00  0.00    +0.000 C 
ATOM     15  C   UNL     1      -1.331  12.020  18.762  0.00  0.00    +0.000 C 
ATOM     16  C   UNL     1      -2.191  13.336  19.643  0.00  0.00    +0.000 C 
ATOM     17  C   UNL     1      -2.955  12.911  21.102  0.00  0.00    +0.000 C 
ATOM     18  C   UNL     1      -3.988  11.905  20.481  0.00  0.00    +0.000 C 
ENDROOT
BRANCH   1  20
ATOM     19  C   UNL     1      -4.510  16.139  23.612  0.00  0.00    +0.000 C 
ATOM     20  C   UNL     1      -4.178  14.946  23.205  0.00  0.00    +0.000 C 
ENDBRANCH   1  20
BRANCH   1  21
ATOM     21  O   UNL     1      -4.989  12.786  22.634  0.00  0.00    +0.000 OA
BRANCH  21  22
ATOM     22  C   UNL     1      -5.932  12.526  23.518  0.00  0.00    +0.000 C 
ATOM     23  C   UNL     1      -7.280  12.881  22.877  0.00  0.00    +0.000 C 
ATOM     24  O   UNL     1      -5.788  12.075  24.616  0.00  0.00    +0.000 OA
ENDBRANCH  21  22
ENDBRANCH   1  21
BRANCH  10  25
ATOM     25  O   UNL     1       2.875   6.146  19.226  0.00  0.00    +0.000 OA
BRANCH  25  26
ATOM     26  C   UNL     1       2.482   4.828  18.994  0.00  0.00    +0.000 C 
ATOM     27  C   UNL     1       2.901   4.369  17.631  0.00  0.00    +0.000 C 
ATOM     28  O   UNL     1       1.878   4.127  19.795  0.00  0.00    +0.000 OA
ENDBRANCH  25  26
ENDBRANCH  10  25
BRANCH  15  29
ATOM     29  O   UNL     1      -2.193  10.941  18.374  0.00  0.00    +0.000 OA
BRANCH  29  30
ATOM     30  N   UNL     1      -2.658  10.957  17.036  0.00  0.00    +0.000 N 
ATOM     31  O   UNL     1      -3.625  11.673  16.776  0.00  0.00    +0.000 OA
ATOM     32  O   UNL     1      -2.026  10.183  16.309  0.00  0.00    +0.000 OA
ENDBRANCH  29  30
ENDBRANCH  15  29
TORSDOF 7
ENDMDL
MODEL 3
REMARK VINA RESULT:      -6.6      1.125      1.275
REMARK  Name = 
REMARK  10 active torsions:
REMARK  status: ('A' for Active; 'I' for Inactive)
REMARK    1  A    between atoms: C_2  and  C_3
REMARK    2  A    between atoms: C_3  and  O_4
REMARK    3  A    between atoms: O_4  and  C_5
REMARK    4  A    between atoms: C_5  and  C_6
REMARK    5  A    between atoms: C_16  and  O_17
REMARK    6  A    between atoms: O_17  and  C_18
REMARK    7  A    between atoms: C_18  and  C_19
REMARK    8  A    between atoms: C_25  and  O_26
REMARK    9  A    between atoms: O_26  and  N_27
REMARK   10  A    between atoms: C_31  and  C_32
REMARK                            x       y       z     vdW  Elec       q    Type
REMARK                         _______ _______ _______ _____ _____    ______ ____
ROOT
ATOM      1  C   UNL     1      -4.069  13.380  22.672  0.00  0.00    +0.000 C 
ATOM      2  C   UNL     1      -2.929  13.114  23.642  0.00  0.00    +0.000 C 
ATOM      3  C   UNL     1      -2.300  11.821  23.253  0.00  0.00    +0.000 C 
ATOM      4  C   UNL     1      -1.779  12.122  21.858  0.00  0.00    +0.000 C 
ATOM      5  C   UNL     1      -0.913  10.969  21.280  0.00  0.00    +0.000 C 
ATOM      6  C   UNL     1       0.217  10.672  22.286  0.00  0.00    +0.000 C 
ATOM      7  C   UNL     1       0.545   9.223  22.175  0.00  0.00    +0.000 C 
ATOM      8  C   UNL     1       0.949   8.896  20.778  0.00  0.00    +0.000 A 
ATOM      9  C   UNL     1       1.644   7.660  20.723  0.00  0.00    +0.000 A 
ATOM     10  C   UNL     1       2.198   7.200  19.555  0.00  0.00    +0.000 A 
ATOM     11  C   UNL     1       2.080   7.997  18.432  0.00  0.00    +0.000 A 
ATOM     12  C   UNL     1       1.328   9.263  18.473  0.00  0.00    +0.000 A 
ATOM     13  C   UNL     1       0.681   9.735  19.648  0.00  0.00    +0.000 A 
ATOM     14  C   UNL     1      -0.141  11.150  19.925  0.00  0.00    +0.000 C 
ATOM     15  C   UNL     1      -1.169  11.914  18.984  0.00  0.00    +0.000 C 
ATOM     16  C   UNL     1      -2.105  13.222  19.798  0.00  0.00    +0.000 C 
ATOM     17  C   UNL     1      -3.051  12.769  21.137  0.00  0.00    +0.000 C 
ATOM     18  C   UNL     1      -4.019  11.808  20.359  0.00  0.00    +0.000 C 
ENDROOT
BRANCH   1  20
ATOM     19  C   UNL     1      -4.839  15.952  23.547  0.00  0.00    +0.000 C 
ATOM     20  C   UNL     1      -4.484  14.764  23.143  0.00  0.00    +0.000 C 
ENDBRANCH   1  20
BRANCH   1  21
ATOM     21  O   UNL     1      -5.260  12.644  22.402  0.00  0.00    +0.000 OA
BRANCH  21  22
ATOM     22  C   UNL     1      -6.532  12.947  22.578  0.00  0.00    +0.000 C 
ATOM     23  C   UNL     1      -6.942  12.447  23.969  0.00  0.00    +0.000 C 
ATOM     24  O   UNL     1      -7.248  13.525  21.813  0.00  0.00    +0.000 OA
ENDBRANCH  21  22
ENDBRANCH   1  21
BRANCH  10  25
ATOM     25  O   UNL     1       2.831   5.930  19.756  0.00  0.00    +0.000 OA
BRANCH  25  26
ATOM     26  C   UNL     1       3.914   5.314  19.130  0.00  0.00    +0.000 C 
ATOM     27  C   UNL     1       3.462   4.447  17.995  0.00  0.00    +0.000 C 
ATOM     28  O   UNL     1       5.085   5.460  19.455  0.00  0.00    +0.000 OA
ENDBRANCH  25  26
ENDBRANCH  10  25
BRANCH  15  29
ATOM     29  O   UNL     1      -1.997  10.870  18.456  0.00  0.00    +0.000 OA
BRANCH  29  30
ATOM     30  N   UNL     1      -2.018  10.735  17.046  0.00  0.00    +0.000 N 
ATOM     31  O   UNL     1      -2.410  11.696  16.386  0.00  0.00    +0.000 OA
ATOM     32  O   UNL     1      -1.668   9.609  16.677  0.00  0.00    +0.000 OA
ENDBRANCH  29  30
ENDBRANCH  15  29
TORSDOF 7
ENDMDL
MODEL 4
REMARK VINA RESULT:      -6.6      1.461      2.008
REMARK  Name = 
REMARK  10 active torsions:
REMARK  status: ('A' for Active; 'I' for Inactive)
REMARK    1  A    between atoms: C_2  and  C_3
REMARK    2  A    between atoms: C_3  and  O_4
REMARK    3  A    between atoms: O_4  and  C_5
REMARK    4  A    between atoms: C_5  and  C_6
REMARK    5  A    between atoms: C_16  and  O_17
REMARK    6  A    between atoms: O_17  and  C_18
REMARK    7  A    between atoms: C_18  and  C_19
REMARK    8  A    between atoms: C_25  and  O_26
REMARK    9  A    between atoms: O_26  and  N_27
REMARK   10  A    between atoms: C_31  and  C_32
REMARK                            x       y       z     vdW  Elec       q    Type
REMARK                         _______ _______ _______ _____ _____    ______ ____
ROOT
ATOM      1  C   UNL     1      -2.835  13.694  22.499  0.00  0.00    +0.000 C 
ATOM      2  C   UNL     1      -1.625  13.366  23.360  0.00  0.00    +0.000 C 
ATOM      3  C   UNL     1      -1.192  11.982  23.018  0.00  0.00    +0.000 C 
ATOM      4  C   UNL     1      -0.808  12.118  21.554  0.00  0.00    +0.000 C 
ATOM      5  C   UNL     1      -0.147  10.830  20.987  0.00  0.00    +0.000 C 
ATOM      6  C   UNL     1       1.053  10.475  21.887  0.00  0.00    +0.000 C 
ATOM      7  C   UNL     1       1.205   8.993  21.866  0.00  0.00    +0.000 C 
ATOM      8  C   UNL     1       1.405   8.519  20.467  0.00  0.00    +0.000 A 
ATOM      9  C   UNL     1       1.948   7.209  20.444  0.00  0.00    +0.000 A 
ATOM     10  C   UNL     1       2.308   6.603  19.266  0.00  0.00    +0.000 A 
ATOM     11  C   UNL     1       2.149   7.325  18.099  0.00  0.00    +0.000 A 
ATOM     12  C   UNL     1       1.550   8.671  18.112  0.00  0.00    +0.000 A 
ATOM     13  C   UNL     1       1.101   9.300  19.305  0.00  0.00    +0.000 A 
ATOM     14  C   UNL     1       0.476  10.819  19.546  0.00  0.00    +0.000 C 
ATOM     15  C   UNL     1      -0.564  11.630  18.659  0.00  0.00    +0.000 C 
ATOM     16  C   UNL     1      -1.249  13.096  19.455  0.00  0.00    +0.000 C 
ATOM     17  C   UNL     1      -2.076  12.856  20.921  0.00  0.00    +0.000 C 
ATOM     18  C   UNL     1      -3.228  11.964  20.337  0.00  0.00    +0.000 C 
ENDROOT
BRANCH   1  20
ATOM     19  C   UNL     1      -3.210  16.396  23.229  0.00  0.00    +0.000 C 
ATOM     20  C   UNL     1      -3.037  15.148  22.892  0.00  0.00    +0.000 C 
ENDBRANCH   1  20
BRANCH   1  21
ATOM     21  O   UNL     1      -4.123  13.087  22.423  0.00  0.00    +0.000 OA
BRANCH  21  22
ATOM     22  C   UNL     1      -5.165  13.148  23.230  0.00  0.00    +0.000 C 
ATOM     23  C   UNL     1      -4.775  12.461  24.545  0.00  0.00    +0.000 C 
ATOM     24  O   UNL     1      -6.223  13.658  23.005  0.00  0.00    +0.000 OA
ENDBRANCH  21  22
ENDBRANCH   1  21
BRANCH  10  25
ATOM     25  O   UNL     1       2.816   5.285  19.507  0.00  0.00    +0.000 OA
BRANCH  25  26
ATOM     26  C   UNL     1       2.182   4.059  19.705  0.00  0.00    +0.000 C 
ATOM     27  C   UNL     1       2.200   3.667  21.151  0.00  0.00    +0.000 C 
ATOM     28  O   UNL     1       1.670   3.385  18.821  0.00  0.00    +0.000 OA
ENDBRANCH  25  26
ENDBRANCH  10  25
BRANCH  15  29
ATOM     29  O   UNL     1      -1.557  10.656  18.315  0.00  0.00    +0.000 OA
BRANCH  29  30
ATOM     30  N   UNL     1      -1.988  10.645  16.965  0.00  0.00    +0.000 N 
ATOM     31  O   UNL     1      -2.484  11.677  16.516  0.00  0.00    +0.000 OA
ATOM     32  O   UNL     1      -1.835   9.541  16.432  0.00  0.00    +0.000 OA
ENDBRANCH  29  30
ENDBRANCH  15  29
TORSDOF 7
ENDMDL
MODEL 5
REMARK VINA RESULT:      -6.5      1.290      1.584
REMARK  Name = 
REMARK  10 active torsions:
REMARK  status: ('A' for Active; 'I' for Inactive)
REMARK    1  A    between atoms: C_2  and  C_3
REMARK    2  A    between atoms: C_3  and  O_4
REMARK    3  A    between atoms: O_4  and  C_5
REMARK    4  A    between atoms: C_5  and  C_6
REMARK    5  A    between atoms: C_16  and  O_17
REMARK    6  A    between atoms: O_17  and  C_18
REMARK    7  A    between atoms: C_18  and  C_19
REMARK    8  A    between atoms: C_25  and  O_26
REMARK    9  A    between atoms: O_26  and  N_27
REMARK   10  A    between atoms: C_31  and  C_32
REMARK                            x       y       z     vdW  Elec       q    Type
REMARK                         _______ _______ _______ _____ _____    ______ ____
ROOT
ATOM      1  C   UNL     1      -3.252  13.383  22.535  0.00  0.00    +0.000 C 
ATOM      2  C   UNL     1      -2.062  13.087  23.435  0.00  0.00    +0.000 C 
ATOM      3  C   UNL     1      -1.537  11.745  23.058  0.00  0.00    +0.000 C 
ATOM      4  C   UNL     1      -1.102  11.961  21.619  0.00  0.00    +0.000 C 
ATOM      5  C   UNL     1      -0.346  10.738  21.031  0.00  0.00    +0.000 C 
ATOM      6  C   UNL     1       0.835  10.413  21.969  0.00  0.00    +0.000 C 
ATOM      7  C   UNL     1       1.072   8.943  21.896  0.00  0.00    +0.000 C 
ATOM      8  C   UNL     1       1.357   8.540  20.490  0.00  0.00    +0.000 A 
ATOM      9  C   UNL     1       1.974   7.264  20.440  0.00  0.00    +0.000 A 
ATOM     10  C   UNL     1       2.417   6.728  19.256  0.00  0.00    +0.000 A 
ATOM     11  C   UNL     1       2.264   7.487  18.111  0.00  0.00    +0.000 A 
ATOM     12  C   UNL     1       1.589   8.796  18.151  0.00  0.00    +0.000 A 
ATOM     13  C   UNL     1       1.056   9.350  19.347  0.00  0.00    +0.000 A 
ATOM     14  C   UNL     1       0.336  10.820  19.619  0.00  0.00    +0.000 C 
ATOM     15  C   UNL     1      -0.711  11.608  18.721  0.00  0.00    +0.000 C 
ATOM     16  C   UNL     1      -1.511  12.999  19.542  0.00  0.00    +0.000 C 
ATOM     17  C   UNL     1      -2.383  12.654  20.961  0.00  0.00    +0.000 C 
ATOM     18  C   UNL     1      -3.457  11.724  20.293  0.00  0.00    +0.000 C 
ENDROOT
BRANCH   1  20
ATOM     19  C   UNL     1      -3.812  16.027  23.352  0.00  0.00    +0.000 C 
ATOM     20  C   UNL     1      -3.554  14.806  22.975  0.00  0.00    +0.000 C 
ENDBRANCH   1  20
BRANCH   1  21
ATOM     21  O   UNL     1      -4.500  12.709  22.380  0.00  0.00    +0.000 OA
BRANCH  21  22
ATOM     22  C   UNL     1      -5.541  12.605  23.183  0.00  0.00    +0.000 C 
ATOM     23  C   UNL     1      -6.784  13.025  22.390  0.00  0.00    +0.000 C 
ATOM     24  O   UNL     1      -5.541  12.232  24.320  0.00  0.00    +0.000 OA
ENDBRANCH  21  22
ENDBRANCH   1  21
BRANCH  10  25
ATOM     25  O   UNL     1       2.989   5.431  19.467  0.00  0.00    +0.000 OA
BRANCH  25  26
ATOM     26  C   UNL     1       4.286   4.944  19.308  0.00  0.00    +0.000 C 
ATOM     27  C   UNL     1       4.307   3.446  19.314  0.00  0.00    +0.000 C 
ATOM     28  O   UNL     1       5.284   5.640  19.176  0.00  0.00    +0.000 OA
ENDBRANCH  25  26
ENDBRANCH  10  25
BRANCH  15  29
ATOM     29  O   UNL     1      -1.633  10.595  18.296  0.00  0.00    +0.000 OA
BRANCH  29  30
ATOM     30  N   UNL     1      -2.043  10.645  16.941  0.00  0.00    +0.000 N 
ATOM     31  O   UNL     1      -2.035   9.593  16.303  0.00  0.00    +0.000 OA
ATOM     32  O   UNL     1      -2.315  11.792  16.574  0.00  0.00    +0.000 OA
ENDBRANCH  29  30
ENDBRANCH  15  29
TORSDOF 7
ENDMDL
MODEL 6
REMARK VINA RESULT:      -6.2      4.212      6.235
REMARK  Name = 
REMARK  10 active torsions:
REMARK  status: ('A' for Active; 'I' for Inactive)
REMARK    1  A    between atoms: C_2  and  C_3
REMARK    2  A    between atoms: C_3  and  O_4
REMARK    3  A    between atoms: O_4  and  C_5
REMARK    4  A    between atoms: C_5  and  C_6
REMARK    5  A    between atoms: C_16  and  O_17
REMARK    6  A    between atoms: O_17  and  C_18
REMARK    7  A    between atoms: C_18  and  C_19
REMARK    8  A    between atoms: C_25  and  O_26
REMARK    9  A    between atoms: O_26  and  N_27
REMARK   10  A    between atoms: C_31  and  C_32
REMARK                            x       y       z     vdW  Elec       q    Type
REMARK                         _______ _______ _______ _____ _____    ______ ____
ROOT
ATOM      1  C   UNL     1       1.178  14.235  19.189  0.00  0.00    +0.000 C 
ATOM      2  C   UNL     1       1.422  13.592  17.833  0.00  0.00    +0.000 C 
ATOM      3  C   UNL     1       2.164  12.321  18.066  0.00  0.00    +0.000 C 
ATOM      4  C   UNL     1       1.174  11.515  18.889  0.00  0.00    +0.000 C 
ATOM      5  C   UNL     1       1.643  10.053  19.126  0.00  0.00    +0.000 C 
ATOM      6  C   UNL     1       1.932   9.417  17.751  0.00  0.00    +0.000 C 
ATOM      7  C   UNL     1       3.018   8.414  17.942  0.00  0.00    +0.000 C 
ATOM      8  C   UNL     1       2.602   7.394  18.946  0.00  0.00    +0.000 A 
ATOM      9  C   UNL     1       3.409   6.231  18.857  0.00  0.00    +0.000 A 
ATOM     10  C   UNL     1       3.148   5.118  19.617  0.00  0.00    +0.000 A 
ATOM     11  C   UNL     1       2.053   5.158  20.459  0.00  0.00    +0.000 A 
ATOM     12  C   UNL     1       1.235   6.377  20.585  0.00  0.00    +0.000 A 
ATOM     13  C   UNL     1       1.517   7.570  19.866  0.00  0.00    +0.000 A 
ATOM     14  C   UNL     1       0.689   9.007  19.806  0.00  0.00    +0.000 C 
ATOM     15  C   UNL     1      -0.007   9.815  20.984  0.00  0.00    +0.000 C 
ATOM     16  C   UNL     1      -0.490  11.499  20.559  0.00  0.00    +0.000 C 
ATOM     17  C   UNL     1       0.747  12.543  20.036  0.00  0.00    +0.000 C 
ATOM     18  C   UNL     1       1.571  12.532  21.373  0.00  0.00    +0.000 C 
ENDROOT
BRANCH   1  20
ATOM     19  C   UNL     1      -0.415  16.425  18.389  0.00  0.00    +0.000 C 
ATOM     20  C   UNL     1       0.321  15.414  18.758  0.00  0.00    +0.000 C 
ENDBRANCH   1  20
BRANCH   1  21
ATOM     21  O   UNL     1       2.088  14.706  20.181  0.00  0.00    +0.000 OA
BRANCH  21  22
ATOM     22  C   UNL     1       3.222  15.372  20.078  0.00  0.00    +0.000 C 
ATOM     23  C   UNL     1       3.058  16.690  20.846  0.00  0.00    +0.000 C 
ATOM     24  O   UNL     1       4.215  15.023  19.512  0.00  0.00    +0.000 OA
ENDBRANCH  21  22
ENDBRANCH   1  21
BRANCH  10  25
ATOM     25  O   UNL     1       4.108   4.086  19.355  0.00  0.00    +0.000 OA
BRANCH  25  26
ATOM     26  C   UNL     1       4.096   2.713  19.598  0.00  0.00    +0.000 C 
ATOM     27  C   UNL     1       3.170   2.004  18.659  0.00  0.00    +0.000 C 
ATOM     28  O   UNL     1       4.756   2.151  20.462  0.00  0.00    +0.000 OA
ENDBRANCH  25  26
ENDBRANCH  10  25
BRANCH  15  29
ATOM     29  O   UNL     1       0.944   9.752  22.055  0.00  0.00    +0.000 OA
BRANCH  29  30
ATOM     30  N   UNL     1       0.413   9.608  23.361  0.00  0.00    +0.000 N 
ATOM     31  O   UNL     1       1.205   9.406  24.280  0.00  0.00    +0.000 OA
ATOM     32  O   UNL     1      -0.821   9.665  23.375  0.00  0.00    +0.000 OA
ENDBRANCH  29  30
ENDBRANCH  15  29
TORSDOF 7
ENDMDL
MODEL 7
REMARK VINA RESULT:      -6.2      4.168      6.233
REMARK  Name = 
REMARK  10 active torsions:
REMARK  status: ('A' for Active; 'I' for Inactive)
REMARK    1  A    between atoms: C_2  and  C_3
REMARK    2  A    between atoms: C_3  and  O_4
REMARK    3  A    between atoms: O_4  and  C_5
REMARK    4  A    between atoms: C_5  and  C_6
REMARK    5  A    between atoms: C_16  and  O_17
REMARK    6  A    between atoms: O_17  and  C_18
REMARK    7  A    between atoms: C_18  and  C_19
REMARK    8  A    between atoms: C_25  and  O_26
REMARK    9  A    between atoms: O_26  and  N_27
REMARK   10  A    between atoms: C_31  and  C_32
REMARK                            x       y       z     vdW  Elec       q    Type
REMARK                         _______ _______ _______ _____ _____    ______ ____
ROOT
ATOM      1  C   UNL     1      -4.250  13.037  21.686  0.00  0.00    +0.000 C 
ATOM      2  C   UNL     1      -4.298  14.507  21.298  0.00  0.00    +0.000 C 
ATOM      3  C   UNL     1      -2.900  15.021  21.312  0.00  0.00    +0.000 C 
ATOM      4  C   UNL     1      -2.238  14.185  20.230  0.00  0.00    +0.000 C 
ATOM      5  C   UNL     1      -0.788  14.648  19.918  0.00  0.00    +0.000 C 
ATOM      6  C   UNL     1      -0.833  16.149  19.567  0.00  0.00    +0.000 C 
ATOM      7  C   UNL     1       0.462  16.748  19.999  0.00  0.00    +0.000 C 
ATOM      8  C   UNL     1       1.595  16.057  19.322  0.00  0.00    +0.000 A 
ATOM      9  C   UNL     1       2.779  16.837  19.383  0.00  0.00    +0.000 A 
ATOM     10  C   UNL     1       3.928  16.447  18.742  0.00  0.00    +0.000 A 
ATOM     11  C   UNL     1       3.888  15.275  18.010  0.00  0.00    +0.000 A 
ATOM     12  C   UNL     1       2.675  14.441  17.975  0.00  0.00    +0.000 A 
ATOM     13  C   UNL     1       1.490  14.779  18.683  0.00  0.00    +0.000 A 
ATOM     14  C   UNL     1       0.009  14.028  18.716  0.00  0.00    +0.000 C 
ATOM     15  C   UNL     1      -0.328  12.476  18.777  0.00  0.00    +0.000 C 
ATOM     16  C   UNL     1      -2.050  12.095  19.155  0.00  0.00    +0.000 C 
ATOM     17  C   UNL     1      -2.663  12.695  20.623  0.00  0.00    +0.000 C 
ATOM     18  C   UNL     1      -1.705  11.883  21.566  0.00  0.00    +0.000 C 
ENDROOT
BRANCH   1  20
ATOM     19  C   UNL     1      -6.970  12.368  21.323  0.00  0.00    +0.000 C 
ATOM     20  C   UNL     1      -5.714  12.677  21.490  0.00  0.00    +0.000 C 
ENDBRANCH   1  20
BRANCH   1  21
ATOM     21  O   UNL     1      -3.807  12.398  22.881  0.00  0.00    +0.000 OA
BRANCH  21  22
ATOM     22  C   UNL     1      -4.154  12.569  24.142  0.00  0.00    +0.000 C 
ATOM     23  C   UNL     1      -3.400  13.797  24.669  0.00  0.00    +0.000 C 
ATOM     24  O   UNL     1      -4.928  11.911  24.774  0.00  0.00    +0.000 OA
ENDBRANCH  21  22
ENDBRANCH   1  21
BRANCH  10  25
ATOM     25  O   UNL     1       4.981  17.393  18.965  0.00  0.00    +0.000 OA
BRANCH  25  26
ATOM     26  C   UNL     1       6.347  17.236  19.201  0.00  0.00    +0.000 C 
ATOM     27  C   UNL     1       6.594  16.481  20.472  0.00  0.00    +0.000 C 
ATOM     28  O   UNL     1       7.235  17.651  18.469  0.00  0.00    +0.000 OA
ENDBRANCH  25  26
ENDBRANCH  10  25
BRANCH  15  29
ATOM     29  O   UNL     1       0.592  11.960  19.747  0.00  0.00    +0.000 OA
BRANCH  29  30
ATOM     30  N   UNL     1       1.185  10.709  19.449  0.00  0.00    +0.000 N 
ATOM     31  O   UNL     1       1.013   9.790  20.250  0.00  0.00    +0.000 OA
ATOM     32  O   UNL     1       1.852  10.740  18.410  0.00  0.00    +0.000 OA
ENDBRANCH  29  30
ENDBRANCH  15  29
TORSDOF 7
ENDMDL
MODEL 8
REMARK VINA RESULT:      -6.1      3.964      5.684
REMARK  Name = 
REMARK  10 active torsions:
REMARK  status: ('A' for Active; 'I' for Inactive)
REMARK    1  A    between atoms: C_2  and  C_3
REMARK    2  A    between atoms: C_3  and  O_4
REMARK    3  A    between atoms: O_4  and  C_5
REMARK    4  A    between atoms: C_5  and  C_6
REMARK    5  A    between atoms: C_16  and  O_17
REMARK    6  A    between atoms: O_17  and  C_18
REMARK    7  A    between atoms: C_18  and  C_19
REMARK    8  A    between atoms: C_25  and  O_26
REMARK    9  A    between atoms: O_26  and  N_27
REMARK   10  A    between atoms: C_31  and  C_32
REMARK                            x       y       z     vdW  Elec       q    Type
REMARK                         _______ _______ _______ _____ _____    ______ ____
ROOT
ATOM      1  C   UNL     1      -1.867  15.224  23.071  0.00  0.00    +0.000 C 
ATOM      2  C   UNL     1      -3.306  14.754  22.922  0.00  0.00    +0.000 C 
ATOM      3  C   UNL     1      -3.518  14.402  21.490  0.00  0.00    +0.000 C 
ATOM      4  C   UNL     1      -2.539  13.257  21.292  0.00  0.00    +0.000 C 
ATOM      5  C   UNL     1      -2.684  12.580  19.901  0.00  0.00    +0.000 C 
ATOM      6  C   UNL     1      -4.154  12.143  19.734  0.00  0.00    +0.000 C 
ATOM      7  C   UNL     1      -4.479  12.213  18.282  0.00  0.00    +0.000 C 
ATOM      8  C   UNL     1      -3.553  11.340  17.508  0.00  0.00    +0.000 A 
ATOM      9  C   UNL     1      -4.071  11.064  16.216  0.00  0.00    +0.000 A 
ATOM     10  C   UNL     1      -3.436  10.200  15.359  0.00  0.00    +0.000 A 
ATOM     11  C   UNL     1      -2.283   9.583  15.807  0.00  0.00    +0.000 A 
ATOM     12  C   UNL     1      -1.719   9.895  17.132  0.00  0.00    +0.000 A 
ATOM     13  C   UNL     1      -2.311  10.836  18.017  0.00  0.00    +0.000 A 
ATOM     14  C   UNL     1      -1.886  11.271  19.561  0.00  0.00    +0.000 C 
ATOM     15  C   UNL     1      -0.440  11.520  20.172  0.00  0.00    +0.000 C 
ATOM     16  C   UNL     1      -0.434  12.319  21.789  0.00  0.00    +0.000 C 
ATOM     17  C   UNL     1      -1.180  13.844  21.893  0.00  0.00    +0.000 C 
ATOM     18  C   UNL     1      -0.207  14.589  20.912  0.00  0.00    +0.000 C 
ENDROOT
BRANCH   1  20
ATOM     19  C   UNL     1      -1.771  15.560  25.873  0.00  0.00    +0.000 C 
ATOM     20  C   UNL     1      -1.816  15.405  24.579  0.00  0.00    +0.000 C 
ENDBRANCH   1  20
BRANCH   1  21
ATOM     21  O   UNL     1      -1.175  16.324  22.483  0.00  0.00    +0.000 OA
BRANCH  21  22
ATOM     22  C   UNL     1      -1.325  17.626  22.627  0.00  0.00    +0.000 C 
ATOM     23  C   UNL     1      -2.475  18.066  21.712  0.00  0.00    +0.000 C 
ATOM     24  O   UNL     1      -0.702  18.349  23.349  0.00  0.00    +0.000 OA
ENDBRANCH  21  22
ENDBRANCH   1  21
BRANCH  10  25
ATOM     25  O   UNL     1      -4.147  10.100  14.118  0.00  0.00    +0.000 OA
BRANCH  25  26
ATOM     26  C   UNL     1      -3.744   9.728  12.836  0.00  0.00    +0.000 C 
ATOM     27  C   UNL     1      -4.900   9.728  11.883  0.00  0.00    +0.000 C 
ATOM     28  O   UNL     1      -2.597   9.442  12.519  0.00  0.00    +0.000 OA
ENDBRANCH  25  26
ENDBRANCH  10  25
BRANCH  15  29
ATOM     29  O   UNL     1       0.235  12.280  19.162  0.00  0.00    +0.000 OA
BRANCH  29  30
ATOM     30  N   UNL     1       1.422  11.713  18.635  0.00  0.00    +0.000 N 
ATOM     31  O   UNL     1       1.504  10.486  18.606  0.00  0.00    +0.000 OA
ATOM     32  O   UNL     1       2.250  12.571  18.312  0.00  0.00    +0.000 OA
ENDBRANCH  29  30
ENDBRANCH  15  29
TORSDOF 7
ENDMDL
MODEL 9
REMARK VINA RESULT:      -6.0      4.175      6.131
REMARK  Name = 
REMARK  10 active torsions:
REMARK  status: ('A' for Active; 'I' for Inactive)
REMARK    1  A    between atoms: C_2  and  C_3
REMARK    2  A    between atoms: C_3  and  O_4
REMARK    3  A    between atoms: O_4  and  C_5
REMARK    4  A    between atoms: C_5  and  C_6
REMARK    5  A    between atoms: C_16  and  O_17
REMARK    6  A    between atoms: O_17  and  C_18
REMARK    7  A    between atoms: C_18  and  C_19
REMARK    8  A    between atoms: C_25  and  O_26
REMARK    9  A    between atoms: O_26  and  N_27
REMARK   10  A    between atoms: C_31  and  C_32
REMARK                            x       y       z     vdW  Elec       q    Type
REMARK                         _______ _______ _______ _____ _____    ______ ____
ROOT
ATOM      1  C   UNL     1       0.931  14.653  19.189  0.00  0.00    +0.000 C 
ATOM      2  C   UNL     1       0.893  13.967  17.831  0.00  0.00    +0.000 C 
ATOM      3  C   UNL     1       1.669  12.701  17.946  0.00  0.00    +0.000 C 
ATOM      4  C   UNL     1       0.870  11.926  18.980  0.00  0.00    +0.000 C 
ATOM      5  C   UNL     1       1.380  10.469  19.161  0.00  0.00    +0.000 C 
ATOM      6  C   UNL     1       1.382   9.789  17.777  0.00  0.00    +0.000 C 
ATOM      7  C   UNL     1       2.485   8.788  17.772  0.00  0.00    +0.000 C 
ATOM      8  C   UNL     1       2.285   7.801  18.871  0.00  0.00    +0.000 A 
ATOM      9  C   UNL     1       3.058   6.632  18.654  0.00  0.00    +0.000 A 
ATOM     10  C   UNL     1       2.962   5.544  19.486  0.00  0.00    +0.000 A 
ATOM     11  C   UNL     1       2.062   5.616  20.533  0.00  0.00    +0.000 A 
ATOM     12  C   UNL     1       1.285   6.841  20.786  0.00  0.00    +0.000 A 
ATOM     13  C   UNL     1       1.412   8.010  19.988  0.00  0.00    +0.000 A 
ATOM     14  C   UNL     1       0.587   9.449  20.054  0.00  0.00    +0.000 C 
ATOM     15  C   UNL     1       0.146  10.296  21.325  0.00  0.00    +0.000 C 
ATOM     16  C   UNL     1      -0.416  11.969  20.955  0.00  0.00    +0.000 C 
ATOM     17  C   UNL     1       0.686  12.990  20.158  0.00  0.00    +0.000 C 
ATOM     18  C   UNL     1       1.767  13.016  21.297  0.00  0.00    +0.000 C 
ENDROOT
BRANCH   1  20
ATOM     19  C   UNL     1      -0.795  16.825  18.664  0.00  0.00    +0.000 C 
ATOM     20  C   UNL     1       0.002  15.822  18.906  0.00  0.00    +0.000 C 
ENDBRANCH   1  20
BRANCH   1  21
ATOM     21  O   UNL     1       2.025  15.150  19.957  0.00  0.00    +0.000 OA
BRANCH  21  22
ATOM     22  C   UNL     1       2.930  16.071  19.691  0.00  0.00    +0.000 C 
ATOM     23  C   UNL     1       3.025  16.996  20.911  0.00  0.00    +0.000 C 
ATOM     24  O   UNL     1       3.585  16.173  18.695  0.00  0.00    +0.000 OA
ENDBRANCH  21  22
ENDBRANCH   1  21
BRANCH  10  25
ATOM     25  O   UNL     1       3.848   4.500  19.065  0.00  0.00    +0.000 OA
BRANCH  25  26
ATOM     26  C   UNL     1       5.196   4.505  18.705  0.00  0.00    +0.000 C 
ATOM     27  C   UNL     1       5.368   4.207  17.247  0.00  0.00    +0.000 C 
ATOM     28  O   UNL     1       6.123   4.727  19.471  0.00  0.00    +0.000 OA
ENDBRANCH  25  26
ENDBRANCH  10  25
BRANCH  15  29
ATOM     29  O   UNL     1       1.297  10.261  22.179  0.00  0.00    +0.000 OA
BRANCH  29  30
ATOM     30  N   UNL     1       1.137   9.603  23.423  0.00  0.00    +0.000 N 
ATOM     31  O   UNL     1       2.155   9.252  24.018  0.00  0.00    +0.000 OA
ATOM     32  O   UNL     1      -0.051   9.432  23.716  0.00  0.00    +0.000 OA
ENDBRANCH  29  30
ENDBRANCH  15  29
TORSDOF 7
ENDMDL
