MODEL 1
REMARK VINA RESULT:      -8.6      0.000      0.000
REMARK  Name = 
REMARK  6 active torsions:
REMARK  status: ('A' for Active; 'I' for Inactive)
REMARK    1  A    between atoms: C_1  and  C_2
REMARK    2  A    between atoms: C_5  and  C_6
REMARK    3  A    between atoms: C_9  and  C_11
REMARK    4  A    between atoms: C_11  and  C_12
REMARK    5  A    between atoms: C_23  and  C_25
REMARK    6  A    between atoms: C_25  and  C_26
REMARK                            x       y       z     vdW  Elec       q    Type
REMARK                         _______ _______ _______ _____ _____    ______ ____
ROOT
ATOM      1  C   UNL     1       1.643  13.126  20.862  0.00  0.00    +0.000 C 
ATOM      2  C   UNL     1       0.571  13.887  21.656  0.00  0.00    +0.000 C 
ATOM      3  N   UNL     1      -0.448  12.901  21.942  0.00  0.00    +0.000 N 
ATOM      4  C   UNL     1      -1.329  13.073  22.987  0.00  0.00    +0.000 C 
ATOM      5  O   UNL     1      -1.287  14.075  23.706  0.00  0.00    +0.000 OA
ATOM      6  C   UNL     1      -0.511  11.950  20.855  0.00  0.00    +0.000 C 
ATOM      7  C   UNL     1       0.957  11.785  20.401  0.00  0.00    +0.000 C 
ATOM      8  C   UNL     1       1.062  11.488  18.881  0.00  0.00    +0.000 C 
ATOM      9  C   UNL     1       0.531  10.103  18.501  0.00  0.00    +0.000 C 
ATOM     10  N   UNL     1       1.153   9.068  19.320  0.00  0.00    +0.000 N 
ATOM     11  C   UNL     1       2.033   8.159  18.737  0.00  0.00    +0.000 C 
ATOM     12  O   UNL     1       2.317   8.204  17.540  0.00  0.00    +0.000 OA
ATOM     13  C   UNL     1       1.001   9.248  20.759  0.00  0.00    +0.000 C 
ATOM     14  C   UNL     1       1.596  10.593  21.173  0.00  0.00    +0.000 C 
ENDROOT
BRANCH   1  19
ATOM     15  C   UNL     1       5.030  14.871  17.885  0.00  0.00    +0.000 C 
ATOM     16  C   UNL     1       3.681  14.710  18.452  0.00  0.00    +0.000 A 
ATOM     17  N   UNL     1       2.537  15.219  18.048  0.00  0.00    +0.000 NA
ATOM     18  N   UNL     1       1.572  14.729  18.898  0.00  0.00    +0.000 NA
ATOM     19  C   UNL     1       2.194  13.962  19.769  0.00  0.00    +0.000 A 
ATOM     20  O   UNL     1       3.544  13.904  19.555  0.00  0.00    +0.000 OA
ENDBRANCH   1  19
BRANCH   4  21
ATOM     21  C   UNL     1      -2.309  11.946  23.299  0.00  0.00    +0.000 C 
BRANCH  21  22
ATOM     22  C   UNL     1      -3.744  12.413  23.204  0.00  0.00    +0.000 A 
ATOM     23  C   UNL     1      -4.558  12.422  24.347  0.00  0.00    +0.000 A 
ATOM     24  C   UNL     1      -5.905  12.777  24.259  0.00  0.00    +0.000 A 
ATOM     25  C   UNL     1      -6.452  13.135  23.030  0.00  0.00    +0.000 A 
ATOM     26  C   UNL     1      -5.646  13.163  21.893  0.00  0.00    +0.000 A 
ATOM     27  C   UNL     1      -4.297  12.812  21.980  0.00  0.00    +0.000 A 
ENDBRANCH  21  22
ENDBRANCH   4  21
BRANCH  11  28
ATOM     28  C   UNL     1       2.629   7.065  19.622  0.00  0.00    +0.000 C 
BRANCH  28  29
ATOM     29  C   UNL     1       2.048   5.682  19.411  0.00  0.00    +0.000 A 
ATOM     30  C   UNL     1       2.170   5.055  18.160  0.00  0.00    +0.000 A 
ATOM     31  C   UNL     1       1.659   3.771  17.953  0.00  0.00    +0.000 A 
ATOM     32  C   UNL     1       1.035   3.093  18.999  0.00  0.00    +0.000 A 
ATOM     33  C   UNL     1       0.931   3.695  20.251  0.00  0.00    +0.000 A 
ATOM     34  C   UNL     1       1.444   4.975  20.460  0.00  0.00    +0.000 A 
ENDBRANCH  28  29
ENDBRANCH  11  28
TORSDOF 5
ENDMDL
MODEL 2
REMARK VINA RESULT:      -8.5      0.170      1.182
REMARK  Name = 
REMARK  6 active torsions:
REMARK  status: ('A' for Active; 'I' for Inactive)
REMARK    1  A    between atoms: C_1  and  C_2
REMARK    2  A    between atoms: C_5  and  C_6
REMARK    3  A    between atoms: C_9  and  C_11
REMARK    4  A    between atoms: C_11  and  C_12
REMARK    5  A    between atoms: C_23  and  C_25
REMARK    6  A    between atoms: C_25  and  C_26
REMARK                            x       y       z     vdW  Elec       q    Type
REMARK                         _______ _______ _______ _____ _____    ______ ____
ROOT
ATOM      1  C   UNL     1       1.509  13.208  20.957  0.00  0.00    +0.000 C 
ATOM      2  C   UNL     1       0.427  13.953  21.751  0.00  0.00    +0.000 C 
ATOM      3  N   UNL     1      -0.584  12.955  22.026  0.00  0.00    +0.000 N 
ATOM      4  C   UNL     1      -1.471  13.111  23.069  0.00  0.00    +0.000 C 
ATOM      5  O   UNL     1      -1.442  14.109  23.794  0.00  0.00    +0.000 OA
ATOM      6  C   UNL     1      -0.633  12.009  20.934  0.00  0.00    +0.000 C 
ATOM      7  C   UNL     1       0.839  11.862  20.485  0.00  0.00    +0.000 C 
ATOM      8  C   UNL     1       0.954  11.576  18.964  0.00  0.00    +0.000 C 
ATOM      9  C   UNL     1       0.439  10.188  18.573  0.00  0.00    +0.000 C 
ATOM     10  N   UNL     1       1.068   9.155  19.388  0.00  0.00    +0.000 N 
ATOM     11  C   UNL     1       1.960   8.259  18.803  0.00  0.00    +0.000 C 
ATOM     12  O   UNL     1       2.248   8.314  17.608  0.00  0.00    +0.000 OA
ATOM     13  C   UNL     1       0.908   9.324  20.828  0.00  0.00    +0.000 C 
ATOM     14  C   UNL     1       1.487  10.673  21.252  0.00  0.00    +0.000 C 
ENDROOT
BRANCH   1  19
ATOM     15  C   UNL     1       4.847  14.879  17.884  0.00  0.00    +0.000 C 
ATOM     16  C   UNL     1       3.521  14.772  18.511  0.00  0.00    +0.000 A 
ATOM     17  N   UNL     1       2.391  15.363  18.186  0.00  0.00    +0.000 NA
ATOM     18  N   UNL     1       1.440  14.894  19.063  0.00  0.00    +0.000 NA
ATOM     19  C   UNL     1       2.056  14.056  19.871  0.00  0.00    +0.000 A 
ATOM     20  O   UNL     1       3.389  13.929  19.587  0.00  0.00    +0.000 OA
ENDBRANCH   1  19
BRANCH   4  21
ATOM     21  C   UNL     1      -2.440  11.972  23.370  0.00  0.00    +0.000 C 
BRANCH  21  22
ATOM     22  C   UNL     1      -3.879  12.411  23.218  0.00  0.00    +0.000 A 
ATOM     23  C   UNL     1      -4.375  12.775  21.956  0.00  0.00    +0.000 A 
ATOM     24  C   UNL     1      -5.677  13.256  21.814  0.00  0.00    +0.000 A 
ATOM     25  C   UNL     1      -6.503  13.369  22.929  0.00  0.00    +0.000 A 
ATOM     26  C   UNL     1      -6.035  12.979  24.183  0.00  0.00    +0.000 A 
ATOM     27  C   UNL     1      -4.733  12.495  24.326  0.00  0.00    +0.000 A 
ENDBRANCH  21  22
ENDBRANCH   4  21
BRANCH  11  28
ATOM     28  C   UNL     1       2.563   7.165  19.684  0.00  0.00    +0.000 C 
BRANCH  28  29
ATOM     29  C   UNL     1       2.068   5.762  19.396  0.00  0.00    +0.000 A 
ATOM     30  C   UNL     1       1.450   5.015  20.412  0.00  0.00    +0.000 A 
ATOM     31  C   UNL     1       0.969   3.728  20.158  0.00  0.00    +0.000 A 
ATOM     32  C   UNL     1       1.085   3.180  18.882  0.00  0.00    +0.000 A 
ATOM     33  C   UNL     1       1.672   3.923  17.860  0.00  0.00    +0.000 A 
ATOM     34  C   UNL     1       2.151   5.208  18.111  0.00  0.00    +0.000 A 
ENDBRANCH  28  29
ENDBRANCH  11  28
TORSDOF 5
ENDMDL
MODEL 3
REMARK VINA RESULT:      -8.5      0.805      1.145
REMARK  Name = 
REMARK  6 active torsions:
REMARK  status: ('A' for Active; 'I' for Inactive)
REMARK    1  A    between atoms: C_1  and  C_2
REMARK    2  A    between atoms: C_5  and  C_6
REMARK    3  A    between atoms: C_9  and  C_11
REMARK    4  A    between atoms: C_11  and  C_12
REMARK    5  A    between atoms: C_23  and  C_25
REMARK    6  A    between atoms: C_25  and  C_26
REMARK                            x       y       z     vdW  Elec       q    Type
REMARK                         _______ _______ _______ _____ _____    ______ ____
ROOT
ATOM      1  C   UNL     1       1.527  13.296  20.912  0.00  0.00    +0.000 C 
ATOM      2  C   UNL     1       0.466  14.017  21.754  0.00  0.00    +0.000 C 
ATOM      3  N   UNL     1      -0.561  13.025  21.984  0.00  0.00    +0.000 N 
ATOM      4  C   UNL     1      -1.437  13.142  23.042  0.00  0.00    +0.000 C 
ATOM      5  O   UNL     1      -1.383  14.100  23.818  0.00  0.00    +0.000 OA
ATOM      6  C   UNL     1      -0.637  12.140  20.844  0.00  0.00    +0.000 C 
ATOM      7  C   UNL     1       0.829  11.990  20.374  0.00  0.00    +0.000 C 
ATOM      8  C   UNL     1       0.926  11.783  18.840  0.00  0.00    +0.000 C 
ATOM      9  C   UNL     1       0.381  10.428  18.380  0.00  0.00    +0.000 C 
ATOM     10  N   UNL     1       0.997   9.341  19.133  0.00  0.00    +0.000 N 
ATOM     11  C   UNL     1       1.867   8.461  18.494  0.00  0.00    +0.000 C 
ATOM     12  O   UNL     1       2.146   8.574  17.301  0.00  0.00    +0.000 OA
ATOM     13  C   UNL     1       0.852   9.437  20.582  0.00  0.00    +0.000 C 
ATOM     14  C   UNL     1       1.460  10.749  21.072  0.00  0.00    +0.000 C 
ENDROOT
BRANCH   1  19
ATOM     15  C   UNL     1       4.859  15.036  17.870  0.00  0.00    +0.000 C 
ATOM     16  C   UNL     1       3.543  14.937  18.521  0.00  0.00    +0.000 A 
ATOM     17  N   UNL     1       2.429  15.587  18.259  0.00  0.00    +0.000 NA
ATOM     18  N   UNL     1       1.480  15.098  19.128  0.00  0.00    +0.000 NA
ATOM     19  C   UNL     1       2.082  14.190  19.867  0.00  0.00    +0.000 A 
ATOM     20  O   UNL     1       3.403  14.034  19.545  0.00  0.00    +0.000 OA
ENDBRANCH   1  19
BRANCH   4  21
ATOM     21  C   UNL     1      -2.426  12.007  23.291  0.00  0.00    +0.000 C 
BRANCH  21  22
ATOM     22  C   UNL     1      -3.856  12.469  23.129  0.00  0.00    +0.000 A 
ATOM     23  C   UNL     1      -4.682  12.610  24.254  0.00  0.00    +0.000 A 
ATOM     24  C   UNL     1      -6.026  12.961  24.113  0.00  0.00    +0.000 A 
ATOM     25  C   UNL     1      -6.558  13.183  22.845  0.00  0.00    +0.000 A 
ATOM     26  C   UNL     1      -5.740  13.079  21.721  0.00  0.00    +0.000 A 
ATOM     27  C   UNL     1      -4.395  12.732  21.861  0.00  0.00    +0.000 A 
ENDBRANCH  21  22
ENDBRANCH   4  21
BRANCH  11  28
ATOM     28  C   UNL     1       2.456   7.310  19.311  0.00  0.00    +0.000 C 
BRANCH  28  29
ATOM     29  C   UNL     1       2.848   6.088  18.506  0.00  0.00    +0.000 A 
ATOM     30  C   UNL     1       4.187   5.900  18.125  0.00  0.00    +0.000 A 
ATOM     31  C   UNL     1       4.570   4.767  17.401  0.00  0.00    +0.000 A 
ATOM     32  C   UNL     1       3.622   3.803  17.065  0.00  0.00    +0.000 A 
ATOM     33  C   UNL     1       2.296   3.966  17.460  0.00  0.00    +0.000 A 
ATOM     34  C   UNL     1       1.913   5.095  18.185  0.00  0.00    +0.000 A 
ENDBRANCH  28  29
ENDBRANCH  11  28
TORSDOF 5
ENDMDL
MODEL 4
REMARK VINA RESULT:      -8.1      1.167      1.710
REMARK  Name = 
REMARK  6 active torsions:
REMARK  status: ('A' for Active; 'I' for Inactive)
REMARK    1  A    between atoms: C_1  and  C_2
REMARK    2  A    between atoms: C_5  and  C_6
REMARK    3  A    between atoms: C_9  and  C_11
REMARK    4  A    between atoms: C_11  and  C_12
REMARK    5  A    between atoms: C_23  and  C_25
REMARK    6  A    between atoms: C_25  and  C_26
REMARK                            x       y       z     vdW  Elec       q    Type
REMARK                         _______ _______ _______ _____ _____    ______ ____
ROOT
ATOM      1  C   UNL     1       1.419  13.376  20.347  0.00  0.00    +0.000 C 
ATOM      2  C   UNL     1       0.191  14.280  20.525  0.00  0.00    +0.000 C 
ATOM      3  N   UNL     1      -0.944  13.395  20.384  0.00  0.00    +0.000 N 
ATOM      4  C   UNL     1      -2.174  13.728  20.909  0.00  0.00    +0.000 C 
ATOM      5  O   UNL     1      -2.351  14.794  21.505  0.00  0.00    +0.000 OA
ATOM      6  C   UNL     1      -0.618  12.343  19.448  0.00  0.00    +0.000 C 
ATOM      7  C   UNL     1       0.875  12.040  19.713  0.00  0.00    +0.000 C 
ATOM      8  C   UNL     1       1.610  11.583  18.425  0.00  0.00    +0.000 C 
ATOM      9  C   UNL     1       1.163  10.203  17.935  0.00  0.00    +0.000 C 
ATOM     10  N   UNL     1       1.249   9.220  19.010  0.00  0.00    +0.000 N 
ATOM     11  C   UNL     1       2.198   8.202  18.943  0.00  0.00    +0.000 C 
ATOM     12  O   UNL     1       2.985   8.106  18.001  0.00  0.00    +0.000 OA
ATOM     13  C   UNL     1       0.496   9.556  20.213  0.00  0.00    +0.000 C 
ATOM     14  C   UNL     1       0.981  10.896  20.764  0.00  0.00    +0.000 C 
ENDROOT
BRANCH   1  19
ATOM     15  C   UNL     1       3.258  16.461  17.110  0.00  0.00    +0.000 C 
ATOM     16  C   UNL     1       3.281  15.429  18.158  0.00  0.00    +0.000 A 
ATOM     17  N   UNL     1       4.309  14.886  18.777  0.00  0.00    +0.000 NA
ATOM     18  N   UNL     1       3.788  14.003  19.695  0.00  0.00    +0.000 NA
ATOM     19  C   UNL     1       2.479  14.058  19.567  0.00  0.00    +0.000 A 
ATOM     20  O   UNL     1       2.077  14.941  18.602  0.00  0.00    +0.000 OA
ENDBRANCH   1  19
BRANCH   4  21
ATOM     21  C   UNL     1      -3.300  12.703  20.818  0.00  0.00    +0.000 C 
BRANCH  21  22
ATOM     22  C   UNL     1      -4.107  12.649  22.096  0.00  0.00    +0.000 A 
ATOM     23  C   UNL     1      -5.482  12.931  22.074  0.00  0.00    +0.000 A 
ATOM     24  C   UNL     1      -6.223  12.960  23.256  0.00  0.00    +0.000 A 
ATOM     25  C   UNL     1      -5.601  12.700  24.474  0.00  0.00    +0.000 A 
ATOM     26  C   UNL     1      -4.243  12.386  24.507  0.00  0.00    +0.000 A 
ATOM     27  C   UNL     1      -3.501  12.352  23.325  0.00  0.00    +0.000 A 
ENDBRANCH  21  22
ENDBRANCH   4  21
BRANCH  11  28
ATOM     28  C   UNL     1       2.226   7.169  20.070  0.00  0.00    +0.000 C 
BRANCH  28  29
ATOM     29  C   UNL     1       1.886   5.753  19.650  0.00  0.00    +0.000 A 
ATOM     30  C   UNL     1       1.316   4.866  20.577  0.00  0.00    +0.000 A 
ATOM     31  C   UNL     1       0.977   3.563  20.202  0.00  0.00    +0.000 A 
ATOM     32  C   UNL     1       1.189   3.139  18.891  0.00  0.00    +0.000 A 
ATOM     33  C   UNL     1       1.730   4.019  17.957  0.00  0.00    +0.000 A 
ATOM     34  C   UNL     1       2.066   5.320  18.329  0.00  0.00    +0.000 A 
ENDBRANCH  28  29
ENDBRANCH  11  28
TORSDOF 5
ENDMDL
MODEL 5
REMARK VINA RESULT:      -8.1      1.120      1.336
REMARK  Name = 
REMARK  6 active torsions:
REMARK  status: ('A' for Active; 'I' for Inactive)
REMARK    1  A    between atoms: C_1  and  C_2
REMARK    2  A    between atoms: C_5  and  C_6
REMARK    3  A    between atoms: C_9  and  C_11
REMARK    4  A    between atoms: C_11  and  C_12
REMARK    5  A    between atoms: C_23  and  C_25
REMARK    6  A    between atoms: C_25  and  C_26
REMARK                            x       y       z     vdW  Elec       q    Type
REMARK                         _______ _______ _______ _____ _____    ______ ____
ROOT
ATOM      1  C   UNL     1       1.379  13.328  20.517  0.00  0.00    +0.000 C 
ATOM      2  C   UNL     1       0.158  14.241  20.697  0.00  0.00    +0.000 C 
ATOM      3  N   UNL     1      -0.984  13.369  20.529  0.00  0.00    +0.000 N 
ATOM      4  C   UNL     1      -2.217  13.707  21.046  0.00  0.00    +0.000 C 
ATOM      5  O   UNL     1      -2.390  14.764  21.658  0.00  0.00    +0.000 OA
ATOM      6  C   UNL     1      -0.658  12.330  19.580  0.00  0.00    +0.000 C 
ATOM      7  C   UNL     1       0.829  12.008  19.856  0.00  0.00    +0.000 C 
ATOM      8  C   UNL     1       1.573  11.565  18.568  0.00  0.00    +0.000 C 
ATOM      9  C   UNL     1       1.118  10.198  18.051  0.00  0.00    +0.000 C 
ATOM     10  N   UNL     1       1.184   9.196  19.110  0.00  0.00    +0.000 N 
ATOM     11  C   UNL     1       2.123   8.171  19.037  0.00  0.00    +0.000 C 
ATOM     12  O   UNL     1       2.919   8.082  18.102  0.00  0.00    +0.000 OA
ATOM     13  C   UNL     1       0.421   9.520  20.311  0.00  0.00    +0.000 C 
ATOM     14  C   UNL     1       0.912  10.846  20.889  0.00  0.00    +0.000 C 
ENDROOT
BRANCH   1  19
ATOM     15  C   UNL     1       3.275  16.325  17.231  0.00  0.00    +0.000 C 
ATOM     16  C   UNL     1       3.280  15.345  18.328  0.00  0.00    +0.000 A 
ATOM     17  N   UNL     1       4.292  14.872  19.024  0.00  0.00    +0.000 NA
ATOM     18  N   UNL     1       3.755  14.013  19.956  0.00  0.00    +0.000 NA
ATOM     19  C   UNL     1       2.453  14.013  19.760  0.00  0.00    +0.000 A 
ATOM     20  O   UNL     1       2.072  14.833  18.732  0.00  0.00    +0.000 OA
ENDBRANCH   1  19
BRANCH   4  21
ATOM     21  C   UNL     1      -3.352  12.694  20.928  0.00  0.00    +0.000 C 
BRANCH  21  22
ATOM     22  C   UNL     1      -4.246  12.715  22.147  0.00  0.00    +0.000 A 
ATOM     23  C   UNL     1      -3.702  12.499  23.423  0.00  0.00    +0.000 A 
ATOM     24  C   UNL     1      -4.526  12.438  24.548  0.00  0.00    +0.000 A 
ATOM     25  C   UNL     1      -5.902  12.602  24.412  0.00  0.00    +0.000 A 
ATOM     26  C   UNL     1      -6.452  12.850  23.155  0.00  0.00    +0.000 A 
ATOM     27  C   UNL     1      -5.628  12.915  22.029  0.00  0.00    +0.000 A 
ENDBRANCH  21  22
ENDBRANCH   4  21
BRANCH  11  28
ATOM     28  C   UNL     1       2.129   7.119  20.147  0.00  0.00    +0.000 C 
BRANCH  28  29
ATOM     29  C   UNL     1       1.803   5.710  19.696  0.00  0.00    +0.000 A 
ATOM     30  C   UNL     1       2.013   5.336  18.358  0.00  0.00    +0.000 A 
ATOM     31  C   UNL     1       1.737   4.035  17.930  0.00  0.00    +0.000 A 
ATOM     32  C   UNL     1       1.265   3.089  18.837  0.00  0.00    +0.000 A 
ATOM     33  C   UNL     1       1.077   3.441  20.172  0.00  0.00    +0.000 A 
ATOM     34  C   UNL     1       1.355   4.739  20.602  0.00  0.00    +0.000 A 
ENDBRANCH  28  29
ENDBRANCH  11  28
TORSDOF 5
ENDMDL
MODEL 6
REMARK VINA RESULT:      -8.0      1.370      2.040
REMARK  Name = 
REMARK  6 active torsions:
REMARK  status: ('A' for Active; 'I' for Inactive)
REMARK    1  A    between atoms: C_1  and  C_2
REMARK    2  A    between atoms: C_5  and  C_6
REMARK    3  A    between atoms: C_9  and  C_11
REMARK    4  A    between atoms: C_11  and  C_12
REMARK    5  A    between atoms: C_23  and  C_25
REMARK    6  A    between atoms: C_25  and  C_26
REMARK                            x       y       z     vdW  Elec       q    Type
REMARK                         _______ _______ _______ _____ _____    ______ ____
ROOT
ATOM      1  C   UNL     1       1.303  13.550  21.014  0.00  0.00    +0.000 C 
ATOM      2  C   UNL     1       0.242  14.230  21.892  0.00  0.00    +0.000 C 
ATOM      3  N   UNL     1      -0.765  13.214  22.109  0.00  0.00    +0.000 N 
ATOM      4  C   UNL     1      -1.627  13.288  23.182  0.00  0.00    +0.000 C 
ATOM      5  O   UNL     1      -1.576  14.224  23.985  0.00  0.00    +0.000 OA
ATOM      6  C   UNL     1      -0.843  12.360  20.946  0.00  0.00    +0.000 C 
ATOM      7  C   UNL     1       0.617  12.248  20.451  0.00  0.00    +0.000 C 
ATOM      8  C   UNL     1       0.695  12.085  18.910  0.00  0.00    +0.000 C 
ATOM      9  C   UNL     1       0.165  10.734  18.421  0.00  0.00    +0.000 C 
ATOM     10  N   UNL     1       0.810   9.637  19.134  0.00  0.00    +0.000 N 
ATOM     11  C   UNL     1       1.684   8.789  18.458  0.00  0.00    +0.000 C 
ATOM     12  O   UNL     1       1.944   8.940  17.264  0.00  0.00    +0.000 OA
ATOM     13  C   UNL     1       0.685   9.690  20.587  0.00  0.00    +0.000 C 
ATOM     14  C   UNL     1       1.279  10.999  21.105  0.00  0.00    +0.000 C 
ENDROOT
BRANCH   1  19
ATOM     15  C   UNL     1       1.241  17.347  18.022  0.00  0.00    +0.000 C 
ATOM     16  C   UNL     1       1.801  16.161  18.689  0.00  0.00    +0.000 A 
ATOM     17  N   UNL     1       3.012  15.653  18.615  0.00  0.00    +0.000 NA
ATOM     18  N   UNL     1       3.031  14.568  19.462  0.00  0.00    +0.000 NA
ATOM     19  C   UNL     1       1.827  14.482  19.987  0.00  0.00    +0.000 A 
ATOM     20  O   UNL     1       0.981  15.460  19.538  0.00  0.00    +0.000 OA
ENDBRANCH   1  19
BRANCH   4  21
ATOM     21  C   UNL     1      -2.592  12.130  23.414  0.00  0.00    +0.000 C 
BRANCH  21  22
ATOM     22  C   UNL     1      -4.026  12.544  23.173  0.00  0.00    +0.000 A 
ATOM     23  C   UNL     1      -4.461  12.851  21.874  0.00  0.00    +0.000 A 
ATOM     24  C   UNL     1      -5.760  13.310  21.648  0.00  0.00    +0.000 A 
ATOM     25  C   UNL     1      -6.642  13.458  22.715  0.00  0.00    +0.000 A 
ATOM     26  C   UNL     1      -6.233  13.124  24.005  0.00  0.00    +0.000 A 
ATOM     27  C   UNL     1      -4.935  12.662  24.233  0.00  0.00    +0.000 A 
ENDBRANCH  21  22
ENDBRANCH   4  21
BRANCH  11  28
ATOM     28  C   UNL     1       2.305   7.627  19.233  0.00  0.00    +0.000 C 
BRANCH  28  29
ATOM     29  C   UNL     1       2.986   6.578  18.379  0.00  0.00    +0.000 A 
ATOM     30  C   UNL     1       2.451   5.281  18.303  0.00  0.00    +0.000 A 
ATOM     31  C   UNL     1       3.054   4.307  17.504  0.00  0.00    +0.000 A 
ATOM     32  C   UNL     1       4.190   4.622  16.760  0.00  0.00    +0.000 A 
ATOM     33  C   UNL     1       4.715   5.911  16.808  0.00  0.00    +0.000 A 
ATOM     34  C   UNL     1       4.111   6.886  17.603  0.00  0.00    +0.000 A 
ENDBRANCH  28  29
ENDBRANCH  11  28
TORSDOF 5
ENDMDL
MODEL 7
REMARK VINA RESULT:      -7.9      2.004      2.468
REMARK  Name = 
REMARK  6 active torsions:
REMARK  status: ('A' for Active; 'I' for Inactive)
REMARK    1  A    between atoms: C_1  and  C_2
REMARK    2  A    between atoms: C_5  and  C_6
REMARK    3  A    between atoms: C_9  and  C_11
REMARK    4  A    between atoms: C_11  and  C_12
REMARK    5  A    between atoms: C_23  and  C_25
REMARK    6  A    between atoms: C_25  and  C_26
REMARK                            x       y       z     vdW  Elec       q    Type
REMARK                         _______ _______ _______ _____ _____    ______ ____
ROOT
ATOM      1  C   UNL     1       1.158  13.204  20.211  0.00  0.00    +0.000 C 
ATOM      2  C   UNL     1      -0.127  14.030  20.356  0.00  0.00    +0.000 C 
ATOM      3  N   UNL     1      -1.201  13.073  20.208  0.00  0.00    +0.000 N 
ATOM      4  C   UNL     1      -2.459  13.335  20.707  0.00  0.00    +0.000 C 
ATOM      5  O   UNL     1      -2.714  14.395  21.285  0.00  0.00    +0.000 OA
ATOM      6  C   UNL     1      -0.793  12.032  19.292  0.00  0.00    +0.000 C 
ATOM      7  C   UNL     1       0.711  11.828  19.587  0.00  0.00    +0.000 C 
ATOM      8  C   UNL     1       1.496  11.402  18.318  0.00  0.00    +0.000 C 
ATOM      9  C   UNL     1       1.146   9.990  17.841  0.00  0.00    +0.000 C 
ATOM     10  N   UNL     1       1.276   9.029  18.930  0.00  0.00    +0.000 N 
ATOM     11  C   UNL     1       2.288   8.073  18.894  0.00  0.00    +0.000 C 
ATOM     12  O   UNL     1       3.095   8.014  17.967  0.00  0.00    +0.000 OA
ATOM     13  C   UNL     1       0.482   9.332  20.116  0.00  0.00    +0.000 C 
ATOM     14  C   UNL     1       0.871  10.707  20.655  0.00  0.00    +0.000 C 
ENDROOT
BRANCH   1  19
ATOM     15  C   UNL     1       2.896  16.641  17.288  0.00  0.00    +0.000 C 
ATOM     16  C   UNL     1       2.947  15.465  18.171  0.00  0.00    +0.000 A 
ATOM     17  N   UNL     1       3.988  14.789  18.605  0.00  0.00    +0.000 NA
ATOM     18  N   UNL     1       3.496  13.805  19.433  0.00  0.00    +0.000 NA
ATOM     19  C   UNL     1       2.187  13.942  19.439  0.00  0.00    +0.000 A 
ATOM     20  O   UNL     1       1.758  14.976  18.652  0.00  0.00    +0.000 OA
ENDBRANCH   1  19
BRANCH   4  21
ATOM     21  C   UNL     1      -3.517  12.240  20.613  0.00  0.00    +0.000 C 
BRANCH  21  22
ATOM     22  C   UNL     1      -4.422  12.442  19.419  0.00  0.00    +0.000 A 
ATOM     23  C   UNL     1      -5.528  13.301  19.512  0.00  0.00    +0.000 A 
ATOM     24  C   UNL     1      -6.416  13.438  18.444  0.00  0.00    +0.000 A 
ATOM     25  C   UNL     1      -6.205  12.724  17.267  0.00  0.00    +0.000 A 
ATOM     26  C   UNL     1      -5.092  11.892  17.149  0.00  0.00    +0.000 A 
ATOM     27  C   UNL     1      -4.201  11.758  18.216  0.00  0.00    +0.000 A 
ENDBRANCH  21  22
ENDBRANCH   4  21
BRANCH  11  28
ATOM     28  C   UNL     1       2.361   7.058  20.035  0.00  0.00    +0.000 C 
BRANCH  28  29
ATOM     29  C   UNL     1       1.921   5.654  19.674  0.00  0.00    +0.000 A 
ATOM     30  C   UNL     1       2.068   5.191  18.356  0.00  0.00    +0.000 A 
ATOM     31  C   UNL     1       1.686   3.892  18.010  0.00  0.00    +0.000 A 
ATOM     32  C   UNL     1       1.168   3.037  18.981  0.00  0.00    +0.000 A 
ATOM     33  C   UNL     1       1.042   3.477  20.296  0.00  0.00    +0.000 A 
ATOM     34  C   UNL     1       1.425   4.772  20.644  0.00  0.00    +0.000 A 
ENDBRANCH  28  29
ENDBRANCH  11  28
TORSDOF 5
ENDMDL
MODEL 8
REMARK VINA RESULT:      -7.8      0.986      1.472
REMARK  Name = 
REMARK  6 active torsions:
REMARK  status: ('A' for Active; 'I' for Inactive)
REMARK    1  A    between atoms: C_1  and  C_2
REMARK    2  A    between atoms: C_5  and  C_6
REMARK    3  A    between atoms: C_9  and  C_11
REMARK    4  A    between atoms: C_11  and  C_12
REMARK    5  A    between atoms: C_23  and  C_25
REMARK    6  A    between atoms: C_25  and  C_26
REMARK                            x       y       z     vdW  Elec       q    Type
REMARK                         _______ _______ _______ _____ _____    ______ ____
ROOT
ATOM      1  C   UNL     1       1.517  13.319  20.322  0.00  0.00    +0.000 C 
ATOM      2  C   UNL     1       0.301  14.236  20.513  0.00  0.00    +0.000 C 
ATOM      3  N   UNL     1      -0.845  13.361  20.393  0.00  0.00    +0.000 N 
ATOM      4  C   UNL     1      -2.064  13.710  20.934  0.00  0.00    +0.000 C 
ATOM      5  O   UNL     1      -2.222  14.780  21.527  0.00  0.00    +0.000 OA
ATOM      6  C   UNL     1      -0.542  12.302  19.458  0.00  0.00    +0.000 C 
ATOM      7  C   UNL     1       0.951  11.985  19.703  0.00  0.00    +0.000 C 
ATOM      8  C   UNL     1       1.663  11.515  18.407  0.00  0.00    +0.000 C 
ATOM      9  C   UNL     1       1.195  10.137  17.931  0.00  0.00    +0.000 C 
ATOM     10  N   UNL     1       1.288   9.159  19.009  0.00  0.00    +0.000 N 
ATOM     11  C   UNL     1       2.225   8.131  18.934  0.00  0.00    +0.000 C 
ATOM     12  O   UNL     1       2.997   8.023  17.981  0.00  0.00    +0.000 OA
ATOM     13  C   UNL     1       0.555   9.508  20.221  0.00  0.00    +0.000 C 
ATOM     14  C   UNL     1       1.061  10.846  20.758  0.00  0.00    +0.000 C 
ENDROOT
BRANCH   1  19
ATOM     15  C   UNL     1       5.910  15.107  19.384  0.00  0.00    +0.000 C 
ATOM     16  C   UNL     1       4.509  14.753  19.110  0.00  0.00    +0.000 A 
ATOM     17  N   UNL     1       3.822  14.856  17.993  0.00  0.00    +0.000 NA
ATOM     18  N   UNL     1       2.569  14.353  18.259  0.00  0.00    +0.000 NA
ATOM     19  C   UNL     1       2.572  13.987  19.523  0.00  0.00    +0.000 A 
ATOM     20  O   UNL     1       3.773  14.217  20.138  0.00  0.00    +0.000 OA
ENDBRANCH   1  19
BRANCH   4  21
ATOM     21  C   UNL     1      -3.201  12.696  20.865  0.00  0.00    +0.000 C 
BRANCH  21  22
ATOM     22  C   UNL     1      -4.052  12.728  22.115  0.00  0.00    +0.000 A 
ATOM     23  C   UNL     1      -3.480  12.439  23.363  0.00  0.00    +0.000 A 
ATOM     24  C   UNL     1      -4.269  12.389  24.514  0.00  0.00    +0.000 A 
ATOM     25  C   UNL     1      -5.636  12.636  24.432  0.00  0.00    +0.000 A 
ATOM     26  C   UNL     1      -6.211  12.957  23.203  0.00  0.00    +0.000 A 
ATOM     27  C   UNL     1      -5.423  13.011  22.052  0.00  0.00    +0.000 A 
ENDBRANCH  21  22
ENDBRANCH   4  21
BRANCH  11  28
ATOM     28  C   UNL     1       2.260   7.103  20.065  0.00  0.00    +0.000 C 
BRANCH  28  29
ATOM     29  C   UNL     1       1.909   5.688  19.655  0.00  0.00    +0.000 A 
ATOM     30  C   UNL     1       1.368   4.800  20.600  0.00  0.00    +0.000 A 
ATOM     31  C   UNL     1       1.019   3.497  20.234  0.00  0.00    +0.000 A 
ATOM     32  C   UNL     1       1.192   3.072  18.918  0.00  0.00    +0.000 A 
ATOM     33  C   UNL     1       1.704   3.952  17.968  0.00  0.00    +0.000 A 
ATOM     34  C   UNL     1       2.049   5.254  18.330  0.00  0.00    +0.000 A 
ENDBRANCH  28  29
ENDBRANCH  11  28
TORSDOF 5
ENDMDL
MODEL 9
REMARK VINA RESULT:      -7.7      1.897      2.572
REMARK  Name = 
REMARK  6 active torsions:
REMARK  status: ('A' for Active; 'I' for Inactive)
REMARK    1  A    between atoms: C_1  and  C_2
REMARK    2  A    between atoms: C_5  and  C_6
REMARK    3  A    between atoms: C_9  and  C_11
REMARK    4  A    between atoms: C_11  and  C_12
REMARK    5  A    between atoms: C_23  and  C_25
REMARK    6  A    between atoms: C_25  and  C_26
REMARK                            x       y       z     vdW  Elec       q    Type
REMARK                         _______ _______ _______ _____ _____    ______ ____
ROOT
ATOM      1  C   UNL     1       1.083  13.077  20.485  0.00  0.00    +0.000 C 
ATOM      2  C   UNL     1      -0.206  13.902  20.606  0.00  0.00    +0.000 C 
ATOM      3  N   UNL     1      -1.275  12.956  20.377  0.00  0.00    +0.000 N 
ATOM      4  C   UNL     1      -2.552  13.203  20.831  0.00  0.00    +0.000 C 
ATOM      5  O   UNL     1      -2.829  14.242  21.438  0.00  0.00    +0.000 OA
ATOM      6  C   UNL     1      -0.830  11.949  19.440  0.00  0.00    +0.000 C 
ATOM      7  C   UNL     1       0.660  11.728  19.791  0.00  0.00    +0.000 C 
ATOM      8  C   UNL     1       1.497  11.348  18.541  0.00  0.00    +0.000 C 
ATOM      9  C   UNL     1       1.164   9.956  17.995  0.00  0.00    +0.000 C 
ATOM     10  N   UNL     1       1.245   8.953  19.052  0.00  0.00    +0.000 N 
ATOM     11  C   UNL     1       2.256   7.995  19.022  0.00  0.00    +0.000 C 
ATOM     12  O   UNL     1       3.102   7.969  18.129  0.00  0.00    +0.000 OA
ATOM     13  C   UNL     1       0.402   9.214  20.213  0.00  0.00    +0.000 C 
ATOM     14  C   UNL     1       0.771  10.566  20.821  0.00  0.00    +0.000 C 
ENDROOT
BRANCH   1  19
ATOM     15  C   UNL     1       2.926  16.303  17.391  0.00  0.00    +0.000 C 
ATOM     16  C   UNL     1       2.947  15.272  18.440  0.00  0.00    +0.000 A 
ATOM     17  N   UNL     1       3.962  14.806  19.136  0.00  0.00    +0.000 NA
ATOM     18  N   UNL     1       3.441  13.883  20.014  0.00  0.00    +0.000 NA
ATOM     19  C   UNL     1       2.145  13.840  19.787  0.00  0.00    +0.000 A 
ATOM     20  O   UNL     1       1.753  14.694  18.791  0.00  0.00    +0.000 OA
ENDBRANCH   1  19
BRANCH   4  21
ATOM     21  C   UNL     1      -3.607  12.116  20.650  0.00  0.00    +0.000 C 
BRANCH  21  22
ATOM     22  C   UNL     1      -4.616  12.492  19.588  0.00  0.00    +0.000 A 
ATOM     23  C   UNL     1      -4.632  11.813  18.360  0.00  0.00    +0.000 A 
ATOM     24  C   UNL     1      -5.506  12.200  17.343  0.00  0.00    +0.000 A 
ATOM     25  C   UNL     1      -6.380  13.264  17.544  0.00  0.00    +0.000 A 
ATOM     26  C   UNL     1      -6.399  13.926  18.772  0.00  0.00    +0.000 A 
ATOM     27  C   UNL     1      -5.528  13.537  19.792  0.00  0.00    +0.000 A 
ENDBRANCH  21  22
ENDBRANCH   4  21
BRANCH  11  28
ATOM     28  C   UNL     1       2.278   6.938  20.126  0.00  0.00    +0.000 C 
BRANCH  28  29
ATOM     29  C   UNL     1       1.901   5.539  19.682  0.00  0.00    +0.000 A 
ATOM     30  C   UNL     1       1.404   4.617  20.618  0.00  0.00    +0.000 A 
ATOM     31  C   UNL     1       1.031   3.330  20.222  0.00  0.00    +0.000 A 
ATOM     32  C   UNL     1       1.135   2.956  18.884  0.00  0.00    +0.000 A 
ATOM     33  C   UNL     1       1.602   3.870  17.943  0.00  0.00    +0.000 A 
ATOM     34  C   UNL     1       1.972   5.156  18.335  0.00  0.00    +0.000 A 
ENDBRANCH  28  29
ENDBRANCH  11  28
TORSDOF 5
ENDMDL
