MODEL 1
REMARK VINA RESULT:      -9.6      0.000      0.000
REMARK  Name = 
REMARK  6 active torsions:
REMARK  status: ('A' for Active; 'I' for Inactive)
REMARK    1  A    between atoms: C_1  and  N_2
REMARK    2  A    between atoms: N_2  and  C_3
REMARK    3  A    between atoms: C_4  and  C_6
REMARK    4  A    between atoms: C_9  and  N_10
REMARK    5  A    between atoms: C_11  and  C_13
REMARK    6  A    between atoms: N_17  and  C_18
REMARK                            x       y       z     vdW  Elec       q    Type
REMARK                         _______ _______ _______ _____ _____    ______ ____
ROOT
ATOM      1  N   UNL     1       2.289   6.476  20.796  0.00  0.00    +0.000 N 
ATOM      2  C   UNL     1       1.667   5.242  20.749  0.00  0.00    +0.000 C 
ATOM      3  O   UNL     1       0.493   5.086  20.394  0.00  0.00    +0.000 OA
ATOM      4  H   UNL     1       3.160   6.538  21.267  0.00  0.00    +0.000 HD
ENDROOT
BRANCH   1   8
ATOM      5  C   UNL     1       0.650  10.076  19.135  0.00  0.00    +0.000 A 
ATOM      6  C   UNL     1       0.317   9.689  20.431  0.00  0.00    +0.000 A 
ATOM      7  C   UNL     1       0.850   8.521  20.996  0.00  0.00    +0.000 A 
ATOM      8  C   UNL     1       1.703   7.678  20.272  0.00  0.00    +0.000 A 
ATOM      9  C   UNL     1       1.952   8.033  18.934  0.00  0.00    +0.000 A 
ATOM     10  F   UNL     1       2.712   7.227  18.173  0.00  0.00    +0.000 F 
ATOM     11  C   UNL     1       1.443   9.213  18.366  0.00  0.00    +0.000 A 
BRANCH   5  15
ATOM     12  C   UNL     1      -0.150  13.830  18.876  0.00  0.00    +0.000 C 
ATOM     13  N   UNL     1       0.646  12.603  18.903  0.00  0.00    +0.000 N 
ATOM     14  C   UNL     1       2.083  12.796  19.096  0.00  0.00    +0.000 C 
ATOM     15  C   UNL     1       0.100  11.367  18.565  0.00  0.00    +0.000 C 
ATOM     16  N   UNL     1      -0.916  11.243  17.763  0.00  0.00    +0.000 NA
ATOM     17  H   UNL     1      -1.195  12.164  17.420  0.00  0.00    +0.000 HD
ENDBRANCH   5  15
ENDBRANCH   1   8
BRANCH   2  18
ATOM     18  C   UNL     1       2.424   4.032  21.055  0.00  0.00    +0.000 A 
ATOM     19  N   UNL     1       2.336   3.372  22.186  0.00  0.00    +0.000 NA
ATOM     20  N   UNL     1       2.944   2.166  21.938  0.00  0.00    +0.000 NA
ATOM     21  N   UNL     1       3.428   2.098  20.701  0.00  0.00    +0.000 NA
ATOM     22  N   UNL     1       3.206   3.316  20.155  0.00  0.00    +0.000 N 
BRANCH  22  23
ATOM     23  C   UNL     1       3.881   3.774  18.990  0.00  0.00    +0.000 A 
ATOM     24  C   UNL     1       4.997   4.574  19.131  0.00  0.00    +0.000 A 
ATOM     25  C   UNL     1       5.725   5.037  18.058  0.00  0.00    +0.000 A 
ATOM     26  C   UNL     1       6.684   6.008  18.294  0.00  0.00    +0.000 A 
ATOM     27  C   UNL     1       7.327   6.583  17.218  0.00  0.00    +0.000 A 
ATOM     28  C   UNL     1       7.384   5.906  16.011  0.00  0.00    +0.000 A 
ATOM     29  C   UNL     1       6.362   5.014  15.735  0.00  0.00    +0.000 A 
ATOM     30  C   UNL     1       5.436   4.616  16.743  0.00  0.00    +0.000 A 
ATOM     31  C   UNL     1       4.276   3.839  16.562  0.00  0.00    +0.000 A 
ATOM     32  C   UNL     1       3.510   3.418  17.673  0.00  0.00    +0.000 A 
ATOM     33  F   UNL     1       2.404   2.701  17.438  0.00  0.00    +0.000 F 
ENDBRANCH  22  23
ENDBRANCH   2  18
TORSDOF 4
ENDMDL
MODEL 2
REMARK VINA RESULT:      -9.5      0.824      1.189
REMARK  Name = 
REMARK  6 active torsions:
REMARK  status: ('A' for Active; 'I' for Inactive)
REMARK    1  A    between atoms: C_1  and  N_2
REMARK    2  A    between atoms: N_2  and  C_3
REMARK    3  A    between atoms: C_4  and  C_6
REMARK    4  A    between atoms: C_9  and  N_10
REMARK    5  A    between atoms: C_11  and  C_13
REMARK    6  A    between atoms: N_17  and  C_18
REMARK                            x       y       z     vdW  Elec       q    Type
REMARK                         _______ _______ _______ _____ _____    ______ ____
ROOT
ATOM      1  N   UNL     1       2.443   6.502  20.567  0.00  0.00    +0.000 N 
ATOM      2  C   UNL     1       1.740   5.316  20.683  0.00  0.00    +0.000 C 
ATOM      3  O   UNL     1       0.529   5.220  20.454  0.00  0.00    +0.000 OA
ATOM      4  H   UNL     1       3.359   6.536  20.948  0.00  0.00    +0.000 HD
ENDROOT
BRANCH   1   8
ATOM      5  C   UNL     1       0.684  10.081  18.988  0.00  0.00    +0.000 A 
ATOM      6  C   UNL     1       1.450   9.257  18.166  0.00  0.00    +0.000 A 
ATOM      7  C   UNL     1       2.025   8.076  18.661  0.00  0.00    +0.000 A 
ATOM      8  C   UNL     1       1.888   7.700  20.003  0.00  0.00    +0.000 A 
ATOM      9  C   UNL     1       1.193   8.592  20.840  0.00  0.00    +0.000 A 
ATOM     10  F   UNL     1       1.087   8.312  22.150  0.00  0.00    +0.000 F 
ATOM     11  C   UNL     1       0.593   9.763  20.350  0.00  0.00    +0.000 A 
BRANCH   5  15
ATOM     12  C   UNL     1      -0.258  13.794  18.624  0.00  0.00    +0.000 C 
ATOM     13  N   UNL     1       0.574  12.590  18.625  0.00  0.00    +0.000 N 
ATOM     14  C   UNL     1       2.017  12.830  18.641  0.00  0.00    +0.000 C 
ATOM     15  C   UNL     1       0.033  11.323  18.418  0.00  0.00    +0.000 C 
ATOM     16  N   UNL     1      -1.064  11.130  17.745  0.00  0.00    +0.000 NA
ATOM     17  H   UNL     1      -1.408  12.022  17.388  0.00  0.00    +0.000 HD
ENDBRANCH   5  15
ENDBRANCH   1   8
BRANCH   2  18
ATOM     18  C   UNL     1       2.443   4.081  21.016  0.00  0.00    +0.000 A 
ATOM     19  N   UNL     1       2.333   3.456  22.165  0.00  0.00    +0.000 NA
ATOM     20  N   UNL     1       2.883   2.217  21.946  0.00  0.00    +0.000 NA
ATOM     21  N   UNL     1       3.354   2.095  20.708  0.00  0.00    +0.000 NA
ATOM     22  N   UNL     1       3.185   3.306  20.131  0.00  0.00    +0.000 N 
BRANCH  22  23
ATOM     23  C   UNL     1       3.872   3.702  18.950  0.00  0.00    +0.000 A 
ATOM     24  C   UNL     1       4.981   4.516  19.060  0.00  0.00    +0.000 A 
ATOM     25  C   UNL     1       5.720   4.923  17.971  0.00  0.00    +0.000 A 
ATOM     26  C   UNL     1       6.670   5.911  18.163  0.00  0.00    +0.000 A 
ATOM     27  C   UNL     1       7.323   6.429  17.065  0.00  0.00    +0.000 A 
ATOM     28  C   UNL     1       7.400   5.684  15.899  0.00  0.00    +0.000 A 
ATOM     29  C   UNL     1       6.387   4.772  15.661  0.00  0.00    +0.000 A 
ATOM     30  C   UNL     1       5.450   4.426  16.679  0.00  0.00    +0.000 A 
ATOM     31  C   UNL     1       4.297   3.632  16.528  0.00  0.00    +0.000 A 
ATOM     32  C   UNL     1       3.520   3.270  17.651  0.00  0.00    +0.000 A 
ATOM     33  F   UNL     1       2.421   2.534  17.443  0.00  0.00    +0.000 F 
ENDBRANCH  22  23
ENDBRANCH   2  18
TORSDOF 4
ENDMDL
MODEL 3
REMARK VINA RESULT:      -8.8      1.581      2.368
REMARK  Name = 
REMARK  6 active torsions:
REMARK  status: ('A' for Active; 'I' for Inactive)
REMARK    1  A    between atoms: C_1  and  N_2
REMARK    2  A    between atoms: N_2  and  C_3
REMARK    3  A    between atoms: C_4  and  C_6
REMARK    4  A    between atoms: C_9  and  N_10
REMARK    5  A    between atoms: C_11  and  C_13
REMARK    6  A    between atoms: N_17  and  C_18
REMARK                            x       y       z     vdW  Elec       q    Type
REMARK                         _______ _______ _______ _____ _____    ______ ____
ROOT
ATOM      1  N   UNL     1       2.296   6.584  20.254  0.00  0.00    +0.000 N 
ATOM      2  C   UNL     1       2.396   5.468  19.444  0.00  0.00    +0.000 C 
ATOM      3  O   UNL     1       1.981   5.434  18.280  0.00  0.00    +0.000 OA
ATOM      4  H   UNL     1       2.477   6.471  21.223  0.00  0.00    +0.000 HD
ENDROOT
BRANCH   1   8
ATOM      5  C   UNL     1       0.905  10.424  18.940  0.00  0.00    +0.000 A 
ATOM      6  C   UNL     1       1.658   9.623  18.084  0.00  0.00    +0.000 A 
ATOM      7  C   UNL     1       2.113   8.359  18.491  0.00  0.00    +0.000 A 
ATOM      8  C   UNL     1       1.866   7.870  19.780  0.00  0.00    +0.000 A 
ATOM      9  C   UNL     1       1.189   8.732  20.661  0.00  0.00    +0.000 A 
ATOM     10  F   UNL     1       0.982   8.340  21.930  0.00  0.00    +0.000 F 
ATOM     11  C   UNL     1       0.708   9.988  20.257  0.00  0.00    +0.000 A 
BRANCH   5  15
ATOM     12  C   UNL     1       0.395  14.235  18.798  0.00  0.00    +0.000 C 
ATOM     13  N   UNL     1       1.078  12.944  18.704  0.00  0.00    +0.000 N 
ATOM     14  C   UNL     1       2.539  13.014  18.666  0.00  0.00    +0.000 C 
ATOM     15  C   UNL     1       0.384  11.762  18.460  0.00  0.00    +0.000 C 
ATOM     16  N   UNL     1      -0.753  11.733  17.829  0.00  0.00    +0.000 NA
ATOM     17  H   UNL     1      -1.004  12.677  17.532  0.00  0.00    +0.000 HD
ENDBRANCH   5  15
ENDBRANCH   1   8
BRANCH   2  18
ATOM     18  C   UNL     1       3.085   4.276  19.928  0.00  0.00    +0.000 A 
ATOM     19  N   UNL     1       2.759   3.625  21.020  0.00  0.00    +0.000 NA
ATOM     20  N   UNL     1       3.427   2.428  20.930  0.00  0.00    +0.000 NA
ATOM     21  N   UNL     1       4.175   2.359  19.833  0.00  0.00    +0.000 NA
ATOM     22  N   UNL     1       4.061   3.567  19.234  0.00  0.00    +0.000 N 
BRANCH  22  23
ATOM     23  C   UNL     1       4.972   4.027  18.243  0.00  0.00    +0.000 A 
ATOM     24  C   UNL     1       4.753   3.691  16.923  0.00  0.00    +0.000 A 
ATOM     25  C   UNL     1       5.569   4.116  15.899  0.00  0.00    +0.000 A 
ATOM     26  C   UNL     1       5.396   3.545  14.649  0.00  0.00    +0.000 A 
ATOM     27  C   UNL     1       6.289   3.856  13.646  0.00  0.00    +0.000 A 
ATOM     28  C   UNL     1       7.019   5.031  13.717  0.00  0.00    +0.000 A 
ATOM     29  C   UNL     1       7.281   5.539  14.978  0.00  0.00    +0.000 A 
ATOM     30  C   UNL     1       6.618   5.029  16.133  0.00  0.00    +0.000 A 
ATOM     31  C   UNL     1       6.896   5.353  17.475  0.00  0.00    +0.000 A 
ATOM     32  C   UNL     1       6.078   4.862  18.518  0.00  0.00    +0.000 A 
ATOM     33  F   UNL     1       6.405   5.183  19.776  0.00  0.00    +0.000 F 
ENDBRANCH  22  23
ENDBRANCH   2  18
TORSDOF 4
ENDMDL
MODEL 4
REMARK VINA RESULT:      -8.7      0.798      1.239
REMARK  Name = 
REMARK  6 active torsions:
REMARK  status: ('A' for Active; 'I' for Inactive)
REMARK    1  A    between atoms: C_1  and  N_2
REMARK    2  A    between atoms: N_2  and  C_3
REMARK    3  A    between atoms: C_4  and  C_6
REMARK    4  A    between atoms: C_9  and  N_10
REMARK    5  A    between atoms: C_11  and  C_13
REMARK    6  A    between atoms: N_17  and  C_18
REMARK                            x       y       z     vdW  Elec       q    Type
REMARK                         _______ _______ _______ _____ _____    ______ ____
ROOT
ATOM      1  N   UNL     1       2.135   6.203  21.196  0.00  0.00    +0.000 N 
ATOM      2  C   UNL     1       1.675   4.951  20.829  0.00  0.00    +0.000 C 
ATOM      3  O   UNL     1       0.603   4.768  20.240  0.00  0.00    +0.000 OA
ATOM      4  H   UNL     1       2.901   6.248  21.825  0.00  0.00    +0.000 HD
ENDROOT
BRANCH   1   8
ATOM      5  C   UNL     1       0.397   9.896  19.874  0.00  0.00    +0.000 A 
ATOM      6  C   UNL     1      -0.050   9.293  21.049  0.00  0.00    +0.000 A 
ATOM      7  C   UNL     1       0.513   8.091  21.503  0.00  0.00    +0.000 A 
ATOM      8  C   UNL     1       1.513   7.428  20.780  0.00  0.00    +0.000 A 
ATOM      9  C   UNL     1       1.884   8.000  19.550  0.00  0.00    +0.000 A 
ATOM     10  F   UNL     1       2.792   7.372  18.784  0.00  0.00    +0.000 F 
ATOM     11  C   UNL     1       1.344   9.215  19.097  0.00  0.00    +0.000 A 
BRANCH   5  15
ATOM     12  C   UNL     1      -1.206  12.512  17.553  0.00  0.00    +0.000 C 
ATOM     13  N   UNL     1      -1.079  11.298  18.361  0.00  0.00    +0.000 N 
ATOM     14  C   UNL     1      -2.089  10.271  18.105  0.00  0.00    +0.000 C 
ATOM     15  C   UNL     1      -0.191  11.218  19.431  0.00  0.00    +0.000 C 
ATOM     16  N   UNL     1       0.200  12.264  20.099  0.00  0.00    +0.000 NA
ATOM     17  H   UNL     1      -0.269  13.095  19.737  0.00  0.00    +0.000 HD
ENDBRANCH   5  15
ENDBRANCH   1   8
BRANCH   2  18
ATOM     18  C   UNL     1       2.502   3.772  21.064  0.00  0.00    +0.000 A 
ATOM     19  N   UNL     1       2.462   3.048  22.159  0.00  0.00    +0.000 NA
ATOM     20  N   UNL     1       3.135   1.894  21.842  0.00  0.00    +0.000 NA
ATOM     21  N   UNL     1       3.610   1.920  20.600  0.00  0.00    +0.000 NA
ATOM     22  N   UNL     1       3.315   3.151  20.121  0.00  0.00    +0.000 N 
BRANCH  22  23
ATOM     23  C   UNL     1       3.952   3.708  18.979  0.00  0.00    +0.000 A 
ATOM     24  C   UNL     1       5.071   4.497  19.152  0.00  0.00    +0.000 A 
ATOM     25  C   UNL     1       5.763   5.053  18.100  0.00  0.00    +0.000 A 
ATOM     26  C   UNL     1       6.728   6.004  18.386  0.00  0.00    +0.000 A 
ATOM     27  C   UNL     1       7.336   6.670  17.344  0.00  0.00    +0.000 A 
ATOM     28  C   UNL     1       7.356   6.098  16.082  0.00  0.00    +0.000 A 
ATOM     29  C   UNL     1       6.326   5.229  15.764  0.00  0.00    +0.000 A 
ATOM     30  C   UNL     1       5.433   4.744  16.764  0.00  0.00    +0.000 A 
ATOM     31  C   UNL     1       4.268   3.980  16.554  0.00  0.00    +0.000 A 
ATOM     32  C   UNL     1       3.539   3.463  17.649  0.00  0.00    +0.000 A 
ATOM     33  F   UNL     1       2.427   2.765  17.389  0.00  0.00    +0.000 F 
ENDBRANCH  22  23
ENDBRANCH   2  18
TORSDOF 4
ENDMDL
MODEL 5
REMARK VINA RESULT:      -8.7      1.254      1.964
REMARK  Name = 
REMARK  6 active torsions:
REMARK  status: ('A' for Active; 'I' for Inactive)
REMARK    1  A    between atoms: C_1  and  N_2
REMARK    2  A    between atoms: N_2  and  C_3
REMARK    3  A    between atoms: C_4  and  C_6
REMARK    4  A    between atoms: C_9  and  N_10
REMARK    5  A    between atoms: C_11  and  C_13
REMARK    6  A    between atoms: N_17  and  C_18
REMARK                            x       y       z     vdW  Elec       q    Type
REMARK                         _______ _______ _______ _____ _____    ______ ____
ROOT
ATOM      1  N   UNL     1       2.800   6.205  20.396  0.00  0.00    +0.000 N 
ATOM      2  C   UNL     1       2.418   4.918  20.065  0.00  0.00    +0.000 C 
ATOM      3  O   UNL     1       1.382   4.657  19.443  0.00  0.00    +0.000 OA
ATOM      4  H   UNL     1       3.537   6.315  21.052  0.00  0.00    +0.000 HD
ENDROOT
BRANCH   1   8
ATOM      5  C   UNL     1       0.922   9.730  18.831  0.00  0.00    +0.000 A 
ATOM      6  C   UNL     1       0.650   9.312  20.132  0.00  0.00    +0.000 A 
ATOM      7  C   UNL     1       1.263   8.168  20.666  0.00  0.00    +0.000 A 
ATOM      8  C   UNL     1       2.136   7.380  19.906  0.00  0.00    +0.000 A 
ATOM      9  C   UNL     1       2.324   7.762  18.565  0.00  0.00    +0.000 A 
ATOM     10  F   UNL     1       3.100   7.005  17.772  0.00  0.00    +0.000 F 
ATOM     11  C   UNL     1       1.735   8.918  18.028  0.00  0.00    +0.000 A 
BRANCH   5  15
ATOM     12  C   UNL     1       0.016  13.461  18.577  0.00  0.00    +0.000 C 
ATOM     13  N   UNL     1       0.837  12.250  18.547  0.00  0.00    +0.000 N 
ATOM     14  C   UNL     1       2.282  12.476  18.584  0.00  0.00    +0.000 C 
ATOM     15  C   UNL     1       0.287  10.996  18.295  0.00  0.00    +0.000 C 
ATOM     16  N   UNL     1      -0.804  10.833  17.606  0.00  0.00    +0.000 NA
ATOM     17  H   UNL     1      -1.138  11.739  17.275  0.00  0.00    +0.000 HD
ENDBRANCH   5  15
ENDBRANCH   1   8
BRANCH   2  18
ATOM     18  C   UNL     1       3.292   3.793  20.381  0.00  0.00    +0.000 A 
ATOM     19  N   UNL     1       3.163   3.033  21.444  0.00  0.00    +0.000 NA
ATOM     20  N   UNL     1       3.956   1.940  21.193  0.00  0.00    +0.000 NA
ATOM     21  N   UNL     1       4.587   2.041  20.027  0.00  0.00    +0.000 NA
ATOM     22  N   UNL     1       4.266   3.262  19.541  0.00  0.00    +0.000 N 
BRANCH  22  23
ATOM     23  C   UNL     1       5.005   3.900  18.507  0.00  0.00    +0.000 A 
ATOM     24  C   UNL     1       4.858   3.460  17.207  0.00  0.00    +0.000 A 
ATOM     25  C   UNL     1       5.514   4.039  16.144  0.00  0.00    +0.000 A 
ATOM     26  C   UNL     1       5.475   3.388  14.923  0.00  0.00    +0.000 A 
ATOM     27  C   UNL     1       6.236   3.876  13.883  0.00  0.00    +0.000 A 
ATOM     28  C   UNL     1       6.632   5.204  13.888  0.00  0.00    +0.000 A 
ATOM     29  C   UNL     1       6.773   5.819  15.119  0.00  0.00    +0.000 A 
ATOM     30  C   UNL     1       6.290   5.205  16.312  0.00  0.00    +0.000 A 
ATOM     31  C   UNL     1       6.497   5.649  17.632  0.00  0.00    +0.000 A 
ATOM     32  C   UNL     1       5.858   5.008  18.717  0.00  0.00    +0.000 A 
ATOM     33  F   UNL     1       6.112   5.460  19.951  0.00  0.00    +0.000 F 
ENDBRANCH  22  23
ENDBRANCH   2  18
TORSDOF 4
ENDMDL
MODEL 6
REMARK VINA RESULT:      -8.7      2.111      3.140
REMARK  Name = 
REMARK  6 active torsions:
REMARK  status: ('A' for Active; 'I' for Inactive)
REMARK    1  A    between atoms: C_1  and  N_2
REMARK    2  A    between atoms: N_2  and  C_3
REMARK    3  A    between atoms: C_4  and  C_6
REMARK    4  A    between atoms: C_9  and  N_10
REMARK    5  A    between atoms: C_11  and  C_13
REMARK    6  A    between atoms: N_17  and  C_18
REMARK                            x       y       z     vdW  Elec       q    Type
REMARK                         _______ _______ _______ _____ _____    ______ ____
ROOT
ATOM      1  N   UNL     1       2.319   6.144  18.435  0.00  0.00    +0.000 N 
ATOM      2  C   UNL     1       3.483   5.532  18.862  0.00  0.00    +0.000 C 
ATOM      3  O   UNL     1       4.419   6.148  19.387  0.00  0.00    +0.000 OA
ATOM      4  H   UNL     1       1.705   5.618  17.859  0.00  0.00    +0.000 HD
ENDROOT
BRANCH   1   8
ATOM      5  C   UNL     1       1.257  10.194  19.365  0.00  0.00    +0.000 A 
ATOM      6  C   UNL     1       1.821   9.886  18.129  0.00  0.00    +0.000 A 
ATOM      7  C   UNL     1       2.165   8.565  17.801  0.00  0.00    +0.000 A 
ATOM      8  C   UNL     1       1.996   7.515  18.712  0.00  0.00    +0.000 A 
ATOM      9  C   UNL     1       1.516   7.859  19.989  0.00  0.00    +0.000 A 
ATOM     10  F   UNL     1       1.395   6.901  20.923  0.00  0.00    +0.000 F 
ATOM     11  C   UNL     1       1.146   9.173  20.319  0.00  0.00    +0.000 A 
BRANCH   5  15
ATOM     12  C   UNL     1      -0.141  13.732  18.791  0.00  0.00    +0.000 C 
ATOM     13  N   UNL     1      -0.127  12.276  18.930  0.00  0.00    +0.000 N 
ATOM     14  C   UNL     1      -1.314  11.590  18.419  0.00  0.00    +0.000 C 
ATOM     15  C   UNL     1       0.848  11.619  19.676  0.00  0.00    +0.000 C 
ATOM     16  N   UNL     1       1.477  12.185  20.664  0.00  0.00    +0.000 NA
ATOM     17  H   UNL     1       1.114  13.129  20.804  0.00  0.00    +0.000 HD
ENDBRANCH   5  15
ENDBRANCH   1   8
BRANCH   2  18
ATOM     18  C   UNL     1       3.621   4.082  18.775  0.00  0.00    +0.000 A 
ATOM     19  N   UNL     1       3.079   3.236  19.619  0.00  0.00    +0.000 NA
ATOM     20  N   UNL     1       3.181   2.012  19.005  0.00  0.00    +0.000 NA
ATOM     21  N   UNL     1       3.803   2.094  17.833  0.00  0.00    +0.000 NA
ATOM     22  N   UNL     1       4.191   3.385  17.714  0.00  0.00    +0.000 N 
BRANCH  22  23
ATOM     23  C   UNL     1       5.186   3.811  16.791  0.00  0.00    +0.000 A 
ATOM     24  C   UNL     1       4.959   3.649  15.439  0.00  0.00    +0.000 A 
ATOM     25  C   UNL     1       5.856   4.058  14.478  0.00  0.00    +0.000 A 
ATOM     26  C   UNL     1       5.641   3.651  13.172  0.00  0.00    +0.000 A 
ATOM     27  C   UNL     1       6.597   3.933  12.220  0.00  0.00    +0.000 A 
ATOM     28  C   UNL     1       7.483   4.978  12.427  0.00  0.00    +0.000 A 
ATOM     29  C   UNL     1       7.777   5.309  13.738  0.00  0.00    +0.000 A 
ATOM     30  C   UNL     1       7.017   4.782  14.822  0.00  0.00    +0.000 A 
ATOM     31  C   UNL     1       7.299   4.920  16.195  0.00  0.00    +0.000 A 
ATOM     32  C   UNL     1       6.391   4.445  17.168  0.00  0.00    +0.000 A 
ATOM     33  F   UNL     1       6.724   4.583  18.458  0.00  0.00    +0.000 F 
ENDBRANCH  22  23
ENDBRANCH   2  18
TORSDOF 4
ENDMDL
MODEL 7
REMARK VINA RESULT:      -8.6      1.100      1.740
REMARK  Name = 
REMARK  6 active torsions:
REMARK  status: ('A' for Active; 'I' for Inactive)
REMARK    1  A    between atoms: C_1  and  N_2
REMARK    2  A    between atoms: N_2  and  C_3
REMARK    3  A    between atoms: C_4  and  C_6
REMARK    4  A    between atoms: C_9  and  N_10
REMARK    5  A    between atoms: C_11  and  C_13
REMARK    6  A    between atoms: N_17  and  C_18
REMARK                            x       y       z     vdW  Elec       q    Type
REMARK                         _______ _______ _______ _____ _____    ______ ____
ROOT
ATOM      1  N   UNL     1       2.474   6.374  20.554  0.00  0.00    +0.000 N 
ATOM      2  C   UNL     1       1.817   5.165  20.690  0.00  0.00    +0.000 C 
ATOM      3  O   UNL     1       0.605   5.025  20.485  0.00  0.00    +0.000 OA
ATOM      4  H   UNL     1       3.396   6.443  20.917  0.00  0.00    +0.000 HD
ENDROOT
BRANCH   1   8
ATOM      5  C   UNL     1       0.558   9.878  18.988  0.00  0.00    +0.000 A 
ATOM      6  C   UNL     1       1.347   9.083  18.159  0.00  0.00    +0.000 A 
ATOM      7  C   UNL     1       1.974   7.926  18.650  0.00  0.00    +0.000 A 
ATOM      8  C   UNL     1       1.867   7.548  19.994  0.00  0.00    +0.000 A 
ATOM      9  C   UNL     1       1.147   8.414  20.837  0.00  0.00    +0.000 A 
ATOM     10  F   UNL     1       1.066   8.133  22.148  0.00  0.00    +0.000 F 
ATOM     11  C   UNL     1       0.496   9.560  20.352  0.00  0.00    +0.000 A 
BRANCH   5  15
ATOM     12  C   UNL     1      -1.882  11.933  16.838  0.00  0.00    +0.000 C 
ATOM     13  N   UNL     1      -1.422  11.002  17.869  0.00  0.00    +0.000 N 
ATOM     14  C   UNL     1      -2.453  10.124  18.422  0.00  0.00    +0.000 C 
ATOM     15  C   UNL     1      -0.147  11.092  18.423  0.00  0.00    +0.000 C 
ATOM     16  N   UNL     1       0.519  12.208  18.474  0.00  0.00    +0.000 NA
ATOM     17  H   UNL     1      -0.050  12.964  18.090  0.00  0.00    +0.000 HD
ENDBRANCH   5  15
ENDBRANCH   1   8
BRANCH   2  18
ATOM     18  C   UNL     1       2.569   3.958  21.017  0.00  0.00    +0.000 A 
ATOM     19  N   UNL     1       2.479   3.318  22.160  0.00  0.00    +0.000 NA
ATOM     20  N   UNL     1       3.082   2.105  21.932  0.00  0.00    +0.000 NA
ATOM     21  N   UNL     1       3.565   2.015  20.697  0.00  0.00    +0.000 NA
ATOM     22  N   UNL     1       3.349   3.223  20.129  0.00  0.00    +0.000 N 
BRANCH  22  23
ATOM     23  C   UNL     1       4.026   3.659  18.957  0.00  0.00    +0.000 A 
ATOM     24  C   UNL     1       5.096   4.521  19.081  0.00  0.00    +0.000 A 
ATOM     25  C   UNL     1       5.823   4.970  18.001  0.00  0.00    +0.000 A 
ATOM     26  C   UNL     1       6.726   5.999  18.207  0.00  0.00    +0.000 A 
ATOM     27  C   UNL     1       7.363   6.554  17.118  0.00  0.00    +0.000 A 
ATOM     28  C   UNL     1       7.482   5.823  15.948  0.00  0.00    +0.000 A 
ATOM     29  C   UNL     1       6.513   4.867  15.695  0.00  0.00    +0.000 A 
ATOM     30  C   UNL     1       5.586   4.471  16.703  0.00  0.00    +0.000 A 
ATOM     31  C   UNL     1       4.471   3.627  16.538  0.00  0.00    +0.000 A 
ATOM     32  C   UNL     1       3.703   3.221  17.653  0.00  0.00    +0.000 A 
ATOM     33  F   UNL     1       2.640   2.438  17.431  0.00  0.00    +0.000 F 
ENDBRANCH  22  23
ENDBRANCH   2  18
TORSDOF 4
ENDMDL
MODEL 8
REMARK VINA RESULT:      -8.1      2.101      3.005
REMARK  Name = 
REMARK  6 active torsions:
REMARK  status: ('A' for Active; 'I' for Inactive)
REMARK    1  A    between atoms: C_1  and  N_2
REMARK    2  A    between atoms: N_2  and  C_3
REMARK    3  A    between atoms: C_4  and  C_6
REMARK    4  A    between atoms: C_9  and  N_10
REMARK    5  A    between atoms: C_11  and  C_13
REMARK    6  A    between atoms: N_17  and  C_18
REMARK                            x       y       z     vdW  Elec       q    Type
REMARK                         _______ _______ _______ _____ _____    ______ ____
ROOT
ATOM      1  N   UNL     1       2.213   6.690  19.085  0.00  0.00    +0.000 N 
ATOM      2  C   UNL     1       3.445   6.183  18.713  0.00  0.00    +0.000 C 
ATOM      3  O   UNL     1       4.307   6.854  18.132  0.00  0.00    +0.000 OA
ATOM      4  H   UNL     1       1.515   6.045  19.372  0.00  0.00    +0.000 HD
ENDROOT
BRANCH   1   8
ATOM      5  C   UNL     1       1.085  10.826  18.935  0.00  0.00    +0.000 A 
ATOM      6  C   UNL     1       1.748  10.242  17.857  0.00  0.00    +0.000 A 
ATOM      7  C   UNL     1       2.116   8.888  17.882  0.00  0.00    +0.000 A 
ATOM      8  C   UNL     1       1.871   8.082  19.001  0.00  0.00    +0.000 A 
ATOM      9  C   UNL     1       1.289   8.712  20.116  0.00  0.00    +0.000 A 
ATOM     10  F   UNL     1       1.090   8.001  21.239  0.00  0.00    +0.000 F 
ATOM     11  C   UNL     1       0.895  10.059  20.092  0.00  0.00    +0.000 A 
BRANCH   5  15
ATOM     12  C   UNL     1       0.397  14.427  20.103  0.00  0.00    +0.000 C 
ATOM     13  N   UNL     1       1.158  13.230  19.745  0.00  0.00    +0.000 N 
ATOM     14  C   UNL     1       2.548  13.216  20.200  0.00  0.00    +0.000 C 
ATOM     15  C   UNL     1       0.655  12.276  18.863  0.00  0.00    +0.000 C 
ATOM     16  N   UNL     1      -0.220  12.561  17.945  0.00  0.00    +0.000 NA
ATOM     17  H   UNL     1      -0.426  13.561  17.966  0.00  0.00    +0.000 HD
ENDBRANCH   5  15
ENDBRANCH   1   8
BRANCH   2  18
ATOM     18  C   UNL     1       3.811   4.817  19.072  0.00  0.00    +0.000 A 
ATOM     19  N   UNL     1       3.423   4.213  20.171  0.00  0.00    +0.000 NA
ATOM     20  N   UNL     1       3.710   2.886  19.964  0.00  0.00    +0.000 NA
ATOM     21  N   UNL     1       4.293   2.682  18.786  0.00  0.00    +0.000 NA
ATOM     22  N   UNL     1       4.468   3.911  18.247  0.00  0.00    +0.000 N 
BRANCH  22  23
ATOM     23  C   UNL     1       5.368   4.162  17.174  0.00  0.00    +0.000 A 
ATOM     24  C   UNL     1       4.959   3.906  15.881  0.00  0.00    +0.000 A 
ATOM     25  C   UNL     1       5.756   4.146  14.784  0.00  0.00    +0.000 A 
ATOM     26  C   UNL     1       5.343   3.649  13.559  0.00  0.00    +0.000 A 
ATOM     27  C   UNL     1       6.190   3.759  12.477  0.00  0.00    +0.000 A 
ATOM     28  C   UNL     1       7.177   4.732  12.474  0.00  0.00    +0.000 A 
ATOM     29  C   UNL     1       7.662   5.147  13.702  0.00  0.00    +0.000 A 
ATOM     30  C   UNL     1       7.006   4.787  14.916  0.00  0.00    +0.000 A 
ATOM     31  C   UNL     1       7.470   5.017  16.225  0.00  0.00    +0.000 A 
ATOM     32  C   UNL     1       6.659   4.713  17.341  0.00  0.00    +0.000 A 
ATOM     33  F   UNL     1       7.163   4.931  18.562  0.00  0.00    +0.000 F 
ENDBRANCH  22  23
ENDBRANCH   2  18
TORSDOF 4
ENDMDL
MODEL 9
REMARK VINA RESULT:      -7.9      1.856      2.755
REMARK  Name = 
REMARK  6 active torsions:
REMARK  status: ('A' for Active; 'I' for Inactive)
REMARK    1  A    between atoms: C_1  and  N_2
REMARK    2  A    between atoms: N_2  and  C_3
REMARK    3  A    between atoms: C_4  and  C_6
REMARK    4  A    between atoms: C_9  and  N_10
REMARK    5  A    between atoms: C_11  and  C_13
REMARK    6  A    between atoms: N_17  and  C_18
REMARK                            x       y       z     vdW  Elec       q    Type
REMARK                         _______ _______ _______ _____ _____    ______ ____
ROOT
ATOM      1  N   UNL     1       2.516   5.874  19.447  0.00  0.00    +0.000 N 
ATOM      2  C   UNL     1       2.142   4.853  18.593  0.00  0.00    +0.000 C 
ATOM      3  O   UNL     1       1.395   5.020  17.621  0.00  0.00    +0.000 OA
ATOM      4  H   UNL     1       2.957   5.626  20.301  0.00  0.00    +0.000 HD
ENDROOT
BRANCH   1   8
ATOM      5  C   UNL     1       1.546  10.004  18.808  0.00  0.00    +0.000 A 
ATOM      6  C   UNL     1       2.233   9.288  17.830  0.00  0.00    +0.000 A 
ATOM      7  C   UNL     1       2.550   7.933  18.015  0.00  0.00    +0.000 A 
ATOM      8  C   UNL     1       2.228   7.259  19.200  0.00  0.00    +0.000 A 
ATOM      9  C   UNL     1       1.622   8.023  20.214  0.00  0.00    +0.000 A 
ATOM     10  F   UNL     1       1.349   7.443  21.395  0.00  0.00    +0.000 F 
ATOM     11  C   UNL     1       1.278   9.372  20.030  0.00  0.00    +0.000 A 
BRANCH   5  15
ATOM     12  C   UNL     1      -0.677  13.071  18.136  0.00  0.00    +0.000 C 
ATOM     13  N   UNL     1      -0.102  11.932  18.853  0.00  0.00    +0.000 N 
ATOM     14  C   UNL     1      -0.860  11.484  20.021  0.00  0.00    +0.000 C 
ATOM     15  C   UNL     1       1.172  11.451  18.563  0.00  0.00    +0.000 C 
ATOM     16  N   UNL     1       2.106  12.198  18.053  0.00  0.00    +0.000 NA
ATOM     17  H   UNL     1       1.761  13.153  17.949  0.00  0.00    +0.000 HD
ENDBRANCH   5  15
ENDBRANCH   1   8
BRANCH   2  18
ATOM     18  C   UNL     1       2.693   3.514  18.771  0.00  0.00    +0.000 A 
ATOM     19  N   UNL     1       2.205   2.617  19.595  0.00  0.00    +0.000 NA
ATOM     20  N   UNL     1       2.799   1.436  19.224  0.00  0.00    +0.000 NA
ATOM     21  N   UNL     1       3.660   1.607  18.224  0.00  0.00    +0.000 NA
ATOM     22  N   UNL     1       3.693   2.939  17.992  0.00  0.00    +0.000 N 
BRANCH  22  23
ATOM     23  C   UNL     1       4.736   3.570  17.261  0.00  0.00    +0.000 A 
ATOM     24  C   UNL     1       4.771   3.436  15.888  0.00  0.00    +0.000 A 
ATOM     25  C   UNL     1       5.730   4.036  15.103  0.00  0.00    +0.000 A 
ATOM     26  C   UNL     1       5.810   3.660  13.772  0.00  0.00    +0.000 A 
ATOM     27  C   UNL     1       6.846   4.145  13.005  0.00  0.00    +0.000 A 
ATOM     28  C   UNL     1       7.488   5.314  13.379  0.00  0.00    +0.000 A 
ATOM     29  C   UNL     1       7.497   5.629  14.727  0.00  0.00    +0.000 A 
ATOM     30  C   UNL     1       6.671   4.930  15.655  0.00  0.00    +0.000 A 
ATOM     31  C   UNL     1       6.691   5.050  17.058  0.00  0.00    +0.000 A 
ATOM     32  C   UNL     1       5.731   4.382  17.851  0.00  0.00    +0.000 A 
ATOM     33  F   UNL     1       5.815   4.515  19.181  0.00  0.00    +0.000 F 
ENDBRANCH  22  23
ENDBRANCH   2  18
TORSDOF 4
ENDMDL
