MODEL 1
REMARK VINA RESULT:      -7.1      0.000      0.000
REMARK  Name = 
REMARK  8 active torsions:
REMARK  status: ('A' for Active; 'I' for Inactive)
REMARK    1  A    between atoms: C_2  and  C_3
REMARK    2  A    between atoms: C_6  and  C_7
REMARK    3  A    between atoms: C_7  and  C_8
REMARK    4  A    between atoms: C_8  and  N_9
REMARK    5  A    between atoms: N_12  and  C_13
REMARK    6  A    between atoms: C_13  and  C_14
REMARK    7  A    between atoms: C_14  and  C_15
REMARK    8  A    between atoms: C_18  and  C_19
REMARK                            x       y       z     vdW  Elec       q    Type
REMARK                         _______ _______ _______ _____ _____    ______ ____
ROOT
ATOM      1  N   UNL     1       6.729   6.675  18.081  0.00  0.00    +0.000 NA
ATOM      2  C   UNL     1       5.391   6.625  17.449  0.00  0.00    +0.000 C 
ATOM      3  C   UNL     1       5.410   6.189  15.965  0.00  0.00    +0.000 C 
ATOM      4  N   UNL     1       6.061   4.881  15.731  0.00  0.00    +0.000 NA
ATOM      5  C   UNL     1       7.403   4.913  16.364  0.00  0.00    +0.000 C 
ATOM      6  C   UNL     1       7.398   5.370  17.848  0.00  0.00    +0.000 C 
ENDROOT
BRANCH   1   7
ATOM      7  C   UNL     1       7.564   7.776  17.558  0.00  0.00    +0.000 C 
BRANCH   7   8
ATOM      8  C   UNL     1       8.592   8.306  18.570  0.00  0.00    +0.000 C 
BRANCH   8  12
ATOM      9  C   UNL     1       9.042  12.588  18.314  0.00  0.00    +0.000 A 
ATOM     10  C   UNL     1       8.147  11.926  17.469  0.00  0.00    +0.000 A 
ATOM     11  C   UNL     1       8.011  10.540  17.547  0.00  0.00    +0.000 A 
ATOM     12  C   UNL     1       8.764   9.803  18.473  0.00  0.00    +0.000 A 
ATOM     13  C   UNL     1       9.672  10.469  19.304  0.00  0.00    +0.000 A 
ATOM     14  C   UNL     1       9.807  11.856  19.227  0.00  0.00    +0.000 A 
BRANCH   9  16
ATOM     15  N   UNL     1       9.284  15.167  18.193  0.00  0.00    +0.000 NA
ATOM     16  C   UNL     1       9.174  14.011  18.247  0.00  0.00    +0.000 C 
ENDBRANCH   9  16
ENDBRANCH   8  12
ENDBRANCH   7   8
ENDBRANCH   1   7
BRANCH   4  17
ATOM     17  C   UNL     1       5.273   3.753  16.269  0.00  0.00    +0.000 C 
BRANCH  17  18
ATOM     18  C   UNL     1       3.763   4.030  16.327  0.00  0.00    +0.000 C 
BRANCH  18  19
ATOM     19  C   UNL     1       3.189   3.657  17.670  0.00  0.00    +0.000 A 
ATOM     20  C   UNL     1       1.838   3.910  17.950  0.00  0.00    +0.000 A 
ATOM     21  C   UNL     1       1.303   3.580  19.193  0.00  0.00    +0.000 A 
ATOM     22  C   UNL     1       2.121   2.997  20.170  0.00  0.00    +0.000 A 
ATOM     23  C   UNL     1       3.468   2.748  19.895  0.00  0.00    +0.000 A 
ATOM     24  C   UNL     1       4.002   3.079  18.651  0.00  0.00    +0.000 A 
BRANCH  22  25
ATOM     25  C   UNL     1       1.575   2.663  21.448  0.00  0.00    +0.000 C 
ATOM     26  N   UNL     1       1.127   2.387  22.482  0.00  0.00    +0.000 NA
ENDBRANCH  22  25
ENDBRANCH  18  19
ENDBRANCH  17  18
ENDBRANCH   4  17
TORSDOF 8
ENDMDL
MODEL 2
REMARK VINA RESULT:      -7.0      0.256      1.339
REMARK  Name = 
REMARK  8 active torsions:
REMARK  status: ('A' for Active; 'I' for Inactive)
REMARK    1  A    between atoms: C_2  and  C_3
REMARK    2  A    between atoms: C_6  and  C_7
REMARK    3  A    between atoms: C_7  and  C_8
REMARK    4  A    between atoms: C_8  and  N_9
REMARK    5  A    between atoms: N_12  and  C_13
REMARK    6  A    between atoms: C_13  and  C_14
REMARK    7  A    between atoms: C_14  and  C_15
REMARK    8  A    between atoms: C_18  and  C_19
REMARK                            x       y       z     vdW  Elec       q    Type
REMARK                         _______ _______ _______ _____ _____    ______ ____
ROOT
ATOM      1  N   UNL     1       6.813   6.561  18.130  0.00  0.00    +0.000 NA
ATOM      2  C   UNL     1       5.431   6.553  17.598  0.00  0.00    +0.000 C 
ATOM      3  C   UNL     1       5.339   6.257  16.083  0.00  0.00    +0.000 C 
ATOM      4  N   UNL     1       5.978   4.985  15.678  0.00  0.00    +0.000 NA
ATOM      5  C   UNL     1       7.365   4.975  16.208  0.00  0.00    +0.000 C 
ATOM      6  C   UNL     1       7.470   5.292  17.725  0.00  0.00    +0.000 C 
ENDROOT
BRANCH   1   7
ATOM      7  C   UNL     1       7.599   7.717  17.651  0.00  0.00    +0.000 C 
BRANCH   7   8
ATOM      8  C   UNL     1       8.600   8.255  18.686  0.00  0.00    +0.000 C 
BRANCH   8  12
ATOM      9  C   UNL     1       9.235  12.502  18.293  0.00  0.00    +0.000 A 
ATOM     10  C   UNL     1       9.908  11.782  19.283  0.00  0.00    +0.000 A 
ATOM     11  C   UNL     1       9.692  10.410  19.415  0.00  0.00    +0.000 A 
ATOM     12  C   UNL     1       8.806   9.744  18.555  0.00  0.00    +0.000 A 
ATOM     13  C   UNL     1       8.122  10.473  17.576  0.00  0.00    +0.000 A 
ATOM     14  C   UNL     1       8.339  11.846  17.443  0.00  0.00    +0.000 A 
BRANCH   9  16
ATOM     15  N   UNL     1       9.652  15.047  18.024  0.00  0.00    +0.000 NA
ATOM     16  C   UNL     1       9.464  13.907  18.146  0.00  0.00    +0.000 C 
ENDBRANCH   9  16
ENDBRANCH   8  12
ENDBRANCH   7   8
ENDBRANCH   1   7
BRANCH   4  17
ATOM     17  C   UNL     1       5.240   3.802  16.166  0.00  0.00    +0.000 C 
BRANCH  17  18
ATOM     18  C   UNL     1       3.717   3.999  16.203  0.00  0.00    +0.000 C 
BRANCH  18  19
ATOM     19  C   UNL     1       3.157   3.680  17.565  0.00  0.00    +0.000 A 
ATOM     20  C   UNL     1       3.766   2.698  18.361  0.00  0.00    +0.000 A 
ATOM     21  C   UNL     1       3.246   2.388  19.616  0.00  0.00    +0.000 A 
ATOM     22  C   UNL     1       2.106   3.056  20.082  0.00  0.00    +0.000 A 
ATOM     23  C   UNL     1       1.495   4.030  19.289  0.00  0.00    +0.000 A 
ATOM     24  C   UNL     1       2.015   4.339  18.034  0.00  0.00    +0.000 A 
BRANCH  22  25
ATOM     25  C   UNL     1       1.569   2.733  21.367  0.00  0.00    +0.000 C 
ATOM     26  N   UNL     1       1.127   2.476  22.408  0.00  0.00    +0.000 NA
ENDBRANCH  22  25
ENDBRANCH  18  19
ENDBRANCH  17  18
ENDBRANCH   4  17
TORSDOF 8
ENDMDL
MODEL 3
REMARK VINA RESULT:      -6.9      0.301      9.430
REMARK  Name = 
REMARK  8 active torsions:
REMARK  status: ('A' for Active; 'I' for Inactive)
REMARK    1  A    between atoms: C_2  and  C_3
REMARK    2  A    between atoms: C_6  and  C_7
REMARK    3  A    between atoms: C_7  and  C_8
REMARK    4  A    between atoms: C_8  and  N_9
REMARK    5  A    between atoms: N_12  and  C_13
REMARK    6  A    between atoms: C_13  and  C_14
REMARK    7  A    between atoms: C_14  and  C_15
REMARK    8  A    between atoms: C_18  and  C_19
REMARK                            x       y       z     vdW  Elec       q    Type
REMARK                         _______ _______ _______ _____ _____    ______ ____
ROOT
ATOM      1  N   UNL     1       5.942   5.144  15.671  0.00  0.00    +0.000 NA
ATOM      2  C   UNL     1       5.285   6.377  16.163  0.00  0.00    +0.000 C 
ATOM      3  C   UNL     1       5.429   6.605  17.686  0.00  0.00    +0.000 C 
ATOM      4  N   UNL     1       6.830   6.628  18.161  0.00  0.00    +0.000 NA
ATOM      5  C   UNL     1       7.505   5.399  17.672  0.00  0.00    +0.000 C 
ATOM      6  C   UNL     1       7.348   5.149  16.147  0.00  0.00    +0.000 C 
ENDROOT
BRANCH   1   7
ATOM      7  C   UNL     1       5.256   3.916  16.125  0.00  0.00    +0.000 C 
BRANCH   7   8
ATOM      8  C   UNL     1       3.727   4.055  16.201  0.00  0.00    +0.000 C 
BRANCH   8  12
ATOM      9  C   UNL     1       2.168   3.072  20.100  0.00  0.00    +0.000 A 
ATOM     10  C   UNL     1       1.523   4.025  19.308  0.00  0.00    +0.000 A 
ATOM     11  C   UNL     1       2.036   4.349  18.051  0.00  0.00    +0.000 A 
ATOM     12  C   UNL     1       3.195   3.719  17.572  0.00  0.00    +0.000 A 
ATOM     13  C   UNL     1       3.846   2.778  18.377  0.00  0.00    +0.000 A 
ATOM     14  C   UNL     1       3.333   2.453  19.634  0.00  0.00    +0.000 A 
BRANCH   9  16
ATOM     15  N   UNL     1       1.209   2.448  22.427  0.00  0.00    +0.000 NA
ATOM     16  C   UNL     1       1.638   2.726  21.384  0.00  0.00    +0.000 C 
ENDBRANCH   9  16
ENDBRANCH   8  12
ENDBRANCH   7   8
ENDBRANCH   1   7
BRANCH   4  17
ATOM     17  C   UNL     1       7.563   7.826  17.703  0.00  0.00    +0.000 C 
BRANCH  17  18
ATOM     18  C   UNL     1       8.660   8.285  18.675  0.00  0.00    +0.000 C 
BRANCH  18  19
ATOM     19  C   UNL     1       8.826   9.783  18.647  0.00  0.00    +0.000 A 
ATOM     20  C   UNL     1       9.546  10.428  19.663  0.00  0.00    +0.000 A 
ATOM     21  C   UNL     1       9.692  11.813  19.651  0.00  0.00    +0.000 A 
ATOM     22  C   UNL     1       9.112  12.565  18.621  0.00  0.00    +0.000 A 
ATOM     23  C   UNL     1       8.391  11.925  17.610  0.00  0.00    +0.000 A 
ATOM     24  C   UNL     1       8.244  10.539  17.624  0.00  0.00    +0.000 A 
BRANCH  22  25
ATOM     25  C   UNL     1       9.256  13.988  18.610  0.00  0.00    +0.000 C 
ATOM     26  N   UNL     1       9.368  15.142  18.607  0.00  0.00    +0.000 NA
ENDBRANCH  22  25
ENDBRANCH  18  19
ENDBRANCH  17  18
ENDBRANCH   4  17
TORSDOF 8
ENDMDL
MODEL 4
REMARK VINA RESULT:      -6.7      1.033      1.689
REMARK  Name = 
REMARK  8 active torsions:
REMARK  status: ('A' for Active; 'I' for Inactive)
REMARK    1  A    between atoms: C_2  and  C_3
REMARK    2  A    between atoms: C_6  and  C_7
REMARK    3  A    between atoms: C_7  and  C_8
REMARK    4  A    between atoms: C_8  and  N_9
REMARK    5  A    between atoms: N_12  and  C_13
REMARK    6  A    between atoms: C_13  and  C_14
REMARK    7  A    between atoms: C_14  and  C_15
REMARK    8  A    between atoms: C_18  and  C_19
REMARK                            x       y       z     vdW  Elec       q    Type
REMARK                         _______ _______ _______ _____ _____    ______ ____
ROOT
ATOM      1  N   UNL     1       7.775   7.252  17.074  0.00  0.00    +0.000 NA
ATOM      2  C   UNL     1       7.772   6.080  17.979  0.00  0.00    +0.000 C 
ATOM      3  C   UNL     1       6.404   5.800  18.643  0.00  0.00    +0.000 C 
ATOM      4  N   UNL     1       5.293   5.622  17.683  0.00  0.00    +0.000 NA
ATOM      5  C   UNL     1       5.285   6.788  16.764  0.00  0.00    +0.000 C 
ATOM      6  C   UNL     1       6.659   7.092  16.107  0.00  0.00    +0.000 C 
ENDROOT
BRANCH   1   7
ATOM      7  C   UNL     1       7.638   8.532  17.801  0.00  0.00    +0.000 C 
BRANCH   7   8
ATOM      8  C   UNL     1       8.722   8.755  18.867  0.00  0.00    +0.000 C 
BRANCH   8  12
ATOM      9  C   UNL     1       9.984  12.873  19.099  0.00  0.00    +0.000 A 
ATOM     10  C   UNL     1      10.196  12.013  20.181  0.00  0.00    +0.000 A 
ATOM     11  C   UNL     1       9.777  10.685  20.107  0.00  0.00    +0.000 A 
ATOM     12  C   UNL     1       9.148  10.201  18.950  0.00  0.00    +0.000 A 
ATOM     13  C   UNL     1       8.923  11.070  17.877  0.00  0.00    +0.000 A 
ATOM     14  C   UNL     1       9.343  12.400  17.950  0.00  0.00    +0.000 A 
BRANCH   9  16
ATOM     15  N   UNL     1      10.784  15.336  19.222  0.00  0.00    +0.000 NA
ATOM     16  C   UNL     1      10.424  14.233  19.166  0.00  0.00    +0.000 C 
ENDBRANCH   9  16
ENDBRANCH   8  12
ENDBRANCH   7   8
ENDBRANCH   1   7
BRANCH   4  17
ATOM     17  C   UNL     1       5.409   4.368  16.910  0.00  0.00    +0.000 C 
BRANCH  17  18
ATOM     18  C   UNL     1       4.064   3.662  16.680  0.00  0.00    +0.000 C 
BRANCH  18  19
ATOM     19  C   UNL     1       3.370   3.367  17.984  0.00  0.00    +0.000 A 
ATOM     20  C   UNL     1       2.051   3.797  18.190  0.00  0.00    +0.000 A 
ATOM     21  C   UNL     1       1.407   3.541  19.398  0.00  0.00    +0.000 A 
ATOM     22  C   UNL     1       2.083   2.853  20.415  0.00  0.00    +0.000 A 
ATOM     23  C   UNL     1       3.398   2.427  20.214  0.00  0.00    +0.000 A 
ATOM     24  C   UNL     1       4.042   2.685  19.005  0.00  0.00    +0.000 A 
BRANCH  22  25
ATOM     25  C   UNL     1       1.425   2.594  21.657  0.00  0.00    +0.000 C 
ATOM     26  N   UNL     1       0.897   2.387  22.669  0.00  0.00    +0.000 NA
ENDBRANCH  22  25
ENDBRANCH  18  19
ENDBRANCH  17  18
ENDBRANCH   4  17
TORSDOF 8
ENDMDL
MODEL 5
REMARK VINA RESULT:      -6.7      1.024      9.482
REMARK  Name = 
REMARK  8 active torsions:
REMARK  status: ('A' for Active; 'I' for Inactive)
REMARK    1  A    between atoms: C_2  and  C_3
REMARK    2  A    between atoms: C_6  and  C_7
REMARK    3  A    between atoms: C_7  and  C_8
REMARK    4  A    between atoms: C_8  and  N_9
REMARK    5  A    between atoms: N_12  and  C_13
REMARK    6  A    between atoms: C_13  and  C_14
REMARK    7  A    between atoms: C_14  and  C_15
REMARK    8  A    between atoms: C_18  and  C_19
REMARK                            x       y       z     vdW  Elec       q    Type
REMARK                         _______ _______ _______ _____ _____    ______ ____
ROOT
ATOM      1  N   UNL     1       5.969   4.885  15.859  0.00  0.00    +0.000 NA
ATOM      2  C   UNL     1       5.465   6.225  16.236  0.00  0.00    +0.000 C 
ATOM      3  C   UNL     1       5.674   6.582  17.726  0.00  0.00    +0.000 C 
ATOM      4  N   UNL     1       7.081   6.496  18.174  0.00  0.00    +0.000 NA
ATOM      5  C   UNL     1       7.604   5.157  17.799  0.00  0.00    +0.000 C 
ATOM      6  C   UNL     1       7.380   4.780  16.309  0.00  0.00    +0.000 C 
ENDROOT
BRANCH   1   7
ATOM      7  C   UNL     1       5.166   3.791  16.443  0.00  0.00    +0.000 C 
BRANCH   7   8
ATOM      8  C   UNL     1       3.659   4.089  16.490  0.00  0.00    +0.000 C 
BRANCH   8  12
ATOM      9  C   UNL     1       1.941   3.003  20.294  0.00  0.00    +0.000 A 
ATOM     10  C   UNL     1       1.541   2.341  19.130  0.00  0.00    +0.000 A 
ATOM     11  C   UNL     1       2.090   2.701  17.900  0.00  0.00    +0.000 A 
ATOM     12  C   UNL     1       3.049   3.723  17.821  0.00  0.00    +0.000 A 
ATOM     13  C   UNL     1       3.433   4.394  18.987  0.00  0.00    +0.000 A 
ATOM     14  C   UNL     1       2.884   4.033  20.219  0.00  0.00    +0.000 A 
BRANCH   9  16
ATOM     15  N   UNL     1       0.941   2.320  22.587  0.00  0.00    +0.000 NA
ATOM     16  C   UNL     1       1.390   2.627  21.560  0.00  0.00    +0.000 C 
ENDBRANCH   9  16
ENDBRANCH   8  12
ENDBRANCH   7   8
ENDBRANCH   1   7
BRANCH   4  17
ATOM     17  C   UNL     1       7.928   7.554  17.587  0.00  0.00    +0.000 C 
BRANCH  17  18
ATOM     18  C   UNL     1       7.296   8.953  17.649  0.00  0.00    +0.000 C 
BRANCH  18  19
ATOM     19  C   UNL     1       8.292   9.983  18.116  0.00  0.00    +0.000 A 
ATOM     20  C   UNL     1       9.152   9.693  19.186  0.00  0.00    +0.000 A 
ATOM     21  C   UNL     1      10.066  10.644  19.632  0.00  0.00    +0.000 A 
ATOM     22  C   UNL     1      10.122  11.899  19.012  0.00  0.00    +0.000 A 
ATOM     23  C   UNL     1       9.264  12.193  17.950  0.00  0.00    +0.000 A 
ATOM     24  C   UNL     1       8.349  11.240  17.505  0.00  0.00    +0.000 A 
BRANCH  22  25
ATOM     25  C   UNL     1      11.056  12.879  19.473  0.00  0.00    +0.000 C 
ATOM     26  N   UNL     1      11.818  13.669  19.849  0.00  0.00    +0.000 NA
ENDBRANCH  22  25
ENDBRANCH  18  19
ENDBRANCH  17  18
ENDBRANCH   4  17
TORSDOF 8
ENDMDL
MODEL 6
REMARK VINA RESULT:      -6.6      1.046      9.217
REMARK  Name = 
REMARK  8 active torsions:
REMARK  status: ('A' for Active; 'I' for Inactive)
REMARK    1  A    between atoms: C_2  and  C_3
REMARK    2  A    between atoms: C_6  and  C_7
REMARK    3  A    between atoms: C_7  and  C_8
REMARK    4  A    between atoms: C_8  and  N_9
REMARK    5  A    between atoms: N_12  and  C_13
REMARK    6  A    between atoms: C_13  and  C_14
REMARK    7  A    between atoms: C_14  and  C_15
REMARK    8  A    between atoms: C_18  and  C_19
REMARK                            x       y       z     vdW  Elec       q    Type
REMARK                         _______ _______ _______ _____ _____    ______ ____
ROOT
ATOM      1  N   UNL     1       6.951   4.531  16.247  0.00  0.00    +0.000 NA
ATOM      2  C   UNL     1       6.647   5.952  15.960  0.00  0.00    +0.000 C 
ATOM      3  C   UNL     1       6.009   6.712  17.145  0.00  0.00    +0.000 C 
ATOM      4  N   UNL     1       6.810   6.672  18.389  0.00  0.00    +0.000 NA
ATOM      5  C   UNL     1       7.127   5.252  18.688  0.00  0.00    +0.000 C 
ATOM      6  C   UNL     1       7.749   4.473  17.497  0.00  0.00    +0.000 C 
ENDROOT
BRANCH   1   7
ATOM      7  C   UNL     1       5.732   3.706  16.383  0.00  0.00    +0.000 C 
BRANCH   7   8
ATOM      8  C   UNL     1       4.454   4.527  16.618  0.00  0.00    +0.000 C 
BRANCH   8  12
ATOM      9  C   UNL     1       2.381   3.275  20.186  0.00  0.00    +0.000 A 
ATOM     10  C   UNL     1       3.401   2.482  19.654  0.00  0.00    +0.000 A 
ATOM     11  C   UNL     1       4.062   2.883  18.493  0.00  0.00    +0.000 A 
ATOM     12  C   UNL     1       3.715   4.085  17.857  0.00  0.00    +0.000 A 
ATOM     13  C   UNL     1       2.682   4.867  18.385  0.00  0.00    +0.000 A 
ATOM     14  C   UNL     1       2.020   4.465  19.547  0.00  0.00    +0.000 A 
BRANCH   9  16
ATOM     15  N   UNL     1       1.164   2.549  22.358  0.00  0.00    +0.000 NA
ATOM     16  C   UNL     1       1.710   2.873  21.385  0.00  0.00    +0.000 C 
ENDBRANCH   9  16
ENDBRANCH   8  12
ENDBRANCH   7   8
ENDBRANCH   1   7
BRANCH   4  17
ATOM     17  C   UNL     1       8.056   7.458  18.284  0.00  0.00    +0.000 C 
BRANCH  17  18
ATOM     18  C   UNL     1       7.894   8.764  17.492  0.00  0.00    +0.000 C 
BRANCH  18  19
ATOM     19  C   UNL     1       8.516   9.928  18.219  0.00  0.00    +0.000 A 
ATOM     20  C   UNL     1       8.465  11.214  17.661  0.00  0.00    +0.000 A 
ATOM     21  C   UNL     1       9.050  12.292  18.320  0.00  0.00    +0.000 A 
ATOM     22  C   UNL     1       9.697  12.090  19.546  0.00  0.00    +0.000 A 
ATOM     23  C   UNL     1       9.754  10.810  20.103  0.00  0.00    +0.000 A 
ATOM     24  C   UNL     1       9.169   9.731  19.441  0.00  0.00    +0.000 A 
BRANCH  22  25
ATOM     25  C   UNL     1      10.303  13.194  20.221  0.00  0.00    +0.000 C 
ATOM     26  N   UNL     1      10.797  14.093  20.763  0.00  0.00    +0.000 NA
ENDBRANCH  22  25
ENDBRANCH  18  19
ENDBRANCH  17  18
ENDBRANCH   4  17
TORSDOF 8
ENDMDL
MODEL 7
REMARK VINA RESULT:      -6.6      1.118      1.300
REMARK  Name = 
REMARK  8 active torsions:
REMARK  status: ('A' for Active; 'I' for Inactive)
REMARK    1  A    between atoms: C_2  and  C_3
REMARK    2  A    between atoms: C_6  and  C_7
REMARK    3  A    between atoms: C_7  and  C_8
REMARK    4  A    between atoms: C_8  and  N_9
REMARK    5  A    between atoms: N_12  and  C_13
REMARK    6  A    between atoms: C_13  and  C_14
REMARK    7  A    between atoms: C_14  and  C_15
REMARK    8  A    between atoms: C_18  and  C_19
REMARK                            x       y       z     vdW  Elec       q    Type
REMARK                         _______ _______ _______ _____ _____    ______ ____
ROOT
ATOM      1  N   UNL     1       6.845   6.667  18.366  0.00  0.00    +0.000 NA
ATOM      2  C   UNL     1       5.952   6.713  17.185  0.00  0.00    +0.000 C 
ATOM      3  C   UNL     1       6.508   5.976  15.944  0.00  0.00    +0.000 C 
ATOM      4  N   UNL     1       6.848   4.557  16.189  0.00  0.00    +0.000 NA
ATOM      5  C   UNL     1       7.741   4.493  17.373  0.00  0.00    +0.000 C 
ATOM      6  C   UNL     1       7.202   5.248  18.619  0.00  0.00    +0.000 C 
ENDROOT
BRANCH   1   7
ATOM      7  C   UNL     1       8.070   7.474  18.183  0.00  0.00    +0.000 C 
BRANCH   7   8
ATOM      8  C   UNL     1       7.823   8.821  17.485  0.00  0.00    +0.000 C 
BRANCH   8  12
ATOM      9  C   UNL     1       9.695  12.108  19.556  0.00  0.00    +0.000 A 
ATOM     10  C   UNL     1       9.057  12.324  18.332  0.00  0.00    +0.000 A 
ATOM     11  C   UNL     1       8.461  11.257  17.659  0.00  0.00    +0.000 A 
ATOM     12  C   UNL     1       8.493   9.965  18.206  0.00  0.00    +0.000 A 
ATOM     13  C   UNL     1       9.149   9.751  19.423  0.00  0.00    +0.000 A 
ATOM     14  C   UNL     1       9.744  10.819  20.097  0.00  0.00    +0.000 A 
BRANCH   9  16
ATOM     15  N   UNL     1      10.781  14.093  20.823  0.00  0.00    +0.000 NA
ATOM     16  C   UNL     1      10.295  13.203  20.256  0.00  0.00    +0.000 C 
ENDBRANCH   9  16
ENDBRANCH   8  12
ENDBRANCH   7   8
ENDBRANCH   1   7
BRANCH   4  17
ATOM     17  C   UNL     1       5.652   3.718  16.410  0.00  0.00    +0.000 C 
BRANCH  17  18
ATOM     18  C   UNL     1       4.370   4.529  16.656  0.00  0.00    +0.000 C 
BRANCH  18  19
ATOM     19  C   UNL     1       3.658   4.063  17.899  0.00  0.00    +0.000 A 
ATOM     20  C   UNL     1       3.444   4.954  18.961  0.00  0.00    +0.000 A 
ATOM     21  C   UNL     1       2.799   4.528  20.119  0.00  0.00    +0.000 A 
ATOM     22  C   UNL     1       2.365   3.200  20.225  0.00  0.00    +0.000 A 
ATOM     23  C   UNL     1       2.580   2.309  19.171  0.00  0.00    +0.000 A 
ATOM     24  C   UNL     1       3.227   2.737  18.013  0.00  0.00    +0.000 A 
BRANCH  22  25
ATOM     25  C   UNL     1       1.707   2.760  21.416  0.00  0.00    +0.000 C 
ATOM     26  N   UNL     1       1.170   2.409  22.382  0.00  0.00    +0.000 NA
ENDBRANCH  22  25
ENDBRANCH  18  19
ENDBRANCH  17  18
ENDBRANCH   4  17
TORSDOF 8
ENDMDL
MODEL 8
REMARK VINA RESULT:      -6.5      8.032     10.528
REMARK  Name = 
REMARK  8 active torsions:
REMARK  status: ('A' for Active; 'I' for Inactive)
REMARK    1  A    between atoms: C_2  and  C_3
REMARK    2  A    between atoms: C_6  and  C_7
REMARK    3  A    between atoms: C_7  and  C_8
REMARK    4  A    between atoms: C_8  and  N_9
REMARK    5  A    between atoms: N_12  and  C_13
REMARK    6  A    between atoms: C_13  and  C_14
REMARK    7  A    between atoms: C_14  and  C_15
REMARK    8  A    between atoms: C_18  and  C_19
REMARK                            x       y       z     vdW  Elec       q    Type
REMARK                         _______ _______ _______ _____ _____    ______ ____
ROOT
ATOM      1  N   UNL     1       0.548   8.798  19.795  0.00  0.00    +0.000 NA
ATOM      2  C   UNL     1       0.417   8.482  21.235  0.00  0.00    +0.000 C 
ATOM      3  C   UNL     1       1.067   9.527  22.172  0.00  0.00    +0.000 C 
ATOM      4  N   UNL     1       0.570  10.906  21.973  0.00  0.00    +0.000 NA
ATOM      5  C   UNL     1       0.690  11.237  20.530  0.00  0.00    +0.000 C 
ATOM      6  C   UNL     1       0.060  10.184  19.579  0.00  0.00    +0.000 C 
ENDROOT
BRANCH   1   7
ATOM      7  C   UNL     1       1.938   8.667  19.309  0.00  0.00    +0.000 C 
BRANCH   7   8
ATOM      8  C   UNL     1       2.091   7.692  18.131  0.00  0.00    +0.000 C 
BRANCH   8  12
ATOM      9  C   UNL     1       3.848   3.960  19.390  0.00  0.00    +0.000 A 
ATOM     10  C   UNL     1       4.656   5.083  19.191  0.00  0.00    +0.000 A 
ATOM     11  C   UNL     1       4.087   6.286  18.773  0.00  0.00    +0.000 A 
ATOM     12  C   UNL     1       2.703   6.380  18.556  0.00  0.00    +0.000 A 
ATOM     13  C   UNL     1       1.901   5.248  18.741  0.00  0.00    +0.000 A 
ATOM     14  C   UNL     1       2.471   4.045  19.160  0.00  0.00    +0.000 A 
BRANCH   9  16
ATOM     15  N   UNL     1       4.899   1.729  20.189  0.00  0.00    +0.000 NA
ATOM     16  C   UNL     1       4.427   2.728  19.832  0.00  0.00    +0.000 C 
ENDBRANCH   9  16
ENDBRANCH   8  12
ENDBRANCH   7   8
ENDBRANCH   1   7
BRANCH   4  17
ATOM     17  C   UNL     1      -0.829  11.073  22.416  0.00  0.00    +0.000 C 
BRANCH  17  18
ATOM     18  C   UNL     1      -1.501  12.340  21.866  0.00  0.00    +0.000 C 
BRANCH  18  19
ATOM     19  C   UNL     1      -2.891  12.510  22.424  0.00  0.00    +0.000 A 
ATOM     20  C   UNL     1      -3.952  12.851  21.573  0.00  0.00    +0.000 A 
ATOM     21  C   UNL     1      -5.237  13.023  22.082  0.00  0.00    +0.000 A 
ATOM     22  C   UNL     1      -5.468  12.858  23.454  0.00  0.00    +0.000 A 
ATOM     23  C   UNL     1      -4.413  12.523  24.306  0.00  0.00    +0.000 A 
ATOM     24  C   UNL     1      -3.127  12.352  23.794  0.00  0.00    +0.000 A 
BRANCH  22  25
ATOM     25  C   UNL     1      -6.785  13.040  23.980  0.00  0.00    +0.000 C 
ATOM     26  N   UNL     1      -7.854  13.194  24.405  0.00  0.00    +0.000 NA
ENDBRANCH  22  25
ENDBRANCH  18  19
ENDBRANCH  17  18
ENDBRANCH   4  17
TORSDOF 8
ENDMDL
MODEL 9
REMARK VINA RESULT:      -6.5      8.254     10.238
REMARK  Name = 
REMARK  8 active torsions:
REMARK  status: ('A' for Active; 'I' for Inactive)
REMARK    1  A    between atoms: C_2  and  C_3
REMARK    2  A    between atoms: C_6  and  C_7
REMARK    3  A    between atoms: C_7  and  C_8
REMARK    4  A    between atoms: C_8  and  N_9
REMARK    5  A    between atoms: N_12  and  C_13
REMARK    6  A    between atoms: C_13  and  C_14
REMARK    7  A    between atoms: C_14  and  C_15
REMARK    8  A    between atoms: C_18  and  C_19
REMARK                            x       y       z     vdW  Elec       q    Type
REMARK                         _______ _______ _______ _____ _____    ______ ____
ROOT
ATOM      1  N   UNL     1       0.404   8.519  20.430  0.00  0.00    +0.000 NA
ATOM      2  C   UNL     1      -0.302   8.602  21.729  0.00  0.00    +0.000 C 
ATOM      3  C   UNL     1       0.267   9.670  22.691  0.00  0.00    +0.000 C 
ATOM      4  N   UNL     1       0.307  11.035  22.120  0.00  0.00    +0.000 NA
ATOM      5  C   UNL     1       1.009  10.968  20.813  0.00  0.00    +0.000 C 
ATOM      6  C   UNL     1       0.459   9.884  19.847  0.00  0.00    +0.000 C 
ENDROOT
BRANCH   1   7
ATOM      7  C   UNL     1       1.769   7.967  20.561  0.00  0.00    +0.000 C 
BRANCH   7   8
ATOM      8  C   UNL     1       1.899   6.519  20.062  0.00  0.00    +0.000 C 
BRANCH   8  12
ATOM      9  C   UNL     1       5.324   6.037  17.486  0.00  0.00    +0.000 A 
ATOM     10  C   UNL     1       4.303   6.925  17.135  0.00  0.00    +0.000 A 
ATOM     11  C   UNL     1       3.191   7.071  17.965  0.00  0.00    +0.000 A 
ATOM     12  C   UNL     1       3.091   6.335  19.156  0.00  0.00    +0.000 A 
ATOM     13  C   UNL     1       4.109   5.436  19.494  0.00  0.00    +0.000 A 
ATOM     14  C   UNL     1       5.222   5.290  18.663  0.00  0.00    +0.000 A 
BRANCH   9  16
ATOM     15  N   UNL     1       7.404   5.783  15.959  0.00  0.00    +0.000 NA
ATOM     16  C   UNL     1       6.472   5.895  16.644  0.00  0.00    +0.000 C 
ENDBRANCH   9  16
ENDBRANCH   8  12
ENDBRANCH   7   8
ENDBRANCH   1   7
BRANCH   4  17
ATOM     17  C   UNL     1      -1.041  11.613  21.942  0.00  0.00    +0.000 C 
BRANCH  17  18
ATOM     18  C   UNL     1      -1.870  11.648  23.235  0.00  0.00    +0.000 C 
BRANCH  18  19
ATOM     19  C   UNL     1      -3.182  12.360  23.025  0.00  0.00    +0.000 A 
ATOM     20  C   UNL     1      -4.071  12.522  24.098  0.00  0.00    +0.000 A 
ATOM     21  C   UNL     1      -5.291  13.167  23.910  0.00  0.00    +0.000 A 
ATOM     22  C   UNL     1      -5.633  13.651  22.640  0.00  0.00    +0.000 A 
ATOM     23  C   UNL     1      -4.752  13.487  21.569  0.00  0.00    +0.000 A 
ATOM     24  C   UNL     1      -3.531  12.841  21.759  0.00  0.00    +0.000 A 
BRANCH  22  25
ATOM     25  C   UNL     1      -6.888  14.308  22.444  0.00  0.00    +0.000 C 
ATOM     26  N   UNL     1      -7.906  14.838  22.279  0.00  0.00    +0.000 NA
ENDBRANCH  22  25
ENDBRANCH  18  19
ENDBRANCH  17  18
ENDBRANCH   4  17
TORSDOF 8
ENDMDL
