MODEL 1
REMARK VINA RESULT:      -7.4      0.000      0.000
REMARK  Name = 
REMARK  8 active torsions:
REMARK  status: ('A' for Active; 'I' for Inactive)
REMARK    1  A    between atoms: C_1  and  C_2
REMARK    2  A    between atoms: C_2  and  O_3
REMARK    3  A    between atoms: O_3  and  C_4
REMARK    4  A    between atoms: C_4  and  C_6
REMARK    5  A    between atoms: C_8  and  C_9
REMARK    6  A    between atoms: N_11  and  C_12
REMARK    7  A    between atoms: C_15  and  C_16
REMARK    8  A    between atoms: N_21  and  C_22
REMARK                            x       y       z     vdW  Elec       q    Type
REMARK                         _______ _______ _______ _____ _____    ______ ____
ROOT
ATOM      1  C   UNL     1       5.542   4.557  16.893  0.00  0.00    +0.000 C 
ATOM      2  O   UNL     1       5.944   5.408  17.680  0.00  0.00    +0.000 OA
ATOM      3  N   UNL     1       4.610   3.569  17.161  0.00  0.00    +0.000 N 
ATOM      4  H   UNL     1       4.503   2.887  16.413  0.00  0.00    +0.000 HD
ENDROOT
BRANCH   3   5
ATOM      5  C   UNL     1       3.919   3.374  18.370  0.00  0.00    +0.000 A 
ATOM      6  C   UNL     1       4.455   2.656  19.445  0.00  0.00    +0.000 A 
ATOM      7  C   UNL     1       3.713   2.442  20.611  0.00  0.00    +0.000 A 
ATOM      8  C   UNL     1       2.417   2.946  20.723  0.00  0.00    +0.000 A 
ATOM      9  C   UNL     1       1.592   2.677  21.943  0.00  0.00    +0.000 C 
ATOM     10  C   UNL     1       1.898   3.689  19.661  0.00  0.00    +0.000 A 
ATOM     11  F   UNL     1       0.656   4.184  19.741  0.00  0.00    +0.000 F 
ATOM     12  C   UNL     1       2.639   3.916  18.498  0.00  0.00    +0.000 A 
ENDBRANCH   3   5
BRANCH   1  15
ATOM     13  C   UNL     1       6.408   3.891  13.396  0.00  0.00    +0.000 A 
ATOM     14  C   UNL     1       5.651   3.598  14.512  0.00  0.00    +0.000 A 
ATOM     15  C   UNL     1       6.087   4.482  15.529  0.00  0.00    +0.000 A 
ATOM     16  N   UNL     1       7.070   5.285  15.080  0.00  0.00    +0.000 NA
ATOM     17  N   UNL     1       7.252   4.894  13.796  0.00  0.00    +0.000 N 
ATOM     18  C   UNL     1       8.232   5.580  12.983  0.00  0.00    +0.000 C 
BRANCH  13  19
ATOM     19  C   UNL     1       6.326   3.353  12.063  0.00  0.00    +0.000 C 
ATOM     20  O   UNL     1       7.151   2.615  11.543  0.00  0.00    +0.000 OA
BRANCH  19  21
ATOM     21  O   UNL     1       5.251   3.897  11.429  0.00  0.00    +0.000 OA
BRANCH  21  23
ATOM     22  C   UNL     1       3.211   3.667  10.215  0.00  0.00    +0.000 C 
ATOM     23  C   UNL     1       4.156   3.001  11.200  0.00  0.00    +0.000 C 
ENDBRANCH  21  23
ENDBRANCH  19  21
ENDBRANCH  13  19
ENDBRANCH   1  15
TORSDOF 5
ENDMDL
MODEL 2
REMARK VINA RESULT:      -7.0      4.988      6.748
REMARK  Name = 
REMARK  8 active torsions:
REMARK  status: ('A' for Active; 'I' for Inactive)
REMARK    1  A    between atoms: C_1  and  C_2
REMARK    2  A    between atoms: C_2  and  O_3
REMARK    3  A    between atoms: O_3  and  C_4
REMARK    4  A    between atoms: C_4  and  C_6
REMARK    5  A    between atoms: C_8  and  C_9
REMARK    6  A    between atoms: N_11  and  C_12
REMARK    7  A    between atoms: C_15  and  C_16
REMARK    8  A    between atoms: N_21  and  C_22
REMARK                            x       y       z     vdW  Elec       q    Type
REMARK                         _______ _______ _______ _____ _____    ______ ____
ROOT
ATOM      1  C   UNL     1       2.092   6.766  19.995  0.00  0.00    +0.000 C 
ATOM      2  O   UNL     1       1.471   6.018  20.744  0.00  0.00    +0.000 OA
ATOM      3  N   UNL     1       1.918   8.134  19.875  0.00  0.00    +0.000 N 
ATOM      4  H   UNL     1       2.443   8.553  19.111  0.00  0.00    +0.000 HD
ENDROOT
BRANCH   3   5
ATOM      5  C   UNL     1       1.025   8.933  20.612  0.00  0.00    +0.000 A 
ATOM      6  C   UNL     1       0.193   9.889  20.020  0.00  0.00    +0.000 A 
ATOM      7  C   UNL     1      -0.644  10.697  20.797  0.00  0.00    +0.000 A 
ATOM      8  C   UNL     1      -0.662  10.563  22.185  0.00  0.00    +0.000 A 
ATOM      9  C   UNL     1      -1.510  11.459  23.032  0.00  0.00    +0.000 C 
ATOM     10  C   UNL     1       0.147   9.586  22.769  0.00  0.00    +0.000 A 
ATOM     11  F   UNL     1       0.150   9.435  24.100  0.00  0.00    +0.000 F 
ATOM     12  C   UNL     1       0.976   8.766  21.998  0.00  0.00    +0.000 A 
ENDBRANCH   3   5
BRANCH   1  15
ATOM     13  C   UNL     1       4.516   6.027  17.348  0.00  0.00    +0.000 A 
ATOM     14  C   UNL     1       3.551   6.857  17.882  0.00  0.00    +0.000 A 
ATOM     15  C   UNL     1       3.102   6.229  19.070  0.00  0.00    +0.000 A 
ATOM     16  N   UNL     1       3.745   5.063  19.270  0.00  0.00    +0.000 NA
ATOM     17  N   UNL     1       4.579   4.962  18.208  0.00  0.00    +0.000 N 
ATOM     18  C   UNL     1       5.463   3.821  18.114  0.00  0.00    +0.000 C 
BRANCH  13  19
ATOM     19  C   UNL     1       5.354   6.217  16.193  0.00  0.00    +0.000 C 
ATOM     20  O   UNL     1       5.368   5.502  15.201  0.00  0.00    +0.000 OA
BRANCH  19  21
ATOM     21  O   UNL     1       6.218   7.240  16.435  0.00  0.00    +0.000 OA
BRANCH  21  23
ATOM     22  C   UNL     1       7.940   8.206  17.774  0.00  0.00    +0.000 C 
ATOM     23  C   UNL     1       7.350   6.909  17.250  0.00  0.00    +0.000 C 
ENDBRANCH  21  23
ENDBRANCH  19  21
ENDBRANCH  13  19
ENDBRANCH   1  15
TORSDOF 5
ENDMDL
MODEL 3
REMARK VINA RESULT:      -7.0      4.701      6.054
REMARK  Name = 
REMARK  8 active torsions:
REMARK  status: ('A' for Active; 'I' for Inactive)
REMARK    1  A    between atoms: C_1  and  C_2
REMARK    2  A    between atoms: C_2  and  O_3
REMARK    3  A    between atoms: O_3  and  C_4
REMARK    4  A    between atoms: C_4  and  C_6
REMARK    5  A    between atoms: C_8  and  C_9
REMARK    6  A    between atoms: N_11  and  C_12
REMARK    7  A    between atoms: C_15  and  C_16
REMARK    8  A    between atoms: N_21  and  C_22
REMARK                            x       y       z     vdW  Elec       q    Type
REMARK                         _______ _______ _______ _____ _____    ______ ____
ROOT
ATOM      1  C   UNL     1       2.470   8.032  18.260  0.00  0.00    +0.000 C 
ATOM      2  O   UNL     1       2.198   8.977  17.525  0.00  0.00    +0.000 OA
ATOM      3  N   UNL     1       2.056   7.870  19.571  0.00  0.00    +0.000 N 
ATOM      4  H   UNL     1       2.489   7.082  20.048  0.00  0.00    +0.000 HD
ENDROOT
BRANCH   3   5
ATOM      5  C   UNL     1       1.218   8.735  20.299  0.00  0.00    +0.000 A 
ATOM      6  C   UNL     1       0.458   9.743  19.697  0.00  0.00    +0.000 A 
ATOM      7  C   UNL     1      -0.323  10.613  20.464  0.00  0.00    +0.000 A 
ATOM      8  C   UNL     1      -0.356  10.490  21.853  0.00  0.00    +0.000 A 
ATOM      9  C   UNL     1      -1.143  11.449  22.690  0.00  0.00    +0.000 C 
ATOM     10  C   UNL     1       0.379   9.463  22.447  0.00  0.00    +0.000 A 
ATOM     11  F   UNL     1       0.366   9.321  23.779  0.00  0.00    +0.000 F 
ATOM     12  C   UNL     1       1.152   8.582  21.685  0.00  0.00    +0.000 A 
ENDBRANCH   3   5
BRANCH   1  15
ATOM     13  C   UNL     1       5.131   5.848  17.009  0.00  0.00    +0.000 A 
ATOM     14  C   UNL     1       4.665   7.115  17.290  0.00  0.00    +0.000 A 
ATOM     15  C   UNL     1       3.352   6.951  17.795  0.00  0.00    +0.000 A 
ATOM     16  N   UNL     1       3.007   5.650  17.823  0.00  0.00    +0.000 NA
ATOM     17  N   UNL     1       4.094   5.011  17.329  0.00  0.00    +0.000 N 
ATOM     18  C   UNL     1       4.084   3.567  17.244  0.00  0.00    +0.000 C 
BRANCH  13  19
ATOM     19  C   UNL     1       6.430   5.427  16.550  0.00  0.00    +0.000 C 
ATOM     20  O   UNL     1       7.346   5.045  17.265  0.00  0.00    +0.000 OA
BRANCH  19  21
ATOM     21  O   UNL     1       6.519   5.643  15.210  0.00  0.00    +0.000 OA
BRANCH  21  23
ATOM     22  C   UNL     1       5.656   3.981  13.733  0.00  0.00    +0.000 C 
ATOM     23  C   UNL     1       6.900   4.504  14.428  0.00  0.00    +0.000 C 
ENDBRANCH  21  23
ENDBRANCH  19  21
ENDBRANCH  13  19
ENDBRANCH   1  15
TORSDOF 5
ENDMDL
MODEL 4
REMARK VINA RESULT:      -6.9      4.981      6.683
REMARK  Name = 
REMARK  8 active torsions:
REMARK  status: ('A' for Active; 'I' for Inactive)
REMARK    1  A    between atoms: C_1  and  C_2
REMARK    2  A    between atoms: C_2  and  O_3
REMARK    3  A    between atoms: O_3  and  C_4
REMARK    4  A    between atoms: C_4  and  C_6
REMARK    5  A    between atoms: C_8  and  C_9
REMARK    6  A    between atoms: N_11  and  C_12
REMARK    7  A    between atoms: C_15  and  C_16
REMARK    8  A    between atoms: N_21  and  C_22
REMARK                            x       y       z     vdW  Elec       q    Type
REMARK                         _______ _______ _______ _____ _____    ______ ____
ROOT
ATOM      1  C   UNL     1       2.070   6.756  19.919  0.00  0.00    +0.000 C 
ATOM      2  O   UNL     1       1.559   6.009  20.748  0.00  0.00    +0.000 OA
ATOM      3  N   UNL     1       1.879   8.124  19.823  0.00  0.00    +0.000 N 
ATOM      4  H   UNL     1       2.294   8.542  18.993  0.00  0.00    +0.000 HD
ENDROOT
BRANCH   3   5
ATOM      5  C   UNL     1       1.094   8.922  20.673  0.00  0.00    +0.000 A 
ATOM      6  C   UNL     1       1.141   8.824  22.068  0.00  0.00    +0.000 A 
ATOM      7  C   UNL     1       0.306   9.603  22.875  0.00  0.00    +0.000 A 
ATOM      8  C   UNL     1      -0.595  10.498  22.299  0.00  0.00    +0.000 A 
ATOM      9  C   UNL     1      -1.534  11.297  23.148  0.00  0.00    +0.000 C 
ATOM     10  C   UNL     1      -0.617  10.616  20.907  0.00  0.00    +0.000 A 
ATOM     11  F   UNL     1      -1.472  11.467  20.327  0.00  0.00    +0.000 F 
ATOM     12  C   UNL     1       0.224   9.850  20.095  0.00  0.00    +0.000 A 
ENDBRANCH   3   5
BRANCH   1  15
ATOM     13  C   UNL     1       4.445   6.080  17.213  0.00  0.00    +0.000 A 
ATOM     14  C   UNL     1       3.785   6.984  18.020  0.00  0.00    +0.000 A 
ATOM     15  C   UNL     1       2.945   6.219  18.866  0.00  0.00    +0.000 A 
ATOM     16  N   UNL     1       3.064   4.904  18.601  0.00  0.00    +0.000 NA
ATOM     17  N   UNL     1       3.963   4.854  17.590  0.00  0.00    +0.000 N 
ATOM     18  C   UNL     1       4.361   3.566  17.065  0.00  0.00    +0.000 C 
BRANCH  13  19
ATOM     19  C   UNL     1       5.472   6.306  16.229  0.00  0.00    +0.000 C 
ATOM     20  O   UNL     1       5.297   6.774  15.113  0.00  0.00    +0.000 OA
BRANCH  19  21
ATOM     21  O   UNL     1       6.648   5.797  16.690  0.00  0.00    +0.000 OA
BRANCH  21  23
ATOM     22  C   UNL     1       7.660   7.800  17.499  0.00  0.00    +0.000 C 
ATOM     23  C   UNL     1       7.162   6.417  17.876  0.00  0.00    +0.000 C 
ENDBRANCH  21  23
ENDBRANCH  19  21
ENDBRANCH  13  19
ENDBRANCH   1  15
TORSDOF 5
ENDMDL
MODEL 5
REMARK VINA RESULT:      -6.8      4.098      4.861
REMARK  Name = 
REMARK  8 active torsions:
REMARK  status: ('A' for Active; 'I' for Inactive)
REMARK    1  A    between atoms: C_1  and  C_2
REMARK    2  A    between atoms: C_2  and  O_3
REMARK    3  A    between atoms: O_3  and  C_4
REMARK    4  A    between atoms: C_4  and  C_6
REMARK    5  A    between atoms: C_8  and  C_9
REMARK    6  A    between atoms: N_11  and  C_12
REMARK    7  A    between atoms: C_15  and  C_16
REMARK    8  A    between atoms: N_21  and  C_22
REMARK                            x       y       z     vdW  Elec       q    Type
REMARK                         _______ _______ _______ _____ _____    ______ ____
ROOT
ATOM      1  C   UNL     1       3.185   6.143  17.958  0.00  0.00    +0.000 C 
ATOM      2  O   UNL     1       2.224   5.399  18.131  0.00  0.00    +0.000 OA
ATOM      3  N   UNL     1       3.225   7.501  18.221  0.00  0.00    +0.000 N 
ATOM      4  H   UNL     1       4.072   7.961  17.894  0.00  0.00    +0.000 HD
ENDROOT
BRANCH   3   5
ATOM      5  C   UNL     1       2.190   8.280  18.769  0.00  0.00    +0.000 A 
ATOM      6  C   UNL     1       1.840   8.236  20.122  0.00  0.00    +0.000 A 
ATOM      7  C   UNL     1       0.771   8.991  20.616  0.00  0.00    +0.000 A 
ATOM      8  C   UNL     1       0.029   9.805  19.759  0.00  0.00    +0.000 A 
ATOM      9  C   UNL     1      -1.152  10.575  20.262  0.00  0.00    +0.000 C 
ATOM     10  C   UNL     1       0.403   9.871  18.415  0.00  0.00    +0.000 A 
ATOM     11  F   UNL     1      -0.291  10.644  17.570  0.00  0.00    +0.000 F 
ATOM     12  C   UNL     1       1.478   9.129  17.918  0.00  0.00    +0.000 A 
ENDBRANCH   3   5
BRANCH   1  15
ATOM     13  C   UNL     1       5.986   4.992  15.897  0.00  0.00    +0.000 A 
ATOM     14  C   UNL     1       4.692   5.461  15.992  0.00  0.00    +0.000 A 
ATOM     15  C   UNL     1       4.433   5.630  17.375  0.00  0.00    +0.000 A 
ATOM     16  N   UNL     1       5.505   5.279  18.111  0.00  0.00    +0.000 NA
ATOM     17  N   UNL     1       6.419   4.884  17.193  0.00  0.00    +0.000 N 
ATOM     18  C   UNL     1       7.729   4.462  17.639  0.00  0.00    +0.000 C 
BRANCH  13  19
ATOM     19  C   UNL     1       6.783   4.726  14.727  0.00  0.00    +0.000 C 
ATOM     20  O   UNL     1       7.690   5.433  14.311  0.00  0.00    +0.000 OA
BRANCH  19  21
ATOM     21  O   UNL     1       6.284   3.634  14.088  0.00  0.00    +0.000 OA
BRANCH  21  23
ATOM     22  C   UNL     1       5.006   3.393  12.088  0.00  0.00    +0.000 C 
ATOM     23  C   UNL     1       6.387   3.658  12.658  0.00  0.00    +0.000 C 
ENDBRANCH  21  23
ENDBRANCH  19  21
ENDBRANCH  13  19
ENDBRANCH   1  15
TORSDOF 5
ENDMDL
MODEL 6
REMARK VINA RESULT:      -6.8      4.887      6.798
REMARK  Name = 
REMARK  8 active torsions:
REMARK  status: ('A' for Active; 'I' for Inactive)
REMARK    1  A    between atoms: C_1  and  C_2
REMARK    2  A    between atoms: C_2  and  O_3
REMARK    3  A    between atoms: O_3  and  C_4
REMARK    4  A    between atoms: C_4  and  C_6
REMARK    5  A    between atoms: C_8  and  C_9
REMARK    6  A    between atoms: N_11  and  C_12
REMARK    7  A    between atoms: C_15  and  C_16
REMARK    8  A    between atoms: N_21  and  C_22
REMARK                            x       y       z     vdW  Elec       q    Type
REMARK                         _______ _______ _______ _____ _____    ______ ____
ROOT
ATOM      1  C   UNL     1       2.335   7.894  18.544  0.00  0.00    +0.000 C 
ATOM      2  O   UNL     1       2.443   8.913  17.869  0.00  0.00    +0.000 OA
ATOM      3  N   UNL     1       1.693   7.785  19.765  0.00  0.00    +0.000 N 
ATOM      4  H   UNL     1       1.821   6.885  20.222  0.00  0.00    +0.000 HD
ENDROOT
BRANCH   3   5
ATOM      5  C   UNL     1       1.010   8.808  20.447  0.00  0.00    +0.000 A 
ATOM      6  C   UNL     1       0.547   9.967  19.815  0.00  0.00    +0.000 A 
ATOM      7  C   UNL     1      -0.083  10.982  20.541  0.00  0.00    +0.000 A 
ATOM      8  C   UNL     1      -0.260  10.857  21.919  0.00  0.00    +0.000 A 
ATOM      9  C   UNL     1      -0.881  11.960  22.718  0.00  0.00    +0.000 C 
ATOM     10  C   UNL     1       0.175   9.685  22.542  0.00  0.00    +0.000 A 
ATOM     11  F   UNL     1       0.019   9.537  23.863  0.00  0.00    +0.000 F 
ATOM     12  C   UNL     1       0.794   8.660  21.819  0.00  0.00    +0.000 A 
ENDBRANCH   3   5
BRANCH   1  15
ATOM     13  C   UNL     1       4.475   5.145  17.408  0.00  0.00    +0.000 A 
ATOM     14  C   UNL     1       4.309   6.484  17.695  0.00  0.00    +0.000 A 
ATOM     15  C   UNL     1       2.962   6.637  18.107  0.00  0.00    +0.000 A 
ATOM     16  N   UNL     1       2.312   5.458  18.074  0.00  0.00    +0.000 NA
ATOM     17  N   UNL     1       3.246   4.581  17.634  0.00  0.00    +0.000 N 
ATOM     18  C   UNL     1       2.894   3.184  17.506  0.00  0.00    +0.000 C 
BRANCH  13  19
ATOM     19  C   UNL     1       5.663   4.427  17.024  0.00  0.00    +0.000 C 
ATOM     20  O   UNL     1       5.884   3.962  15.916  0.00  0.00    +0.000 OA
BRANCH  19  21
ATOM     21  O   UNL     1       6.442   4.239  18.124  0.00  0.00    +0.000 OA
BRANCH  21  23
ATOM     22  C   UNL     1       7.813   5.975  19.015  0.00  0.00    +0.000 C 
ATOM     23  C   UNL     1       7.756   4.805  18.050  0.00  0.00    +0.000 C 
ENDBRANCH  21  23
ENDBRANCH  19  21
ENDBRANCH  13  19
ENDBRANCH   1  15
TORSDOF 5
ENDMDL
MODEL 7
REMARK VINA RESULT:      -6.7      4.948      6.602
REMARK  Name = 
REMARK  8 active torsions:
REMARK  status: ('A' for Active; 'I' for Inactive)
REMARK    1  A    between atoms: C_1  and  C_2
REMARK    2  A    between atoms: C_2  and  O_3
REMARK    3  A    between atoms: O_3  and  C_4
REMARK    4  A    between atoms: C_4  and  C_6
REMARK    5  A    between atoms: C_8  and  C_9
REMARK    6  A    between atoms: N_11  and  C_12
REMARK    7  A    between atoms: C_15  and  C_16
REMARK    8  A    between atoms: N_21  and  C_22
REMARK                            x       y       z     vdW  Elec       q    Type
REMARK                         _______ _______ _______ _____ _____    ______ ____
ROOT
ATOM      1  C   UNL     1       2.320   8.117  18.469  0.00  0.00    +0.000 C 
ATOM      2  O   UNL     1       2.044   9.048  17.718  0.00  0.00    +0.000 OA
ATOM      3  N   UNL     1       1.910   7.977  19.784  0.00  0.00    +0.000 N 
ATOM      4  H   UNL     1       2.347   7.199  20.273  0.00  0.00    +0.000 HD
ENDROOT
BRANCH   3   5
ATOM      5  C   UNL     1       1.071   8.851  20.498  0.00  0.00    +0.000 A 
ATOM      6  C   UNL     1       0.384   9.909  19.895  0.00  0.00    +0.000 A 
ATOM      7  C   UNL     1      -0.401  10.785  20.651  0.00  0.00    +0.000 A 
ATOM      8  C   UNL     1      -0.511  10.617  22.032  0.00  0.00    +0.000 A 
ATOM      9  C   UNL     1      -1.301  11.580  22.862  0.00  0.00    +0.000 C 
ATOM     10  C   UNL     1       0.151   9.541  22.626  0.00  0.00    +0.000 A 
ATOM     11  F   UNL     1       0.063   9.356  23.949  0.00  0.00    +0.000 F 
ATOM     12  C   UNL     1       0.927   8.654  21.873  0.00  0.00    +0.000 A 
ENDBRANCH   3   5
BRANCH   1  15
ATOM     13  C   UNL     1       4.760   5.881  16.897  0.00  0.00    +0.000 A 
ATOM     14  C   UNL     1       4.119   7.103  16.941  0.00  0.00    +0.000 A 
ATOM     15  C   UNL     1       3.206   7.032  18.021  0.00  0.00    +0.000 A 
ATOM     16  N   UNL     1       3.263   5.828  18.622  0.00  0.00    +0.000 NA
ATOM     17  N   UNL     1       4.198   5.152  17.912  0.00  0.00    +0.000 N 
ATOM     18  C   UNL     1       4.545   3.804  18.309  0.00  0.00    +0.000 C 
BRANCH  13  19
ATOM     19  C   UNL     1       5.837   5.438  16.050  0.00  0.00    +0.000 C 
ATOM     20  O   UNL     1       5.853   4.397  15.408  0.00  0.00    +0.000 OA
BRANCH  19  21
ATOM     21  O   UNL     1       6.884   6.299  16.175  0.00  0.00    +0.000 OA
BRANCH  21  23
ATOM     22  C   UNL     1       7.786   7.887  17.709  0.00  0.00    +0.000 C 
ATOM     23  C   UNL     1       7.415   6.430  17.500  0.00  0.00    +0.000 C 
ENDBRANCH  21  23
ENDBRANCH  19  21
ENDBRANCH  13  19
ENDBRANCH   1  15
TORSDOF 5
ENDMDL
MODEL 8
REMARK VINA RESULT:      -6.7      4.651      6.438
REMARK  Name = 
REMARK  8 active torsions:
REMARK  status: ('A' for Active; 'I' for Inactive)
REMARK    1  A    between atoms: C_1  and  C_2
REMARK    2  A    between atoms: C_2  and  O_3
REMARK    3  A    between atoms: O_3  and  C_4
REMARK    4  A    between atoms: C_4  and  C_6
REMARK    5  A    between atoms: C_8  and  C_9
REMARK    6  A    between atoms: N_11  and  C_12
REMARK    7  A    between atoms: C_15  and  C_16
REMARK    8  A    between atoms: N_21  and  C_22
REMARK                            x       y       z     vdW  Elec       q    Type
REMARK                         _______ _______ _______ _____ _____    ______ ____
ROOT
ATOM      1  C   UNL     1       1.967   6.197  20.256  0.00  0.00    +0.000 C 
ATOM      2  O   UNL     1       1.122   5.587  20.904  0.00  0.00    +0.000 OA
ATOM      3  N   UNL     1       2.094   7.573  20.167  0.00  0.00    +0.000 N 
ATOM      4  H   UNL     1       2.781   7.881  19.482  0.00  0.00    +0.000 HD
ENDROOT
BRANCH   3   5
ATOM      5  C   UNL     1       1.305   8.532  20.827  0.00  0.00    +0.000 A 
ATOM      6  C   UNL     1       1.279   8.669  22.219  0.00  0.00    +0.000 A 
ATOM      7  C   UNL     1       0.442   9.603  22.836  0.00  0.00    +0.000 A 
ATOM      8  C   UNL     1      -0.388  10.420  22.069  0.00  0.00    +0.000 A 
ATOM      9  C   UNL     1      -1.331  11.385  22.719  0.00  0.00    +0.000 C 
ATOM     10  C   UNL     1      -0.336  10.302  20.678  0.00  0.00    +0.000 A 
ATOM     11  F   UNL     1      -1.123  11.073  19.917  0.00  0.00    +0.000 F 
ATOM     12  C   UNL     1       0.508   9.379  20.054  0.00  0.00    +0.000 A 
ENDBRANCH   3   5
BRANCH   1  15
ATOM     13  C   UNL     1       4.819   4.932  18.336  0.00  0.00    +0.000 A 
ATOM     14  C   UNL     1       4.237   5.936  19.082  0.00  0.00    +0.000 A 
ATOM     15  C   UNL     1       2.946   5.472  19.432  0.00  0.00    +0.000 A 
ATOM     16  N   UNL     1       2.723   4.243  18.927  0.00  0.00    +0.000 NA
ATOM     17  N   UNL     1       3.864   3.952  18.259  0.00  0.00    +0.000 N 
ATOM     18  C   UNL     1       3.989   2.667  17.606  0.00  0.00    +0.000 C 
BRANCH  13  19
ATOM     19  C   UNL     1       6.151   4.842  17.795  0.00  0.00    +0.000 C 
ATOM     20  O   UNL     1       7.117   4.356  18.365  0.00  0.00    +0.000 OA
BRANCH  19  21
ATOM     21  O   UNL     1       6.191   5.500  16.604  0.00  0.00    +0.000 OA
BRANCH  21  23
ATOM     22  C   UNL     1       6.048   3.965  14.784  0.00  0.00    +0.000 C 
ATOM     23  C   UNL     1       6.971   4.869  15.580  0.00  0.00    +0.000 C 
ENDBRANCH  21  23
ENDBRANCH  19  21
ENDBRANCH  13  19
ENDBRANCH   1  15
TORSDOF 5
ENDMDL
MODEL 9
REMARK VINA RESULT:      -6.7      1.046      1.464
REMARK  Name = 
REMARK  8 active torsions:
REMARK  status: ('A' for Active; 'I' for Inactive)
REMARK    1  A    between atoms: C_1  and  C_2
REMARK    2  A    between atoms: C_2  and  O_3
REMARK    3  A    between atoms: O_3  and  C_4
REMARK    4  A    between atoms: C_4  and  C_6
REMARK    5  A    between atoms: C_8  and  C_9
REMARK    6  A    between atoms: N_11  and  C_12
REMARK    7  A    between atoms: C_15  and  C_16
REMARK    8  A    between atoms: N_21  and  C_22
REMARK                            x       y       z     vdW  Elec       q    Type
REMARK                         _______ _______ _______ _____ _____    ______ ____
ROOT
ATOM      1  C   UNL     1       5.113   4.620  16.605  0.00  0.00    +0.000 C 
ATOM      2  O   UNL     1       5.358   5.580  17.329  0.00  0.00    +0.000 OA
ATOM      3  N   UNL     1       4.267   3.565  16.903  0.00  0.00    +0.000 N 
ATOM      4  H   UNL     1       4.294   2.808  16.224  0.00  0.00    +0.000 HD
ENDROOT
BRANCH   3   5
ATOM      5  C   UNL     1       3.501   3.410  18.072  0.00  0.00    +0.000 A 
ATOM      6  C   UNL     1       2.194   3.893  18.196  0.00  0.00    +0.000 A 
ATOM      7  C   UNL     1       1.486   3.761  19.395  0.00  0.00    +0.000 A 
ATOM      8  C   UNL     1       2.076   3.140  20.496  0.00  0.00    +0.000 A 
ATOM      9  C   UNL     1       1.352   3.042  21.802  0.00  0.00    +0.000 C 
ATOM     10  C   UNL     1       3.369   2.631  20.359  0.00  0.00    +0.000 A 
ATOM     11  F   UNL     1       3.961   2.031  21.400  0.00  0.00    +0.000 F 
ATOM     12  C   UNL     1       4.078   2.749  19.159  0.00  0.00    +0.000 A 
ENDBRANCH   3   5
BRANCH   1  15
ATOM     13  C   UNL     1       6.339   3.722  13.272  0.00  0.00    +0.000 A 
ATOM     14  C   UNL     1       5.531   3.450  14.356  0.00  0.00    +0.000 A 
ATOM     15  C   UNL     1       5.776   4.477  15.300  0.00  0.00    +0.000 A 
ATOM     16  N   UNL     1       6.695   5.346  14.838  0.00  0.00    +0.000 NA
ATOM     17  N   UNL     1       7.027   4.855  13.620  0.00  0.00    +0.000 N 
ATOM     18  C   UNL     1       7.987   5.572  12.810  0.00  0.00    +0.000 C 
BRANCH  13  19
ATOM     19  C   UNL     1       6.432   3.048  12.003  0.00  0.00    +0.000 C 
ATOM     20  O   UNL     1       7.454   2.907  11.347  0.00  0.00    +0.000 OA
BRANCH  19  21
ATOM     21  O   UNL     1       5.181   2.706  11.589  0.00  0.00    +0.000 OA
BRANCH  21  23
ATOM     22  C   UNL     1       3.343   3.506  10.296  0.00  0.00    +0.000 C 
ATOM     23  C   UNL     1       4.253   3.793  11.477  0.00  0.00    +0.000 C 
ENDBRANCH  21  23
ENDBRANCH  19  21
ENDBRANCH  13  19
ENDBRANCH   1  15
TORSDOF 5
ENDMDL
