MODEL 1
REMARK VINA RESULT:      -8.7      0.000      0.000
REMARK  Name = 
REMARK  4 active torsions:
REMARK  status: ('A' for Active; 'I' for Inactive)
REMARK    1  A    between atoms: C_1  and  C_2
REMARK    2  A    between atoms: C_3  and  C_4
REMARK    3  A    between atoms: N_6  and  C_7
REMARK    4  A    between atoms: C_24  and  C_25
REMARK                            x       y       z     vdW  Elec       q    Type
REMARK                         _______ _______ _______ _____ _____    ______ ____
ROOT
ATOM      1  C   UNL     1       0.723  11.998  18.541  0.00  0.00    +0.000 C 
ATOM      2  C   UNL     1       0.496  10.931  19.572  0.00  0.00    +0.000 A 
ATOM      3  C   UNL     1      -0.275  11.061  20.734  0.00  0.00    +0.000 A 
ATOM      4  S   UNL     1      -0.262   9.609  21.652  0.00  0.00    +0.000 S 
ATOM      5  C   UNL     1       0.766   8.832  20.566  0.00  0.00    +0.000 A 
ATOM      6  N   UNL     1       1.204   7.596  20.849  0.00  0.00    +0.000 NA
ATOM      7  C   UNL     1       2.015   7.082  19.976  0.00  0.00    +0.000 A 
ATOM      8  N   UNL     1       2.395   7.673  18.775  0.00  0.00    +0.000 N 
ATOM      9  C   UNL     1       1.969   9.002  18.467  0.00  0.00    +0.000 A 
ATOM     10  O   UNL     1       2.297   9.618  17.453  0.00  0.00    +0.000 OA
ATOM     11  C   UNL     1       1.090   9.605  19.482  0.00  0.00    +0.000 A 
ATOM     12  N   UNL     1       3.226   7.081  17.824  0.00  0.00    +0.000 NA
ATOM     13  C   UNL     1       3.606   5.838  17.900  0.00  0.00    +0.000 C 
ATOM     14  C   UNL     1       3.228   4.862  18.971  0.00  0.00    +0.000 C 
ATOM     15  S   UNL     1       2.680   5.565  20.488  0.00  0.00    +0.000 S 
ENDROOT
BRANCH  13  16
ATOM     16  C   UNL     1       4.488   5.274  16.821  0.00  0.00    +0.000 A 
ATOM     17  C   UNL     1       5.140   6.127  15.927  0.00  0.00    +0.000 A 
ATOM     18  C   UNL     1       6.047   5.604  14.999  0.00  0.00    +0.000 A 
ATOM     19  C   UNL     1       6.299   4.232  14.951  0.00  0.00    +0.000 A 
ATOM     20  C   UNL     1       5.627   3.372  15.812  0.00  0.00    +0.000 A 
ATOM     21  C   UNL     1       4.719   3.889  16.737  0.00  0.00    +0.000 A 
ENDBRANCH  13  16
BRANCH   3  22
ATOM     22  C   UNL     1      -1.079  12.184  21.240  0.00  0.00    +0.000 C 
ATOM     23  O   UNL     1      -1.825  12.853  20.529  0.00  0.00    +0.000 OA
ATOM     24  N   UNL     1      -0.878  12.468  22.587  0.00  0.00    +0.000 N 
ATOM     25  H   UNL     1      -0.017  12.112  22.990  0.00  0.00    +0.000 HD
BRANCH  24  26
ATOM     26  C   UNL     1      -1.568  13.432  23.340  0.00  0.00    +0.000 A 
ATOM     27  C   UNL     1      -1.052  14.707  23.577  0.00  0.00    +0.000 A 
ATOM     28  C   UNL     1      -1.802  15.631  24.308  0.00  0.00    +0.000 A 
ATOM     29  C   UNL     1      -3.042  15.263  24.826  0.00  0.00    +0.000 A 
ATOM     30  F   UNL     1      -3.740  16.144  25.555  0.00  0.00    +0.000 F 
ATOM     31  C   UNL     1      -3.570  14.000  24.595  0.00  0.00    +0.000 A 
ATOM     32  C   UNL     1      -2.840  13.105  23.825  0.00  0.00    +0.000 A 
ATOM     33  F   UNL     1      -3.345  11.885  23.589  0.00  0.00    +0.000 F 
ENDBRANCH  24  26
ENDBRANCH   3  22
TORSDOF 3
ENDMDL
MODEL 2
REMARK VINA RESULT:      -8.6      1.407      1.464
REMARK  Name = 
REMARK  4 active torsions:
REMARK  status: ('A' for Active; 'I' for Inactive)
REMARK    1  A    between atoms: C_1  and  C_2
REMARK    2  A    between atoms: C_3  and  C_4
REMARK    3  A    between atoms: N_6  and  C_7
REMARK    4  A    between atoms: C_24  and  C_25
REMARK                            x       y       z     vdW  Elec       q    Type
REMARK                         _______ _______ _______ _____ _____    ______ ____
ROOT
ATOM      1  C   UNL     1       0.827  11.976  19.440  0.00  0.00    +0.000 C 
ATOM      2  C   UNL     1       0.545  10.807  20.337  0.00  0.00    +0.000 A 
ATOM      3  C   UNL     1      -0.227  10.834  21.506  0.00  0.00    +0.000 A 
ATOM      4  S   UNL     1      -0.285   9.285  22.245  0.00  0.00    +0.000 S 
ATOM      5  C   UNL     1       0.714   8.595  21.077  0.00  0.00    +0.000 A 
ATOM      6  N   UNL     1       1.094   7.316  21.212  0.00  0.00    +0.000 NA
ATOM      7  C   UNL     1       1.887   6.872  20.285  0.00  0.00    +0.000 A 
ATOM      8  N   UNL     1       2.301   7.582  19.163  0.00  0.00    +0.000 N 
ATOM      9  C   UNL     1       1.938   8.957  19.014  0.00  0.00    +0.000 A 
ATOM     10  O   UNL     1       2.300   9.672  18.080  0.00  0.00    +0.000 OA
ATOM     11  C   UNL     1       1.080   9.475  20.092  0.00  0.00    +0.000 A 
ATOM     12  N   UNL     1       3.111   7.070  18.150  0.00  0.00    +0.000 NA
ATOM     13  C   UNL     1       3.434   5.810  18.079  0.00  0.00    +0.000 C 
ATOM     14  C   UNL     1       3.006   4.733  19.027  0.00  0.00    +0.000 C 
ATOM     15  S   UNL     1       2.479   5.276  20.615  0.00  0.00    +0.000 S 
ENDROOT
BRANCH  13  16
ATOM     16  C   UNL     1       4.297   5.338  16.942  0.00  0.00    +0.000 A 
ATOM     17  C   UNL     1       4.971   6.261  16.139  0.00  0.00    +0.000 A 
ATOM     18  C   UNL     1       5.861   5.813  15.156  0.00  0.00    +0.000 A 
ATOM     19  C   UNL     1       6.073   4.447  14.963  0.00  0.00    +0.000 A 
ATOM     20  C   UNL     1       5.378   3.521  15.733  0.00  0.00    +0.000 A 
ATOM     21  C   UNL     1       4.488   3.963  16.712  0.00  0.00    +0.000 A 
ENDBRANCH  13  16
BRANCH   3  22
ATOM     22  C   UNL     1      -0.982  11.925  22.140  0.00  0.00    +0.000 C 
ATOM     23  O   UNL     1      -0.491  12.694  22.962  0.00  0.00    +0.000 OA
ATOM     24  N   UNL     1      -2.322  11.978  21.776  0.00  0.00    +0.000 N 
ATOM     25  H   UNL     1      -2.709  11.124  21.386  0.00  0.00    +0.000 HD
BRANCH  24  26
ATOM     26  C   UNL     1      -3.248  12.958  22.169  0.00  0.00    +0.000 A 
ATOM     27  C   UNL     1      -3.585  14.041  21.355  0.00  0.00    +0.000 A 
ATOM     28  C   UNL     1      -4.537  14.964  21.793  0.00  0.00    +0.000 A 
ATOM     29  C   UNL     1      -5.117  14.819  23.051  0.00  0.00    +0.000 A 
ATOM     30  F   UNL     1      -6.005  15.728  23.477  0.00  0.00    +0.000 F 
ATOM     31  C   UNL     1      -4.796  13.745  23.870  0.00  0.00    +0.000 A 
ATOM     32  C   UNL     1      -3.886  12.805  23.407  0.00  0.00    +0.000 A 
ATOM     33  F   UNL     1      -3.575  11.758  24.187  0.00  0.00    +0.000 F 
ENDBRANCH  24  26
ENDBRANCH   3  22
TORSDOF 3
ENDMDL
MODEL 3
REMARK VINA RESULT:      -8.5      0.807      1.453
REMARK  Name = 
REMARK  4 active torsions:
REMARK  status: ('A' for Active; 'I' for Inactive)
REMARK    1  A    between atoms: C_1  and  C_2
REMARK    2  A    between atoms: C_3  and  C_4
REMARK    3  A    between atoms: N_6  and  C_7
REMARK    4  A    between atoms: C_24  and  C_25
REMARK                            x       y       z     vdW  Elec       q    Type
REMARK                         _______ _______ _______ _____ _____    ______ ____
ROOT
ATOM      1  C   UNL     1       0.725  11.814  18.520  0.00  0.00    +0.000 C 
ATOM      2  C   UNL     1       0.500  10.734  19.537  0.00  0.00    +0.000 A 
ATOM      3  C   UNL     1      -0.296  10.838  20.685  0.00  0.00    +0.000 A 
ATOM      4  S   UNL     1      -0.270   9.378  21.590  0.00  0.00    +0.000 S 
ATOM      5  C   UNL     1       0.794   8.631  20.518  0.00  0.00    +0.000 A 
ATOM      6  N   UNL     1       1.252   7.402  20.799  0.00  0.00    +0.000 NA
ATOM      7  C   UNL     1       2.089   6.913  19.937  0.00  0.00    +0.000 A 
ATOM      8  N   UNL     1       2.480   7.522  18.749  0.00  0.00    +0.000 N 
ATOM      9  C   UNL     1       2.034   8.845  18.444  0.00  0.00    +0.000 A 
ATOM     10  O   UNL     1       2.369   9.476  17.443  0.00  0.00    +0.000 OA
ATOM     11  C   UNL     1       1.123   9.421  19.447  0.00  0.00    +0.000 A 
ATOM     12  N   UNL     1       3.342   6.956  17.810  0.00  0.00    +0.000 NA
ATOM     13  C   UNL     1       3.746   5.720  17.882  0.00  0.00    +0.000 C 
ATOM     14  C   UNL     1       3.367   4.727  18.937  0.00  0.00    +0.000 C 
ATOM     15  S   UNL     1       2.775   5.405  20.448  0.00  0.00    +0.000 S 
ENDROOT
BRANCH  13  16
ATOM     16  C   UNL     1       4.660   5.183  16.816  0.00  0.00    +0.000 A 
ATOM     17  C   UNL     1       4.895   3.810  16.716  0.00  0.00    +0.000 A 
ATOM     18  C   UNL     1       5.653   3.306  15.654  0.00  0.00    +0.000 A 
ATOM     19  C   UNL     1       6.190   4.169  14.696  0.00  0.00    +0.000 A 
ATOM     20  C   UNL     1       5.992   5.541  14.809  0.00  0.00    +0.000 A 
ATOM     21  C   UNL     1       5.239   6.047  15.868  0.00  0.00    +0.000 A 
ENDBRANCH  13  16
BRANCH   3  22
ATOM     22  C   UNL     1      -1.131  11.939  21.185  0.00  0.00    +0.000 C 
ATOM     23  O   UNL     1      -1.812  12.654  20.454  0.00  0.00    +0.000 OA
ATOM     24  N   UNL     1      -1.042  12.146  22.557  0.00  0.00    +0.000 N 
ATOM     25  H   UNL     1      -0.219  11.759  23.010  0.00  0.00    +0.000 HD
BRANCH  24  26
ATOM     26  C   UNL     1      -1.785  13.075  23.304  0.00  0.00    +0.000 A 
ATOM     27  C   UNL     1      -3.041  12.775  23.835  0.00  0.00    +0.000 A 
ATOM     28  C   UNL     1      -3.715  13.733  24.596  0.00  0.00    +0.000 A 
ATOM     29  C   UNL     1      -3.148  14.991  24.790  0.00  0.00    +0.000 A 
ATOM     30  F   UNL     1      -3.817  15.915  25.492  0.00  0.00    +0.000 F 
ATOM     31  C   UNL     1      -1.898  15.302  24.271  0.00  0.00    +0.000 A 
ATOM     32  C   UNL     1      -1.213  14.327  23.559  0.00  0.00    +0.000 A 
ATOM     33  F   UNL     1      -0.000  14.615  23.060  0.00  0.00    +0.000 F 
ENDBRANCH  24  26
ENDBRANCH   3  22
TORSDOF 3
ENDMDL
MODEL 4
REMARK VINA RESULT:      -8.4      4.447     10.311
REMARK  Name = 
REMARK  4 active torsions:
REMARK  status: ('A' for Active; 'I' for Inactive)
REMARK    1  A    between atoms: C_1  and  C_2
REMARK    2  A    between atoms: C_3  and  C_4
REMARK    3  A    between atoms: N_6  and  C_7
REMARK    4  A    between atoms: C_24  and  C_25
REMARK                            x       y       z     vdW  Elec       q    Type
REMARK                         _______ _______ _______ _____ _____    ______ ____
ROOT
ATOM      1  C   UNL     1       1.926   8.749  17.807  0.00  0.00    +0.000 C 
ATOM      2  C   UNL     1       1.553   9.012  19.236  0.00  0.00    +0.000 A 
ATOM      3  C   UNL     1       1.501   8.060  20.262  0.00  0.00    +0.000 A 
ATOM      4  S   UNL     1       1.012   8.773  21.746  0.00  0.00    +0.000 S 
ATOM      5  C   UNL     1       0.835  10.299  21.052  0.00  0.00    +0.000 A 
ATOM      6  N   UNL     1       0.361  11.307  21.799  0.00  0.00    +0.000 NA
ATOM      7  C   UNL     1       0.227  12.440  21.181  0.00  0.00    +0.000 A 
ATOM      8  N   UNL     1       0.592  12.692  19.863  0.00  0.00    +0.000 N 
ATOM      9  C   UNL     1       1.067  11.627  19.036  0.00  0.00    +0.000 A 
ATOM     10  O   UNL     1       1.365  11.751  17.849  0.00  0.00    +0.000 OA
ATOM     11  C   UNL     1       1.171  10.330  19.724  0.00  0.00    +0.000 A 
ATOM     12  N   UNL     1       0.490  13.932  19.232  0.00  0.00    +0.000 NA
ATOM     13  C   UNL     1       0.183  15.023  19.872  0.00  0.00    +0.000 C 
ATOM     14  C   UNL     1      -0.094  15.138  21.339  0.00  0.00    +0.000 C 
ATOM     15  S   UNL     1      -0.554  13.647  22.150  0.00  0.00    +0.000 S 
ENDROOT
BRANCH  13  16
ATOM     16  C   UNL     1       0.112  16.322  19.118  0.00  0.00    +0.000 A 
ATOM     17  C   UNL     1       1.218  16.776  18.393  0.00  0.00    +0.000 A 
ATOM     18  C   UNL     1       1.109  17.924  17.602  0.00  0.00    +0.000 A 
ATOM     19  C   UNL     1      -0.093  18.630  17.539  0.00  0.00    +0.000 A 
ATOM     20  C   UNL     1      -1.187  18.206  18.286  0.00  0.00    +0.000 A 
ATOM     21  C   UNL     1      -1.082  17.063  19.079  0.00  0.00    +0.000 A 
ENDBRANCH  13  16
BRANCH   3  22
ATOM     22  C   UNL     1       1.818   6.624  20.264  0.00  0.00    +0.000 C 
ATOM     23  O   UNL     1       1.480   5.860  21.165  0.00  0.00    +0.000 OA
ATOM     24  N   UNL     1       2.590   6.208  19.184  0.00  0.00    +0.000 N 
ATOM     25  H   UNL     1       3.102   6.939  18.700  0.00  0.00    +0.000 HD
BRANCH  24  26
ATOM     26  C   UNL     1       2.970   4.887  18.899  0.00  0.00    +0.000 A 
ATOM     27  C   UNL     1       4.069   4.276  19.506  0.00  0.00    +0.000 A 
ATOM     28  C   UNL     1       4.375   2.947  19.202  0.00  0.00    +0.000 A 
ATOM     29  C   UNL     1       3.605   2.253  18.271  0.00  0.00    +0.000 A 
ATOM     30  F   UNL     1       3.926   0.990  17.960  0.00  0.00    +0.000 F 
ATOM     31  C   UNL     1       2.506   2.846  17.664  0.00  0.00    +0.000 A 
ATOM     32  C   UNL     1       2.179   4.150  18.009  0.00  0.00    +0.000 A 
ATOM     33  F   UNL     1       1.114   4.729  17.433  0.00  0.00    +0.000 F 
ENDBRANCH  24  26
ENDBRANCH   3  22
TORSDOF 3
ENDMDL
MODEL 5
REMARK VINA RESULT:      -8.4      4.125     10.929
REMARK  Name = 
REMARK  4 active torsions:
REMARK  status: ('A' for Active; 'I' for Inactive)
REMARK    1  A    between atoms: C_1  and  C_2
REMARK    2  A    between atoms: C_3  and  C_4
REMARK    3  A    between atoms: N_6  and  C_7
REMARK    4  A    between atoms: C_24  and  C_25
REMARK                            x       y       z     vdW  Elec       q    Type
REMARK                         _______ _______ _______ _____ _____    ______ ____
ROOT
ATOM      1  C   UNL     1       1.473   7.781  21.564  0.00  0.00    +0.000 C 
ATOM      2  C   UNL     1       1.432   8.659  20.348  0.00  0.00    +0.000 A 
ATOM      3  C   UNL     1       1.943   8.338  19.084  0.00  0.00    +0.000 A 
ATOM      4  S   UNL     1       1.706   9.629  17.975  0.00  0.00    +0.000 S 
ATOM      5  C   UNL     1       0.980  10.609  19.137  0.00  0.00    +0.000 A 
ATOM      6  N   UNL     1       0.636  11.864  18.814  0.00  0.00    +0.000 NA
ATOM      7  C   UNL     1       0.111  12.560  19.775  0.00  0.00    +0.000 A 
ATOM      8  N   UNL     1      -0.175  12.091  21.053  0.00  0.00    +0.000 N 
ATOM      9  C   UNL     1       0.213  10.769  21.433  0.00  0.00    +0.000 A 
ATOM     10  O   UNL     1       0.044  10.292  22.554  0.00  0.00    +0.000 OA
ATOM     11  C   UNL     1       0.855   9.996  20.357  0.00  0.00    +0.000 A 
ATOM     12  N   UNL     1      -0.789  12.840  22.056  0.00  0.00    +0.000 NA
ATOM     13  C   UNL     1      -1.303  14.017  21.841  0.00  0.00    +0.000 C 
ATOM     14  C   UNL     1      -1.330  14.742  20.530  0.00  0.00    +0.000 C 
ATOM     15  S   UNL     1      -0.144  14.219  19.341  0.00  0.00    +0.000 S 
ENDROOT
BRANCH  13  16
ATOM     16  C   UNL     1      -1.964  14.749  22.975  0.00  0.00    +0.000 A 
ATOM     17  C   UNL     1      -3.190  15.390  22.780  0.00  0.00    +0.000 A 
ATOM     18  C   UNL     1      -3.854  15.971  23.865  0.00  0.00    +0.000 A 
ATOM     19  C   UNL     1      -3.296  15.926  25.144  0.00  0.00    +0.000 A 
ATOM     20  C   UNL     1      -2.059  15.322  25.340  0.00  0.00    +0.000 A 
ATOM     21  C   UNL     1      -1.392  14.744  24.260  0.00  0.00    +0.000 A 
ENDBRANCH  13  16
BRANCH   3  22
ATOM     22  C   UNL     1       2.585   7.114  18.584  0.00  0.00    +0.000 C 
ATOM     23  O   UNL     1       3.429   7.113  17.690  0.00  0.00    +0.000 OA
ATOM     24  N   UNL     1       2.115   5.943  19.167  0.00  0.00    +0.000 N 
ATOM     25  H   UNL     1       1.206   6.008  19.617  0.00  0.00    +0.000 HD
BRANCH  24  26
ATOM     26  C   UNL     1       2.604   4.648  18.933  0.00  0.00    +0.000 A 
ATOM     27  C   UNL     1       3.653   4.098  19.671  0.00  0.00    +0.000 A 
ATOM     28  C   UNL     1       4.072   2.791  19.409  0.00  0.00    +0.000 A 
ATOM     29  C   UNL     1       3.464   2.059  18.391  0.00  0.00    +0.000 A 
ATOM     30  F   UNL     1       3.895   0.819  18.124  0.00  0.00    +0.000 F 
ATOM     31  C   UNL     1       2.416   2.590  17.651  0.00  0.00    +0.000 A 
ATOM     32  C   UNL     1       1.974   3.871  17.952  0.00  0.00    +0.000 A 
ATOM     33  F   UNL     1       0.956   4.391  17.248  0.00  0.00    +0.000 F 
ENDBRANCH  24  26
ENDBRANCH   3  22
TORSDOF 3
ENDMDL
MODEL 6
REMARK VINA RESULT:      -8.4      4.554     10.311
REMARK  Name = 
REMARK  4 active torsions:
REMARK  status: ('A' for Active; 'I' for Inactive)
REMARK    1  A    between atoms: C_1  and  C_2
REMARK    2  A    between atoms: C_3  and  C_4
REMARK    3  A    between atoms: N_6  and  C_7
REMARK    4  A    between atoms: C_24  and  C_25
REMARK                            x       y       z     vdW  Elec       q    Type
REMARK                         _______ _______ _______ _____ _____    ______ ____
ROOT
ATOM      1  C   UNL     1       2.119   8.709  17.715  0.00  0.00    +0.000 C 
ATOM      2  C   UNL     1       1.681   9.011  19.117  0.00  0.00    +0.000 A 
ATOM      3  C   UNL     1       1.561   8.083  20.160  0.00  0.00    +0.000 A 
ATOM      4  S   UNL     1       1.013   8.839  21.602  0.00  0.00    +0.000 S 
ATOM      5  C   UNL     1       0.898  10.351  20.867  0.00  0.00    +0.000 A 
ATOM      6  N   UNL     1       0.406  11.384  21.568  0.00  0.00    +0.000 NA
ATOM      7  C   UNL     1       0.324  12.505  20.919  0.00  0.00    +0.000 A 
ATOM      8  N   UNL     1       0.759  12.721  19.615  0.00  0.00    +0.000 N 
ATOM      9  C   UNL     1       1.254  11.629  18.837  0.00  0.00    +0.000 A 
ATOM     10  O   UNL     1       1.613  11.720  17.663  0.00  0.00    +0.000 OA
ATOM     11  C   UNL     1       1.300  10.346  19.557  0.00  0.00    +0.000 A 
ATOM     12  N   UNL     1       0.710  13.947  18.953  0.00  0.00    +0.000 NA
ATOM     13  C   UNL     1       0.393  15.058  19.553  0.00  0.00    +0.000 C 
ATOM     14  C   UNL     1       0.046  15.211  21.002  0.00  0.00    +0.000 C 
ATOM     15  S   UNL     1      -0.481  13.747  21.821  0.00  0.00    +0.000 S 
ENDROOT
BRANCH  13  16
ATOM     16  C   UNL     1       0.384  16.340  18.768  0.00  0.00    +0.000 A 
ATOM     17  C   UNL     1       1.565  16.827  18.202  0.00  0.00    +0.000 A 
ATOM     18  C   UNL     1       1.529  17.958  17.378  0.00  0.00    +0.000 A 
ATOM     19  C   UNL     1       0.323  18.612  17.125  0.00  0.00    +0.000 A 
ATOM     20  C   UNL     1      -0.851  18.156  17.715  0.00  0.00    +0.000 A 
ATOM     21  C   UNL     1      -0.820  17.031  18.539  0.00  0.00    +0.000 A 
ENDBRANCH  13  16
BRANCH   3  22
ATOM     22  C   UNL     1       1.851   6.642  20.209  0.00  0.00    +0.000 C 
ATOM     23  O   UNL     1       1.645   5.947  21.201  0.00  0.00    +0.000 OA
ATOM     24  N   UNL     1       2.438   6.139  19.054  0.00  0.00    +0.000 N 
ATOM     25  H   UNL     1       2.881   6.824  18.449  0.00  0.00    +0.000 HD
BRANCH  24  26
ATOM     26  C   UNL     1       2.748   4.792  18.803  0.00  0.00    +0.000 A 
ATOM     27  C   UNL     1       1.857   3.924  18.170  0.00  0.00    +0.000 A 
ATOM     28  C   UNL     1       2.238   2.603  17.921  0.00  0.00    +0.000 A 
ATOM     29  C   UNL     1       3.489   2.152  18.338  0.00  0.00    +0.000 A 
ATOM     30  F   UNL     1       3.833   0.875  18.126  0.00  0.00    +0.000 F 
ATOM     31  C   UNL     1       4.387   3.005  18.965  0.00  0.00    +0.000 A 
ATOM     32  C   UNL     1       4.020   4.329  19.163  0.00  0.00    +0.000 A 
ATOM     33  F   UNL     1       4.884   5.163  19.761  0.00  0.00    +0.000 F 
ENDBRANCH  24  26
ENDBRANCH   3  22
TORSDOF 3
ENDMDL
MODEL 7
REMARK VINA RESULT:      -8.4      1.103      1.288
REMARK  Name = 
REMARK  4 active torsions:
REMARK  status: ('A' for Active; 'I' for Inactive)
REMARK    1  A    between atoms: C_1  and  C_2
REMARK    2  A    between atoms: C_3  and  C_4
REMARK    3  A    between atoms: N_6  and  C_7
REMARK    4  A    between atoms: C_24  and  C_25
REMARK                            x       y       z     vdW  Elec       q    Type
REMARK                         _______ _______ _______ _____ _____    ______ ____
ROOT
ATOM      1  C   UNL     1       0.690  12.142  18.606  0.00  0.00    +0.000 C 
ATOM      2  C   UNL     1       0.460  11.079  19.640  0.00  0.00    +0.000 A 
ATOM      3  C   UNL     1      -0.305  11.216  20.805  0.00  0.00    +0.000 A 
ATOM      4  S   UNL     1      -0.297   9.765  21.725  0.00  0.00    +0.000 S 
ATOM      5  C   UNL     1       0.722   8.980  20.636  0.00  0.00    +0.000 A 
ATOM      6  N   UNL     1       1.153   7.742  20.920  0.00  0.00    +0.000 NA
ATOM      7  C   UNL     1       1.957   7.221  20.045  0.00  0.00    +0.000 A 
ATOM      8  N   UNL     1       2.336   7.807  18.841  0.00  0.00    +0.000 N 
ATOM      9  C   UNL     1       1.917   9.139  18.532  0.00  0.00    +0.000 A 
ATOM     10  O   UNL     1       2.245   9.750  17.516  0.00  0.00    +0.000 OA
ATOM     11  C   UNL     1       1.046   9.749  19.550  0.00  0.00    +0.000 A 
ATOM     12  N   UNL     1       3.159   7.209  17.888  0.00  0.00    +0.000 NA
ATOM     13  C   UNL     1       3.533   5.963  17.964  0.00  0.00    +0.000 C 
ATOM     14  C   UNL     1       3.153   4.992  19.039  0.00  0.00    +0.000 C 
ATOM     15  S   UNL     1       2.615   5.701  20.556  0.00  0.00    +0.000 S 
ENDROOT
BRANCH  13  16
ATOM     16  C   UNL     1       4.406   5.392  16.883  0.00  0.00    +0.000 A 
ATOM     17  C   UNL     1       5.041   6.238  15.970  0.00  0.00    +0.000 A 
ATOM     18  C   UNL     1       5.942   5.710  15.039  0.00  0.00    +0.000 A 
ATOM     19  C   UNL     1       6.204   4.339  15.006  0.00  0.00    +0.000 A 
ATOM     20  C   UNL     1       5.549   3.485  15.887  0.00  0.00    +0.000 A 
ATOM     21  C   UNL     1       4.648   4.007  16.815  0.00  0.00    +0.000 A 
ENDBRANCH  13  16
BRANCH   3  22
ATOM     22  C   UNL     1      -1.099  12.345  21.312  0.00  0.00    +0.000 C 
ATOM     23  O   UNL     1      -0.835  13.519  21.065  0.00  0.00    +0.000 OA
ATOM     24  N   UNL     1      -2.146  11.976  22.149  0.00  0.00    +0.000 N 
ATOM     25  H   UNL     1      -2.074  11.052  22.566  0.00  0.00    +0.000 HD
BRANCH  24  26
ATOM     26  C   UNL     1      -3.103  12.839  22.708  0.00  0.00    +0.000 A 
ATOM     27  C   UNL     1      -2.871  13.554  23.884  0.00  0.00    +0.000 A 
ATOM     28  C   UNL     1      -3.853  14.421  24.370  0.00  0.00    +0.000 A 
ATOM     29  C   UNL     1      -5.067  14.539  23.699  0.00  0.00    +0.000 A 
ATOM     30  F   UNL     1      -6.016  15.347  24.191  0.00  0.00    +0.000 F 
ATOM     31  C   UNL     1      -5.311  13.839  22.525  0.00  0.00    +0.000 A 
ATOM     32  C   UNL     1      -4.311  13.018  22.022  0.00  0.00    +0.000 A 
ATOM     33  F   UNL     1      -4.533  12.342  20.884  0.00  0.00    +0.000 F 
ENDBRANCH  24  26
ENDBRANCH   3  22
TORSDOF 3
ENDMDL
MODEL 8
REMARK VINA RESULT:      -8.3      1.757      1.932
REMARK  Name = 
REMARK  4 active torsions:
REMARK  status: ('A' for Active; 'I' for Inactive)
REMARK    1  A    between atoms: C_1  and  C_2
REMARK    2  A    between atoms: C_3  and  C_4
REMARK    3  A    between atoms: N_6  and  C_7
REMARK    4  A    between atoms: C_24  and  C_25
REMARK                            x       y       z     vdW  Elec       q    Type
REMARK                         _______ _______ _______ _____ _____    ______ ____
ROOT
ATOM      1  C   UNL     1       0.935  11.714  19.071  0.00  0.00    +0.000 C 
ATOM      2  C   UNL     1       0.695  10.548  19.983  0.00  0.00    +0.000 A 
ATOM      3  C   UNL     1      -0.069  10.564  21.156  0.00  0.00    +0.000 A 
ATOM      4  S   UNL     1      -0.075   9.022  21.913  0.00  0.00    +0.000 S 
ATOM      5  C   UNL     1       0.937   8.350  20.745  0.00  0.00    +0.000 A 
ATOM      6  N   UNL     1       1.357   7.085  20.892  0.00  0.00    +0.000 NA
ATOM      7  C   UNL     1       2.156   6.655  19.965  0.00  0.00    +0.000 A 
ATOM      8  N   UNL     1       2.541   7.365  18.833  0.00  0.00    +0.000 N 
ATOM      9  C   UNL     1       2.135   8.726  18.671  0.00  0.00    +0.000 A 
ATOM     10  O   UNL     1       2.469   9.441  17.727  0.00  0.00    +0.000 OA
ATOM     11  C   UNL     1       1.269   9.230  19.749  0.00  0.00    +0.000 A 
ATOM     12  N   UNL     1       3.359   6.866  17.820  0.00  0.00    +0.000 NA
ATOM     13  C   UNL     1       3.721   5.616  17.760  0.00  0.00    +0.000 C 
ATOM     14  C   UNL     1       3.332   4.537  18.723  0.00  0.00    +0.000 C 
ATOM     15  S   UNL     1       2.799   5.082  20.308  0.00  0.00    +0.000 S 
ENDROOT
BRANCH  13  16
ATOM     16  C   UNL     1       4.590   5.157  16.623  0.00  0.00    +0.000 A 
ATOM     17  C   UNL     1       5.185   6.091  15.770  0.00  0.00    +0.000 A 
ATOM     18  C   UNL     1       6.083   5.665  14.785  0.00  0.00    +0.000 A 
ATOM     19  C   UNL     1       6.381   4.309  14.639  0.00  0.00    +0.000 A 
ATOM     20  C   UNL     1       5.765   3.370  15.458  0.00  0.00    +0.000 A 
ATOM     21  C   UNL     1       4.867   3.790  16.440  0.00  0.00    +0.000 A 
ENDBRANCH  13  16
BRANCH   3  22
ATOM     22  C   UNL     1      -0.853  11.638  21.784  0.00  0.00    +0.000 C 
ATOM     23  O   UNL     1      -0.548  12.157  22.855  0.00  0.00    +0.000 OA
ATOM     24  N   UNL     1      -2.009  11.981  21.091  0.00  0.00    +0.000 N 
ATOM     25  H   UNL     1      -2.354  11.286  20.436  0.00  0.00    +0.000 HD
BRANCH  24  26
ATOM     26  C   UNL     1      -2.895  13.019  21.423  0.00  0.00    +0.000 A 
ATOM     27  C   UNL     1      -3.989  12.828  22.268  0.00  0.00    +0.000 A 
ATOM     28  C   UNL     1      -4.815  13.910  22.584  0.00  0.00    +0.000 A 
ATOM     29  C   UNL     1      -4.562  15.161  22.026  0.00  0.00    +0.000 A 
ATOM     30  F   UNL     1      -5.379  16.186  22.306  0.00  0.00    +0.000 F 
ATOM     31  C   UNL     1      -3.475  15.367  21.187  0.00  0.00    +0.000 A 
ATOM     32  C   UNL     1      -2.631  14.298  20.919  0.00  0.00    +0.000 A 
ATOM     33  F   UNL     1      -1.573  14.489  20.116  0.00  0.00    +0.000 F 
ENDBRANCH  24  26
ENDBRANCH   3  22
TORSDOF 3
ENDMDL
MODEL 9
REMARK VINA RESULT:      -8.2      1.010      1.337
REMARK  Name = 
REMARK  4 active torsions:
REMARK  status: ('A' for Active; 'I' for Inactive)
REMARK    1  A    between atoms: C_1  and  C_2
REMARK    2  A    between atoms: C_3  and  C_4
REMARK    3  A    between atoms: N_6  and  C_7
REMARK    4  A    between atoms: C_24  and  C_25
REMARK                            x       y       z     vdW  Elec       q    Type
REMARK                         _______ _______ _______ _____ _____    ______ ____
ROOT
ATOM      1  C   UNL     1       0.675  12.195  18.456  0.00  0.00    +0.000 C 
ATOM      2  C   UNL     1       0.436  11.159  19.514  0.00  0.00    +0.000 A 
ATOM      3  C   UNL     1      -0.336  11.326  20.671  0.00  0.00    +0.000 A 
ATOM      4  S   UNL     1      -0.338   9.899  21.626  0.00  0.00    +0.000 S 
ATOM      5  C   UNL     1       0.685   9.084  20.564  0.00  0.00    +0.000 A 
ATOM      6  N   UNL     1       1.111   7.852  20.880  0.00  0.00    +0.000 NA
ATOM      7  C   UNL     1       1.918   7.308  20.023  0.00  0.00    +0.000 A 
ATOM      8  N   UNL     1       2.306   7.863  18.808  0.00  0.00    +0.000 N 
ATOM      9  C   UNL     1       1.894   9.188  18.464  0.00  0.00    +0.000 A 
ATOM     10  O   UNL     1       2.229   9.773  17.435  0.00  0.00    +0.000 OA
ATOM     11  C   UNL     1       1.018   9.825  19.461  0.00  0.00    +0.000 A 
ATOM     12  N   UNL     1       3.134   7.239  17.875  0.00  0.00    +0.000 NA
ATOM     13  C   UNL     1       3.503   5.995  17.984  0.00  0.00    +0.000 C 
ATOM     14  C   UNL     1       3.113   5.051  19.080  0.00  0.00    +0.000 C 
ATOM     15  S   UNL     1       2.568   5.799  20.576  0.00  0.00    +0.000 S 
ENDROOT
BRANCH  13  16
ATOM     16  C   UNL     1       4.381   5.394  16.922  0.00  0.00    +0.000 A 
ATOM     17  C   UNL     1       5.083   6.219  16.040  0.00  0.00    +0.000 A 
ATOM     18  C   UNL     1       5.987   5.659  15.130  0.00  0.00    +0.000 A 
ATOM     19  C   UNL     1       6.184   4.278  15.087  0.00  0.00    +0.000 A 
ATOM     20  C   UNL     1       5.461   3.447  15.936  0.00  0.00    +0.000 A 
ATOM     21  C   UNL     1       4.558   4.001  16.843  0.00  0.00    +0.000 A 
ENDBRANCH  13  16
BRANCH   3  22
ATOM     22  C   UNL     1      -1.130  12.470  21.146  0.00  0.00    +0.000 C 
ATOM     23  O   UNL     1      -0.957  13.620  20.750  0.00  0.00    +0.000 OA
ATOM     24  N   UNL     1      -2.059  12.151  22.130  0.00  0.00    +0.000 N 
ATOM     25  H   UNL     1      -1.893  11.282  22.629  0.00  0.00    +0.000 HD
BRANCH  24  26
ATOM     26  C   UNL     1      -2.994  13.029  22.701  0.00  0.00    +0.000 A 
ATOM     27  C   UNL     1      -4.338  13.040  22.324  0.00  0.00    +0.000 A 
ATOM     28  C   UNL     1      -5.224  13.918  22.954  0.00  0.00    +0.000 A 
ATOM     29  C   UNL     1      -4.755  14.799  23.926  0.00  0.00    +0.000 A 
ATOM     30  F   UNL     1      -5.605  15.660  24.500  0.00  0.00    +0.000 F 
ATOM     31  C   UNL     1      -3.422  14.796  24.314  0.00  0.00    +0.000 A 
ATOM     32  C   UNL     1      -2.558  13.887  23.719  0.00  0.00    +0.000 A 
ATOM     33  F   UNL     1      -1.270  13.870  24.092  0.00  0.00    +0.000 F 
ENDBRANCH  24  26
ENDBRANCH   3  22
TORSDOF 3
ENDMDL
