MODEL 1
REMARK VINA RESULT:      -8.0      0.000      0.000
REMARK  Name = 
REMARK  10 active torsions:
REMARK  status: ('A' for Active; 'I' for Inactive)
REMARK    1  A    between atoms: C_1  and  C_2
REMARK    2  A    between atoms: C_2  and  O_3
REMARK    3  A    between atoms: O_3  and  C_4
REMARK    4  A    between atoms: C_7  and  S_8
REMARK    5  A    between atoms: S_8  and  N_11
REMARK    6  A    between atoms: N_11  and  C_12
REMARK    7  A    between atoms: C_12  and  C_13
REMARK    8  A    between atoms: N_17  and  C_18
REMARK    9  A    between atoms: C_18  and  C_19
REMARK   10  A    between atoms: C_23  and  C_24
REMARK                            x       y       z     vdW  Elec       q    Type
REMARK                         _______ _______ _______ _____ _____    ______ ____
ROOT
ATOM      1  N   UNL     1       5.645   5.790  17.423  0.00  0.00    +0.000 NA
ATOM      2  H   UNL     1       4.933   5.729  16.696  0.00  0.00    +0.000 HD
ENDROOT
BRANCH   1   3
ATOM      3  S   UNL     1       7.208   5.610  16.806  0.00  0.00    +0.000 S 
ATOM      4  O   UNL     1       7.902   4.607  17.584  0.00  0.00    +0.000 OA
ATOM      5  O   UNL     1       7.744   6.935  16.597  0.00  0.00    +0.000 OA
BRANCH   3   9
ATOM      6  C   UNL     1       6.424   3.799  12.687  0.00  0.00    +0.000 A 
ATOM      7  C   UNL     1       5.733   3.344  13.814  0.00  0.00    +0.000 A 
ATOM      8  C   UNL     1       5.948   3.923  15.062  0.00  0.00    +0.000 A 
ATOM      9  C   UNL     1       6.894   4.942  15.188  0.00  0.00    +0.000 A 
ATOM     10  C   UNL     1       7.566   5.433  14.066  0.00  0.00    +0.000 A 
ATOM     11  C   UNL     1       7.329   4.856  12.811  0.00  0.00    +0.000 A 
BRANCH   6  12
ATOM     12  O   UNL     1       6.158   3.094  11.548  0.00  0.00    +0.000 OA
BRANCH  12  14
ATOM     13  C   UNL     1       3.899   3.439  10.920  0.00  0.00    +0.000 C 
ATOM     14  C   UNL     1       4.899   2.431  11.462  0.00  0.00    +0.000 C 
ENDBRANCH  12  14
ENDBRANCH   6  12
ENDBRANCH   3   9
ENDBRANCH   1   3
BRANCH   1  15
ATOM     15  C   UNL     1       5.307   4.990  18.602  0.00  0.00    +0.000 C 
BRANCH  15  16
ATOM     16  C   UNL     1       3.943   4.410  18.366  0.00  0.00    +0.000 A 
ATOM     17  C   UNL     1       3.576   3.426  17.459  0.00  0.00    +0.000 A 
ATOM     18  C   UNL     1       2.180   3.230  17.546  0.00  0.00    +0.000 A 
ATOM     19  C   UNL     1       1.709   4.110  18.490  0.00  0.00    +0.000 A 
ATOM     20  N   UNL     1       2.781   4.808  19.005  0.00  0.00    +0.000 N 
BRANCH  20  21
ATOM     21  C   UNL     1       2.626   5.825  20.046  0.00  0.00    +0.000 C 
BRANCH  21  22
ATOM     22  C   UNL     1       2.194   7.171  19.513  0.00  0.00    +0.000 A 
ATOM     23  C   UNL     1       2.532   7.635  18.232  0.00  0.00    +0.000 A 
ATOM     24  C   UNL     1       2.112   8.891  17.793  0.00  0.00    +0.000 A 
ATOM     25  C   UNL     1       1.355   9.706  18.630  0.00  0.00    +0.000 A 
ATOM     26  C   UNL     1       1.026   9.279  19.919  0.00  0.00    +0.000 A 
ATOM     27  C   UNL     1       0.234  10.159  20.839  0.00  0.00    +0.000 C 
ATOM     28  C   UNL     1       1.476   8.028  20.361  0.00  0.00    +0.000 A 
ENDBRANCH  21  22
ENDBRANCH  20  21
ENDBRANCH  15  16
ENDBRANCH   1  15
TORSDOF 8
ENDMDL
MODEL 2
REMARK VINA RESULT:      -7.9      3.082      4.600
REMARK  Name = 
REMARK  10 active torsions:
REMARK  status: ('A' for Active; 'I' for Inactive)
REMARK    1  A    between atoms: C_1  and  C_2
REMARK    2  A    between atoms: C_2  and  O_3
REMARK    3  A    between atoms: O_3  and  C_4
REMARK    4  A    between atoms: C_7  and  S_8
REMARK    5  A    between atoms: S_8  and  N_11
REMARK    6  A    between atoms: N_11  and  C_12
REMARK    7  A    between atoms: C_12  and  C_13
REMARK    8  A    between atoms: N_17  and  C_18
REMARK    9  A    between atoms: C_18  and  C_19
REMARK   10  A    between atoms: C_23  and  C_24
REMARK                            x       y       z     vdW  Elec       q    Type
REMARK                         _______ _______ _______ _____ _____    ______ ____
ROOT
ATOM      1  N   UNL     1       5.005   3.081  18.078  0.00  0.00    +0.000 NA
ATOM      2  H   UNL     1       5.841   2.519  18.237  0.00  0.00    +0.000 HD
ENDROOT
BRANCH   1   3
ATOM      3  S   UNL     1       5.184   4.140  16.773  0.00  0.00    +0.000 S 
ATOM      4  O   UNL     1       3.901   4.742  16.485  0.00  0.00    +0.000 OA
ATOM      5  O   UNL     1       5.960   3.454  15.765  0.00  0.00    +0.000 OA
BRANCH   3   9
ATOM      6  C   UNL     1       7.955   7.372  18.423  0.00  0.00    +0.000 A 
ATOM      7  C   UNL     1       7.028   7.666  17.420  0.00  0.00    +0.000 A 
ATOM      8  C   UNL     1       6.160   6.687  16.944  0.00  0.00    +0.000 A 
ATOM      9  C   UNL     1       6.248   5.391  17.452  0.00  0.00    +0.000 A 
ATOM     10  C   UNL     1       7.144   5.088  18.481  0.00  0.00    +0.000 A 
ATOM     11  C   UNL     1       8.002   6.086  18.967  0.00  0.00    +0.000 A 
BRANCH   6  12
ATOM     12  O   UNL     1       8.781   8.412  18.741  0.00  0.00    +0.000 OA
BRANCH  12  14
ATOM     13  C   UNL     1       9.561  10.648  18.652  0.00  0.00    +0.000 C 
ATOM     14  C   UNL     1       8.476   9.690  18.189  0.00  0.00    +0.000 C 
ENDBRANCH  12  14
ENDBRANCH   6  12
ENDBRANCH   3   9
ENDBRANCH   1   3
BRANCH   1  15
ATOM     15  C   UNL     1       4.472   3.648  19.318  0.00  0.00    +0.000 C 
BRANCH  15  16
ATOM     16  C   UNL     1       3.003   3.345  19.348  0.00  0.00    +0.000 A 
ATOM     17  C   UNL     1       2.326   2.320  18.700  0.00  0.00    +0.000 A 
ATOM     18  C   UNL     1       0.947   2.448  18.972  0.00  0.00    +0.000 A 
ATOM     19  C   UNL     1       0.795   3.559  19.766  0.00  0.00    +0.000 A 
ATOM     20  N   UNL     1       2.044   4.088  20.015  0.00  0.00    +0.000 N 
BRANCH  20  21
ATOM     21  C   UNL     1       2.239   5.279  20.842  0.00  0.00    +0.000 C 
BRANCH  21  22
ATOM     22  C   UNL     1       2.042   6.574  20.089  0.00  0.00    +0.000 A 
ATOM     23  C   UNL     1       2.493   6.775  18.775  0.00  0.00    +0.000 A 
ATOM     24  C   UNL     1       2.290   7.995  18.129  0.00  0.00    +0.000 A 
ATOM     25  C   UNL     1       1.642   9.036  18.789  0.00  0.00    +0.000 A 
ATOM     26  C   UNL     1       1.205   8.870  20.106  0.00  0.00    +0.000 A 
ATOM     27  C   UNL     1       0.530   9.993  20.836  0.00  0.00    +0.000 C 
ATOM     28  C   UNL     1       1.439   7.651  20.756  0.00  0.00    +0.000 A 
ENDBRANCH  21  22
ENDBRANCH  20  21
ENDBRANCH  15  16
ENDBRANCH   1  15
TORSDOF 8
ENDMDL
MODEL 3
REMARK VINA RESULT:      -7.6      1.215      1.913
REMARK  Name = 
REMARK  10 active torsions:
REMARK  status: ('A' for Active; 'I' for Inactive)
REMARK    1  A    between atoms: C_1  and  C_2
REMARK    2  A    between atoms: C_2  and  O_3
REMARK    3  A    between atoms: O_3  and  C_4
REMARK    4  A    between atoms: C_7  and  S_8
REMARK    5  A    between atoms: S_8  and  N_11
REMARK    6  A    between atoms: N_11  and  C_12
REMARK    7  A    between atoms: C_12  and  C_13
REMARK    8  A    between atoms: N_17  and  C_18
REMARK    9  A    between atoms: C_18  and  C_19
REMARK   10  A    between atoms: C_23  and  C_24
REMARK                            x       y       z     vdW  Elec       q    Type
REMARK                         _______ _______ _______ _____ _____    ______ ____
ROOT
ATOM      1  N   UNL     1       5.994   3.863  18.779  0.00  0.00    +0.000 NA
ATOM      2  H   UNL     1       6.471   3.104  19.265  0.00  0.00    +0.000 HD
ENDROOT
BRANCH   1   3
ATOM      3  S   UNL     1       7.070   4.871  17.954  0.00  0.00    +0.000 S 
ATOM      4  O   UNL     1       8.420   4.434  18.233  0.00  0.00    +0.000 OA
ATOM      5  O   UNL     1       6.638   6.232  18.170  0.00  0.00    +0.000 OA
BRANCH   3   9
ATOM      6  C   UNL     1       6.114   4.011  13.572  0.00  0.00    +0.000 A 
ATOM      7  C   UNL     1       7.176   4.848  13.923  0.00  0.00    +0.000 A 
ATOM      8  C   UNL     1       7.488   5.079  15.261  0.00  0.00    +0.000 A 
ATOM      9  C   UNL     1       6.702   4.496  16.255  0.00  0.00    +0.000 A 
ATOM     10  C   UNL     1       5.660   3.628  15.922  0.00  0.00    +0.000 A 
ATOM     11  C   UNL     1       5.366   3.386  14.573  0.00  0.00    +0.000 A 
BRANCH   6  12
ATOM     12  O   UNL     1       5.889   3.930  12.228  0.00  0.00    +0.000 OA
BRANCH  12  14
ATOM     13  C   UNL     1       3.967   3.123  11.101  0.00  0.00    +0.000 C 
ATOM     14  C   UNL     1       5.296   2.735  11.728  0.00  0.00    +0.000 C 
ENDBRANCH  12  14
ENDBRANCH   6  12
ENDBRANCH   3   9
ENDBRANCH   1   3
BRANCH   1  15
ATOM     15  C   UNL     1       4.991   4.519  19.621  0.00  0.00    +0.000 C 
BRANCH  15  16
ATOM     16  C   UNL     1       3.687   3.816  19.385  0.00  0.00    +0.000 A 
ATOM     17  C   UNL     1       3.289   2.569  19.848  0.00  0.00    +0.000 A 
ATOM     18  C   UNL     1       2.003   2.288  19.338  0.00  0.00    +0.000 A 
ATOM     19  C   UNL     1       1.638   3.356  18.554  0.00  0.00    +0.000 A 
ATOM     20  N   UNL     1       2.648   4.294  18.603  0.00  0.00    +0.000 N 
BRANCH  20  21
ATOM     21  C   UNL     1       2.573   5.564  17.881  0.00  0.00    +0.000 C 
BRANCH  21  22
ATOM     22  C   UNL     1       2.157   6.728  18.751  0.00  0.00    +0.000 A 
ATOM     23  C   UNL     1       1.830   6.594  20.109  0.00  0.00    +0.000 A 
ATOM     24  C   UNL     1       1.445   7.702  20.864  0.00  0.00    +0.000 A 
ATOM     25  C   UNL     1       1.372   8.960  20.271  0.00  0.00    +0.000 A 
ATOM     26  C   UNL     1       1.667   9.117  18.915  0.00  0.00    +0.000 A 
ATOM     27  C   UNL     1       1.566  10.461  18.259  0.00  0.00    +0.000 C 
ATOM     28  C   UNL     1       2.025   7.993  18.158  0.00  0.00    +0.000 A 
ENDBRANCH  21  22
ENDBRANCH  20  21
ENDBRANCH  15  16
ENDBRANCH   1  15
TORSDOF 8
ENDMDL
MODEL 4
REMARK VINA RESULT:      -7.5      0.780      1.457
REMARK  Name = 
REMARK  10 active torsions:
REMARK  status: ('A' for Active; 'I' for Inactive)
REMARK    1  A    between atoms: C_1  and  C_2
REMARK    2  A    between atoms: C_2  and  O_3
REMARK    3  A    between atoms: O_3  and  C_4
REMARK    4  A    between atoms: C_7  and  S_8
REMARK    5  A    between atoms: S_8  and  N_11
REMARK    6  A    between atoms: N_11  and  C_12
REMARK    7  A    between atoms: C_12  and  C_13
REMARK    8  A    between atoms: N_17  and  C_18
REMARK    9  A    between atoms: C_18  and  C_19
REMARK   10  A    between atoms: C_23  and  C_24
REMARK                            x       y       z     vdW  Elec       q    Type
REMARK                         _______ _______ _______ _____ _____    ______ ____
ROOT
ATOM      1  N   UNL     1       5.431   5.514  18.129  0.00  0.00    +0.000 NA
ATOM      2  H   UNL     1       4.767   5.516  17.355  0.00  0.00    +0.000 HD
ENDROOT
BRANCH   1   3
ATOM      3  S   UNL     1       7.033   5.414  17.598  0.00  0.00    +0.000 S 
ATOM      4  O   UNL     1       7.692   4.343  18.311  0.00  0.00    +0.000 OA
ATOM      5  O   UNL     1       7.559   6.758  17.562  0.00  0.00    +0.000 OA
BRANCH   3   9
ATOM      6  C   UNL     1       6.536   4.033  13.274  0.00  0.00    +0.000 A 
ATOM      7  C   UNL     1       5.759   3.482  14.296  0.00  0.00    +0.000 A 
ATOM      8  C   UNL     1       5.887   3.930  15.608  0.00  0.00    +0.000 A 
ATOM      9  C   UNL     1       6.831   4.915  15.903  0.00  0.00    +0.000 A 
ATOM     10  C   UNL     1       7.590   5.502  14.888  0.00  0.00    +0.000 A 
ATOM     11  C   UNL     1       7.440   5.057  13.567  0.00  0.00    +0.000 A 
BRANCH   6  12
ATOM     12  O   UNL     1       6.347   3.449  12.053  0.00  0.00    +0.000 OA
BRANCH  12  14
ATOM     13  C   UNL     1       4.164   3.433  11.132  0.00  0.00    +0.000 C 
ATOM     14  C   UNL     1       5.200   2.619  11.889  0.00  0.00    +0.000 C 
ENDBRANCH  12  14
ENDBRANCH   6  12
ENDBRANCH   3   9
ENDBRANCH   1   3
BRANCH   1  15
ATOM     15  C   UNL     1       5.034   4.598  19.200  0.00  0.00    +0.000 C 
BRANCH  15  16
ATOM     16  C   UNL     1       3.652   4.111  18.877  0.00  0.00    +0.000 A 
ATOM     17  C   UNL     1       3.254   3.299  17.824  0.00  0.00    +0.000 A 
ATOM     18  C   UNL     1       1.853   3.141  17.881  0.00  0.00    +0.000 A 
ATOM     19  C   UNL     1       1.409   3.873  18.956  0.00  0.00    +0.000 A 
ATOM     20  N   UNL     1       2.502   4.440  19.574  0.00  0.00    +0.000 N 
BRANCH  20  21
ATOM     21  C   UNL     1       2.379   5.281  20.766  0.00  0.00    +0.000 C 
BRANCH  21  22
ATOM     22  C   UNL     1       1.911   6.686  20.466  0.00  0.00    +0.000 A 
ATOM     23  C   UNL     1       1.084   7.422  21.328  0.00  0.00    +0.000 A 
ATOM     24  C   UNL     1       0.677   8.714  20.997  0.00  0.00    +0.000 A 
ATOM     25  C   UNL     1       1.082   9.288  19.795  0.00  0.00    +0.000 A 
ATOM     26  C   UNL     1       1.885   8.568  18.907  0.00  0.00    +0.000 A 
ATOM     27  C   UNL     1       2.306   9.165  17.597  0.00  0.00    +0.000 C 
ATOM     28  C   UNL     1       2.266   7.260  19.235  0.00  0.00    +0.000 A 
ENDBRANCH  21  22
ENDBRANCH  20  21
ENDBRANCH  15  16
ENDBRANCH   1  15
TORSDOF 8
ENDMDL
MODEL 5
REMARK VINA RESULT:      -7.4      3.036      4.715
REMARK  Name = 
REMARK  10 active torsions:
REMARK  status: ('A' for Active; 'I' for Inactive)
REMARK    1  A    between atoms: C_1  and  C_2
REMARK    2  A    between atoms: C_2  and  O_3
REMARK    3  A    between atoms: O_3  and  C_4
REMARK    4  A    between atoms: C_7  and  S_8
REMARK    5  A    between atoms: S_8  and  N_11
REMARK    6  A    between atoms: N_11  and  C_12
REMARK    7  A    between atoms: C_12  and  C_13
REMARK    8  A    between atoms: N_17  and  C_18
REMARK    9  A    between atoms: C_18  and  C_19
REMARK   10  A    between atoms: C_23  and  C_24
REMARK                            x       y       z     vdW  Elec       q    Type
REMARK                         _______ _______ _______ _____ _____    ______ ____
ROOT
ATOM      1  N   UNL     1       3.433   4.963  17.305  0.00  0.00    +0.000 NA
ATOM      2  H   UNL     1       3.364   5.688  16.590  0.00  0.00    +0.000 HD
ENDROOT
BRANCH   1   3
ATOM      3  S   UNL     1       4.898   4.124  17.227  0.00  0.00    +0.000 S 
ATOM      4  O   UNL     1       5.108   3.684  15.866  0.00  0.00    +0.000 OA
ATOM      5  O   UNL     1       4.934   3.215  18.348  0.00  0.00    +0.000 OA
BRANCH   3   9
ATOM      6  C   UNL     1       7.898   7.411  18.253  0.00  0.00    +0.000 A 
ATOM      7  C   UNL     1       7.897   6.199  18.948  0.00  0.00    +0.000 A 
ATOM      8  C   UNL     1       7.005   5.185  18.609  0.00  0.00    +0.000 A 
ATOM      9  C   UNL     1       6.079   5.403  17.588  0.00  0.00    +0.000 A 
ATOM     10  C   UNL     1       6.091   6.595  16.858  0.00  0.00    +0.000 A 
ATOM     11  C   UNL     1       7.005   7.603  17.195  0.00  0.00    +0.000 A 
BRANCH   6  12
ATOM     12  O   UNL     1       8.782   8.331  18.739  0.00  0.00    +0.000 OA
BRANCH  12  14
ATOM     13  C   UNL     1       9.554  10.525  19.195  0.00  0.00    +0.000 C 
ATOM     14  C   UNL     1       8.589   9.693  18.366  0.00  0.00    +0.000 C 
ENDBRANCH  12  14
ENDBRANCH   6  12
ENDBRANCH   3   9
ENDBRANCH   1   3
BRANCH   1  15
ATOM     15  C   UNL     1       2.215   4.155  17.397  0.00  0.00    +0.000 C 
BRANCH  15  16
ATOM     16  C   UNL     1       1.911   3.978  18.856  0.00  0.00    +0.000 A 
ATOM     17  C   UNL     1       1.181   2.965  19.462  0.00  0.00    +0.000 A 
ATOM     18  C   UNL     1       1.107   3.229  20.846  0.00  0.00    +0.000 A 
ATOM     19  C   UNL     1       1.775   4.409  21.067  0.00  0.00    +0.000 A 
ATOM     20  N   UNL     1       2.284   4.850  19.864  0.00  0.00    +0.000 N 
BRANCH  20  21
ATOM     21  C   UNL     1       3.063   6.084  19.749  0.00  0.00    +0.000 C 
BRANCH  21  22
ATOM     22  C   UNL     1       2.211   7.331  19.701  0.00  0.00    +0.000 A 
ATOM     23  C   UNL     1       2.143   8.174  18.581  0.00  0.00    +0.000 A 
ATOM     24  C   UNL     1       1.344   9.317  18.594  0.00  0.00    +0.000 A 
ATOM     25  C   UNL     1       0.607   9.642  19.730  0.00  0.00    +0.000 A 
ATOM     26  C   UNL     1       0.676   8.834  20.868  0.00  0.00    +0.000 A 
ATOM     27  C   UNL     1      -0.091   9.188  22.107  0.00  0.00    +0.000 C 
ATOM     28  C   UNL     1       1.503   7.703  20.855  0.00  0.00    +0.000 A 
ENDBRANCH  21  22
ENDBRANCH  20  21
ENDBRANCH  15  16
ENDBRANCH   1  15
TORSDOF 8
ENDMDL
MODEL 6
REMARK VINA RESULT:      -7.4      2.633      7.985
REMARK  Name = 
REMARK  10 active torsions:
REMARK  status: ('A' for Active; 'I' for Inactive)
REMARK    1  A    between atoms: C_1  and  C_2
REMARK    2  A    between atoms: C_2  and  O_3
REMARK    3  A    between atoms: O_3  and  C_4
REMARK    4  A    between atoms: C_7  and  S_8
REMARK    5  A    between atoms: S_8  and  N_11
REMARK    6  A    between atoms: N_11  and  C_12
REMARK    7  A    between atoms: C_12  and  C_13
REMARK    8  A    between atoms: N_17  and  C_18
REMARK    9  A    between atoms: C_18  and  C_19
REMARK   10  A    between atoms: C_23  and  C_24
REMARK                            x       y       z     vdW  Elec       q    Type
REMARK                         _______ _______ _______ _____ _____    ______ ____
ROOT
ATOM      1  N   UNL     1       5.517   3.802  19.152  0.00  0.00    +0.000 NA
ATOM      2  H   UNL     1       5.915   3.292  19.941  0.00  0.00    +0.000 HD
ENDROOT
BRANCH   1   3
ATOM      3  S   UNL     1       3.903   3.386  18.871  0.00  0.00    +0.000 S 
ATOM      4  O   UNL     1       3.533   2.323  19.778  0.00  0.00    +0.000 OA
ATOM      5  O   UNL     1       3.729   3.280  17.441  0.00  0.00    +0.000 OA
BRANCH   3   9
ATOM      6  C   UNL     1       1.797   7.232  20.149  0.00  0.00    +0.000 A 
ATOM      7  C   UNL     1       2.619   7.206  19.019  0.00  0.00    +0.000 A 
ATOM      8  C   UNL     1       3.231   6.023  18.611  0.00  0.00    +0.000 A 
ATOM      9  C   UNL     1       3.047   4.864  19.366  0.00  0.00    +0.000 A 
ATOM     10  C   UNL     1       2.199   4.864  20.476  0.00  0.00    +0.000 A 
ATOM     11  C   UNL     1       1.573   6.055  20.868  0.00  0.00    +0.000 A 
BRANCH   6  12
ATOM     12  O   UNL     1       1.320   8.472  20.462  0.00  0.00    +0.000 OA
BRANCH  12  14
ATOM     13  C   UNL     1       0.081   9.786  21.996  0.00  0.00    +0.000 C 
ATOM     14  C   UNL     1       1.245   8.821  21.842  0.00  0.00    +0.000 C 
ENDBRANCH  12  14
ENDBRANCH   6  12
ENDBRANCH   3   9
ENDBRANCH   1   3
BRANCH   1  15
ATOM     15  C   UNL     1       6.407   3.810  17.989  0.00  0.00    +0.000 C 
BRANCH  15  16
ATOM     16  C   UNL     1       6.812   5.235  17.753  0.00  0.00    +0.000 A 
ATOM     17  C   UNL     1       7.668   6.020  18.514  0.00  0.00    +0.000 A 
ATOM     18  C   UNL     1       7.718   7.312  17.948  0.00  0.00    +0.000 A 
ATOM     19  C   UNL     1       6.878   7.308  16.860  0.00  0.00    +0.000 A 
ATOM     20  N   UNL     1       6.349   6.041  16.728  0.00  0.00    +0.000 N 
BRANCH  20  21
ATOM     21  C   UNL     1       5.416   5.691  15.656  0.00  0.00    +0.000 C 
BRANCH  21  22
ATOM     22  C   UNL     1       6.092   5.112  14.435  0.00  0.00    +0.000 A 
ATOM     23  C   UNL     1       7.356   5.526  13.986  0.00  0.00    +0.000 A 
ATOM     24  C   UNL     1       7.930   4.961  12.848  0.00  0.00    +0.000 A 
ATOM     25  C   UNL     1       7.247   3.979  12.134  0.00  0.00    +0.000 A 
ATOM     26  C   UNL     1       5.977   3.567  12.544  0.00  0.00    +0.000 A 
ATOM     27  C   UNL     1       5.220   2.531  11.769  0.00  0.00    +0.000 C 
ATOM     28  C   UNL     1       5.396   4.160  13.673  0.00  0.00    +0.000 A 
ENDBRANCH  21  22
ENDBRANCH  20  21
ENDBRANCH  15  16
ENDBRANCH   1  15
TORSDOF 8
ENDMDL
MODEL 7
REMARK VINA RESULT:      -7.3      2.807      7.993
REMARK  Name = 
REMARK  10 active torsions:
REMARK  status: ('A' for Active; 'I' for Inactive)
REMARK    1  A    between atoms: C_1  and  C_2
REMARK    2  A    between atoms: C_2  and  O_3
REMARK    3  A    between atoms: O_3  and  C_4
REMARK    4  A    between atoms: C_7  and  S_8
REMARK    5  A    between atoms: S_8  and  N_11
REMARK    6  A    between atoms: N_11  and  C_12
REMARK    7  A    between atoms: C_12  and  C_13
REMARK    8  A    between atoms: N_17  and  C_18
REMARK    9  A    between atoms: C_18  and  C_19
REMARK   10  A    between atoms: C_23  and  C_24
REMARK                            x       y       z     vdW  Elec       q    Type
REMARK                         _______ _______ _______ _____ _____    ______ ____
ROOT
ATOM      1  N   UNL     1       4.233   2.783  18.362  0.00  0.00    +0.000 NA
ATOM      2  H   UNL     1       4.577   1.895  18.730  0.00  0.00    +0.000 HD
ENDROOT
BRANCH   1   3
ATOM      3  S   UNL     1       2.545   2.865  18.364  0.00  0.00    +0.000 S 
ATOM      4  O   UNL     1       2.035   1.887  19.298  0.00  0.00    +0.000 OA
ATOM      5  O   UNL     1       2.115   2.918  16.987  0.00  0.00    +0.000 OA
BRANCH   3   9
ATOM      6  C   UNL     1       1.896   7.049  20.075  0.00  0.00    +0.000 A 
ATOM      7  C   UNL     1       2.360   6.873  18.769  0.00  0.00    +0.000 A 
ATOM      8  C   UNL     1       2.522   5.596  18.238  0.00  0.00    +0.000 A 
ATOM      9  C   UNL     1       2.254   4.485  19.038  0.00  0.00    +0.000 A 
ATOM     10  C   UNL     1       1.754   4.643  20.333  0.00  0.00    +0.000 A 
ATOM     11  C   UNL     1       1.576   5.933  20.852  0.00  0.00    +0.000 A 
BRANCH   6  12
ATOM     12  O   UNL     1       1.848   8.353  20.478  0.00  0.00    +0.000 OA
BRANCH  12  14
ATOM     13  C   UNL     1      -0.107   9.449  21.245  0.00  0.00    +0.000 C 
ATOM     14  C   UNL     1       1.116   8.652  21.664  0.00  0.00    +0.000 C 
ENDBRANCH  12  14
ENDBRANCH   6  12
ENDBRANCH   3   9
ENDBRANCH   1   3
BRANCH   1  15
ATOM     15  C   UNL     1       4.910   3.170  17.123  0.00  0.00    +0.000 C 
BRANCH  15  16
ATOM     16  C   UNL     1       5.794   4.339  17.448  0.00  0.00    +0.000 A 
ATOM     17  C   UNL     1       6.569   4.537  18.583  0.00  0.00    +0.000 A 
ATOM     18  C   UNL     1       7.195   5.799  18.486  0.00  0.00    +0.000 A 
ATOM     19  C   UNL     1       6.781   6.364  17.305  0.00  0.00    +0.000 A 
ATOM     20  N   UNL     1       5.951   5.468  16.663  0.00  0.00    +0.000 N 
BRANCH  20  21
ATOM     21  C   UNL     1       5.341   5.758  15.365  0.00  0.00    +0.000 C 
BRANCH  21  22
ATOM     22  C   UNL     1       6.052   5.100  14.205  0.00  0.00    +0.000 A 
ATOM     23  C   UNL     1       7.339   5.468  13.784  0.00  0.00    +0.000 A 
ATOM     24  C   UNL     1       7.945   4.831  12.701  0.00  0.00    +0.000 A 
ATOM     25  C   UNL     1       7.273   3.822  12.018  0.00  0.00    +0.000 A 
ATOM     26  C   UNL     1       5.980   3.453  12.401  0.00  0.00    +0.000 A 
ATOM     27  C   UNL     1       5.235   2.386  11.656  0.00  0.00    +0.000 C 
ATOM     28  C   UNL     1       5.368   4.118  13.471  0.00  0.00    +0.000 A 
ENDBRANCH  21  22
ENDBRANCH  20  21
ENDBRANCH  15  16
ENDBRANCH   1  15
TORSDOF 8
ENDMDL
MODEL 8
REMARK VINA RESULT:      -7.2      3.264      5.380
REMARK  Name = 
REMARK  10 active torsions:
REMARK  status: ('A' for Active; 'I' for Inactive)
REMARK    1  A    between atoms: C_1  and  C_2
REMARK    2  A    between atoms: C_2  and  O_3
REMARK    3  A    between atoms: O_3  and  C_4
REMARK    4  A    between atoms: C_7  and  S_8
REMARK    5  A    between atoms: S_8  and  N_11
REMARK    6  A    between atoms: N_11  and  C_12
REMARK    7  A    between atoms: C_12  and  C_13
REMARK    8  A    between atoms: N_17  and  C_18
REMARK    9  A    between atoms: C_18  and  C_19
REMARK   10  A    between atoms: C_23  and  C_24
REMARK                            x       y       z     vdW  Elec       q    Type
REMARK                         _______ _______ _______ _____ _____    ______ ____
ROOT
ATOM      1  N   UNL     1       2.278   5.942  21.027  0.00  0.00    +0.000 NA
ATOM      2  H   UNL     1       3.175   6.225  20.633  0.00  0.00    +0.000 HD
ENDROOT
BRANCH   1   3
ATOM      3  S   UNL     1       1.893   4.339  20.655  0.00  0.00    +0.000 S 
ATOM      4  O   UNL     1       0.514   4.281  20.225  0.00  0.00    +0.000 OA
ATOM      5  O   UNL     1       2.405   3.514  21.724  0.00  0.00    +0.000 OA
BRANCH   3   9
ATOM      6  C   UNL     1       4.596   3.628  17.044  0.00  0.00    +0.000 A 
ATOM      7  C   UNL     1       5.133   4.004  18.278  0.00  0.00    +0.000 A 
ATOM      8  C   UNL     1       4.309   4.184  19.387  0.00  0.00    +0.000 A 
ATOM      9  C   UNL     1       2.930   4.025  19.246  0.00  0.00    +0.000 A 
ATOM     10  C   UNL     1       2.381   3.614  18.029  0.00  0.00    +0.000 A 
ATOM     11  C   UNL     1       3.221   3.417  16.923  0.00  0.00    +0.000 A 
BRANCH   6  12
ATOM     12  O   UNL     1       5.515   3.552  16.037  0.00  0.00    +0.000 OA
BRANCH  12  14
ATOM     13  C   UNL     1       5.467   5.775  15.217  0.00  0.00    +0.000 C 
ATOM     14  C   UNL     1       6.346   4.689  15.814  0.00  0.00    +0.000 C 
ENDBRANCH  12  14
ENDBRANCH   6  12
ENDBRANCH   3   9
ENDBRANCH   1   3
BRANCH   1  15
ATOM     15  C   UNL     1       1.231   6.941  20.799  0.00  0.00    +0.000 C 
BRANCH  15  16
ATOM     16  C   UNL     1       1.652   7.759  19.613  0.00  0.00    +0.000 A 
ATOM     17  C   UNL     1       2.465   7.378  18.555  0.00  0.00    +0.000 A 
ATOM     18  C   UNL     1       2.633   8.485  17.694  0.00  0.00    +0.000 A 
ATOM     19  C   UNL     1       1.937   9.533  18.247  0.00  0.00    +0.000 A 
ATOM     20  N   UNL     1       1.321   9.086  19.397  0.00  0.00    +0.000 N 
BRANCH  20  21
ATOM     21  C   UNL     1       0.487   9.956  20.228  0.00  0.00    +0.000 C 
BRANCH  21  22
ATOM     22  C   UNL     1      -0.672  10.572  19.479  0.00  0.00    +0.000 A 
ATOM     23  C   UNL     1      -1.375  11.695  19.941  0.00  0.00    +0.000 A 
ATOM     24  C   UNL     1      -2.443  12.218  19.212  0.00  0.00    +0.000 A 
ATOM     25  C   UNL     1      -2.830  11.623  18.014  0.00  0.00    +0.000 A 
ATOM     26  C   UNL     1      -2.163  10.489  17.544  0.00  0.00    +0.000 A 
ATOM     27  C   UNL     1      -2.588   9.823  16.270  0.00  0.00    +0.000 C 
ATOM     28  C   UNL     1      -1.110   9.953  18.298  0.00  0.00    +0.000 A 
ENDBRANCH  21  22
ENDBRANCH  20  21
ENDBRANCH  15  16
ENDBRANCH   1  15
TORSDOF 8
ENDMDL
MODEL 9
REMARK VINA RESULT:      -7.1      1.020      1.222
REMARK  Name = 
REMARK  10 active torsions:
REMARK  status: ('A' for Active; 'I' for Inactive)
REMARK    1  A    between atoms: C_1  and  C_2
REMARK    2  A    between atoms: C_2  and  O_3
REMARK    3  A    between atoms: O_3  and  C_4
REMARK    4  A    between atoms: C_7  and  S_8
REMARK    5  A    between atoms: S_8  and  N_11
REMARK    6  A    between atoms: N_11  and  C_12
REMARK    7  A    between atoms: C_12  and  C_13
REMARK    8  A    between atoms: N_17  and  C_18
REMARK    9  A    between atoms: C_18  and  C_19
REMARK   10  A    between atoms: C_23  and  C_24
REMARK                            x       y       z     vdW  Elec       q    Type
REMARK                         _______ _______ _______ _____ _____    ______ ____
ROOT
ATOM      1  N   UNL     1       4.440   5.085  16.949  0.00  0.00    +0.000 NA
ATOM      2  H   UNL     1       3.941   4.604  16.201  0.00  0.00    +0.000 HD
ENDROOT
BRANCH   1   3
ATOM      3  S   UNL     1       5.843   5.847  16.396  0.00  0.00    +0.000 S 
ATOM      4  O   UNL     1       6.925   5.544  17.306  0.00  0.00    +0.000 OA
ATOM      5  O   UNL     1       5.487   7.202  16.042  0.00  0.00    +0.000 OA
BRANCH   3   9
ATOM      6  C   UNL     1       6.616   3.575  12.511  0.00  0.00    +0.000 A 
ATOM      7  C   UNL     1       5.442   3.370  13.240  0.00  0.00    +0.000 A 
ATOM      8  C   UNL     1       5.193   4.091  14.405  0.00  0.00    +0.000 A 
ATOM      9  C   UNL     1       6.148   4.998  14.864  0.00  0.00    +0.000 A 
ATOM     10  C   UNL     1       7.310   5.242  14.128  0.00  0.00    +0.000 A 
ATOM     11  C   UNL     1       7.544   4.525  12.946  0.00  0.00    +0.000 A 
BRANCH   6  12
ATOM     12  O   UNL     1       6.752   2.752  11.430  0.00  0.00    +0.000 OA
BRANCH  12  14
ATOM     13  C   UNL     1       6.342   0.443  11.094  0.00  0.00    +0.000 C 
ATOM     14  C   UNL     1       5.704   1.820  11.174  0.00  0.00    +0.000 C 
ENDBRANCH  12  14
ENDBRANCH   6  12
ENDBRANCH   3   9
ENDBRANCH   1   3
BRANCH   1  15
ATOM     15  C   UNL     1       4.569   4.260  18.152  0.00  0.00    +0.000 C 
BRANCH  15  16
ATOM     16  C   UNL     1       3.181   3.894  18.588  0.00  0.00    +0.000 A 
ATOM     17  C   UNL     1       2.387   2.850  18.134  0.00  0.00    +0.000 A 
ATOM     18  C   UNL     1       1.137   2.917  18.787  0.00  0.00    +0.000 A 
ATOM     19  C   UNL     1       1.174   4.012  19.617  0.00  0.00    +0.000 A 
ATOM     20  N   UNL     1       2.422   4.589  19.515  0.00  0.00    +0.000 N 
BRANCH  20  21
ATOM     21  C   UNL     1       2.800   5.778  20.281  0.00  0.00    +0.000 C 
BRANCH  21  22
ATOM     22  C   UNL     1       2.259   7.064  19.701  0.00  0.00    +0.000 A 
ATOM     23  C   UNL     1       2.509   7.478  18.383  0.00  0.00    +0.000 A 
ATOM     24  C   UNL     1       1.990   8.680  17.901  0.00  0.00    +0.000 A 
ATOM     25  C   UNL     1       1.221   9.491  18.731  0.00  0.00    +0.000 A 
ATOM     26  C   UNL     1       0.978   9.115  20.055  0.00  0.00    +0.000 A 
ATOM     27  C   UNL     1       0.174   9.994  20.966  0.00  0.00    +0.000 C 
ATOM     28  C   UNL     1       1.527   7.921  20.538  0.00  0.00    +0.000 A 
ENDBRANCH  21  22
ENDBRANCH  20  21
ENDBRANCH  15  16
ENDBRANCH   1  15
TORSDOF 8
ENDMDL
