MODEL 1
REMARK VINA RESULT:      -8.3      0.000      0.000
REMARK  Name = 
REMARK  8 active torsions:
REMARK  status: ('A' for Active; 'I' for Inactive)
REMARK    1  A    between atoms: C_1  and  O_2
REMARK    2  A    between atoms: O_2  and  C_3
REMARK    3  A    between atoms: C_5  and  C_6
REMARK    4  A    between atoms: C_8  and  C_9
REMARK    5  A    between atoms: C_15  and  C_16
REMARK    6  A    between atoms: C_25  and  O_26
REMARK    7  A    between atoms: O_26  and  C_27
REMARK    8  A    between atoms: C_28  and  O_29
REMARK                            x       y       z     vdW  Elec       q    Type
REMARK                         _______ _______ _______ _____ _____    ______ ____
ROOT
ATOM      1  C   UNL     1       1.567   8.459  19.725  0.00  0.00    +0.000 A 
ATOM      2  N   UNL     1       1.187   7.349  20.326  0.00  0.00    +0.000 NA
ATOM      3  C   UNL     1       1.927   6.323  19.771  0.00  0.00    +0.000 A 
ATOM      4  C   UNL     1       2.720   6.794  18.729  0.00  0.00    +0.000 A 
ATOM      5  N   UNL     1       2.483   8.155  18.746  0.00  0.00    +0.000 N 
ATOM      6  H   UNL     1       2.884   8.826  18.107  0.00  0.00    +0.000 HD
ENDROOT
BRANCH   4   7
ATOM      7  C   UNL     1       3.612   6.161  17.750  0.00  0.00    +0.000 A 
ATOM      8  C   UNL     1       4.483   6.932  16.964  0.00  0.00    +0.000 A 
ATOM      9  C   UNL     1       5.285   6.342  15.982  0.00  0.00    +0.000 A 
ATOM     10  C   UNL     1       5.258   4.963  15.808  0.00  0.00    +0.000 A 
ATOM     11 BR   UNL     1       6.341   4.160  14.485  0.00  0.00    +0.000 Br
ATOM     12  C   UNL     1       4.432   4.172  16.602  0.00  0.00    +0.000 A 
ATOM     13  C   UNL     1       3.608   4.771  17.563  0.00  0.00    +0.000 A 
ENDBRANCH   4   7
BRANCH   1  16
ATOM     14  C   UNL     1       0.804  12.169  19.422  0.00  0.00    +0.000 A 
ATOM     15  C   UNL     1       1.212  10.862  19.103  0.00  0.00    +0.000 A 
ATOM     16  C   UNL     1       1.096   9.817  20.022  0.00  0.00    +0.000 A 
ATOM     17  C   UNL     1       0.537  10.106  21.272  0.00  0.00    +0.000 A 
ATOM     18  C   UNL     1       0.105  11.396  21.619  0.00  0.00    +0.000 A 
ATOM     19  C   UNL     1       0.262  12.439  20.690  0.00  0.00    +0.000 A 
BRANCH  14  21
ATOM     20  C   UNL     1       2.274  13.642  18.210  0.00  0.00    +0.000 C 
ATOM     21  O   UNL     1       1.000  13.036  18.376  0.00  0.00    +0.000 OA
ENDBRANCH  14  21
BRANCH  18  22
ATOM     22  O   UNL     1      -0.414  11.433  22.887  0.00  0.00    +0.000 OA
ATOM     23  C   UNL     1      -1.796  11.618  23.114  0.00  0.00    +0.000 C 
ENDBRANCH  18  22
BRANCH  19  24
ATOM     24  O   UNL     1      -0.074  13.724  21.006  0.00  0.00    +0.000 OA
ATOM     25  H   UNL     1       0.756  14.227  21.030  0.00  0.00    +0.000 HD
ENDBRANCH  19  24
ENDBRANCH   1  16
BRANCH   3  26
ATOM     26  C   UNL     1       1.815   4.951  20.256  0.00  0.00    +0.000 A 
ATOM     27  C   UNL     1       1.023   4.032  19.556  0.00  0.00    +0.000 A 
ATOM     28  C   UNL     1       0.933   2.700  19.979  0.00  0.00    +0.000 A 
ATOM     29  C   UNL     1       1.635   2.275  21.106  0.00  0.00    +0.000 A 
ATOM     30  C   UNL     1       2.403   3.185  21.827  0.00  0.00    +0.000 A 
ATOM     31  C   UNL     1       2.474   4.519  21.417  0.00  0.00    +0.000 A 
ENDBRANCH   3  26
TORSDOF 6
ENDMDL
MODEL 2
REMARK VINA RESULT:      -8.2      0.142      2.542
REMARK  Name = 
REMARK  8 active torsions:
REMARK  status: ('A' for Active; 'I' for Inactive)
REMARK    1  A    between atoms: C_1  and  O_2
REMARK    2  A    between atoms: O_2  and  C_3
REMARK    3  A    between atoms: C_5  and  C_6
REMARK    4  A    between atoms: C_8  and  C_9
REMARK    5  A    between atoms: C_15  and  C_16
REMARK    6  A    between atoms: C_25  and  O_26
REMARK    7  A    between atoms: O_26  and  C_27
REMARK    8  A    between atoms: C_28  and  O_29
REMARK                            x       y       z     vdW  Elec       q    Type
REMARK                         _______ _______ _______ _____ _____    ______ ____
ROOT
ATOM      1  C   UNL     1       1.524   8.465  19.852  0.00  0.00    +0.000 A 
ATOM      2  N   UNL     1       1.158   7.342  20.436  0.00  0.00    +0.000 NA
ATOM      3  C   UNL     1       1.883   6.329  19.840  0.00  0.00    +0.000 A 
ATOM      4  C   UNL     1       2.650   6.824  18.791  0.00  0.00    +0.000 A 
ATOM      5  N   UNL     1       2.416   8.183  18.844  0.00  0.00    +0.000 N 
ATOM      6  H   UNL     1       2.802   8.869  18.211  0.00  0.00    +0.000 HD
ENDROOT
BRANCH   4   7
ATOM      7  C   UNL     1       3.519   6.213  17.776  0.00  0.00    +0.000 A 
ATOM      8  C   UNL     1       3.522   4.824  17.570  0.00  0.00    +0.000 A 
ATOM      9  C   UNL     1       4.395   4.230  16.654  0.00  0.00    +0.000 A 
ATOM     10  C   UNL     1       5.247   5.027  15.899  0.00  0.00    +0.000 A 
ATOM     11 BR   UNL     1       6.428   4.231  14.658  0.00  0.00    +0.000 Br
ATOM     12  C   UNL     1       5.236   6.411  16.056  0.00  0.00    +0.000 A 
ATOM     13  C   UNL     1       4.381   6.999  16.996  0.00  0.00    +0.000 A 
ENDBRANCH   4   7
BRANCH   1  16
ATOM     14  C   UNL     1       0.012  11.407  21.725  0.00  0.00    +0.000 A 
ATOM     15  C   UNL     1       0.499  10.120  21.433  0.00  0.00    +0.000 A 
ATOM     16  C   UNL     1       1.062   9.817  20.192  0.00  0.00    +0.000 A 
ATOM     17  C   UNL     1       1.149  10.844  19.246  0.00  0.00    +0.000 A 
ATOM     18  C   UNL     1       0.687  12.144  19.507  0.00  0.00    +0.000 A 
ATOM     19  C   UNL     1       0.094  12.417  20.752  0.00  0.00    +0.000 A 
BRANCH  14  21
ATOM     20  C   UNL     1      -1.899  11.508  23.186  0.00  0.00    +0.000 C 
ATOM     21  O   UNL     1      -0.490  11.487  23.000  0.00  0.00    +0.000 OA
ENDBRANCH  14  21
BRANCH  18  22
ATOM     22  O   UNL     1       0.886  12.978  18.438  0.00  0.00    +0.000 OA
ATOM     23  C   UNL     1       2.153  13.538  18.165  0.00  0.00    +0.000 C 
ENDBRANCH  18  22
BRANCH  19  24
ATOM     24  O   UNL     1      -0.436  13.645  21.028  0.00  0.00    +0.000 OA
ATOM     25  H   UNL     1       0.252  14.295  20.816  0.00  0.00    +0.000 HD
ENDBRANCH  19  24
ENDBRANCH   1  16
BRANCH   3  26
ATOM     26  C   UNL     1       1.780   4.946  20.296  0.00  0.00    +0.000 A 
ATOM     27  C   UNL     1       0.970   4.044  19.594  0.00  0.00    +0.000 A 
ATOM     28  C   UNL     1       0.889   2.703  19.988  0.00  0.00    +0.000 A 
ATOM     29  C   UNL     1       1.617   2.252  21.087  0.00  0.00    +0.000 A 
ATOM     30  C   UNL     1       2.405   3.143  21.810  0.00  0.00    +0.000 A 
ATOM     31  C   UNL     1       2.467   4.486  21.429  0.00  0.00    +0.000 A 
ENDBRANCH   3  26
TORSDOF 6
ENDMDL
MODEL 3
REMARK VINA RESULT:      -8.2      0.306      2.563
REMARK  Name = 
REMARK  8 active torsions:
REMARK  status: ('A' for Active; 'I' for Inactive)
REMARK    1  A    between atoms: C_1  and  O_2
REMARK    2  A    between atoms: O_2  and  C_3
REMARK    3  A    between atoms: C_5  and  C_6
REMARK    4  A    between atoms: C_8  and  C_9
REMARK    5  A    between atoms: C_15  and  C_16
REMARK    6  A    between atoms: C_25  and  O_26
REMARK    7  A    between atoms: O_26  and  C_27
REMARK    8  A    between atoms: C_28  and  O_29
REMARK                            x       y       z     vdW  Elec       q    Type
REMARK                         _______ _______ _______ _____ _____    ______ ____
ROOT
ATOM      1  C   UNL     1       1.692   8.468  19.647  0.00  0.00    +0.000 A 
ATOM      2  N   UNL     1       1.285   7.364  20.241  0.00  0.00    +0.000 NA
ATOM      3  C   UNL     1       1.995   6.323  19.675  0.00  0.00    +0.000 A 
ATOM      4  C   UNL     1       2.796   6.781  18.634  0.00  0.00    +0.000 A 
ATOM      5  N   UNL     1       2.595   8.147  18.661  0.00  0.00    +0.000 N 
ATOM      6  H   UNL     1       3.012   8.812  18.026  0.00  0.00    +0.000 HD
ENDROOT
BRANCH   4   7
ATOM      7  C   UNL     1       3.667   6.132  17.646  0.00  0.00    +0.000 A 
ATOM      8  C   UNL     1       4.500   6.891  16.808  0.00  0.00    +0.000 A 
ATOM      9  C   UNL     1       5.280   6.283  15.820  0.00  0.00    +0.000 A 
ATOM     10  C   UNL     1       5.270   4.900  15.689  0.00  0.00    +0.000 A 
ATOM     11 BR   UNL     1       6.324   4.073  14.358  0.00  0.00    +0.000 Br
ATOM     12  C   UNL     1       4.483   4.121  16.534  0.00  0.00    +0.000 A 
ATOM     13  C   UNL     1       3.680   4.736  17.502  0.00  0.00    +0.000 A 
ENDBRANCH   4   7
BRANCH   1  16
ATOM     14  C   UNL     1       0.201  11.473  21.433  0.00  0.00    +0.000 A 
ATOM     15  C   UNL     1       0.659  10.169  21.173  0.00  0.00    +0.000 A 
ATOM     16  C   UNL     1       1.258   9.836  19.956  0.00  0.00    +0.000 A 
ATOM     17  C   UNL     1       1.410  10.850  19.004  0.00  0.00    +0.000 A 
ATOM     18  C   UNL     1       0.978  12.166  19.235  0.00  0.00    +0.000 A 
ATOM     19  C   UNL     1       0.349  12.470  20.454  0.00  0.00    +0.000 A 
BRANCH  14  21
ATOM     20  C   UNL     1      -1.069  10.483  23.224  0.00  0.00    +0.000 C 
ATOM     21  O   UNL     1      -0.345  11.582  22.688  0.00  0.00    +0.000 OA
ENDBRANCH  14  21
BRANCH  18  22
ATOM     22  O   UNL     1       1.241  12.981  18.166  0.00  0.00    +0.000 OA
ATOM     23  C   UNL     1       2.382  13.813  18.135  0.00  0.00    +0.000 C 
ENDBRANCH  18  22
BRANCH  19  24
ATOM     24  O   UNL     1      -0.154  13.716  20.698  0.00  0.00    +0.000 OA
ATOM     25  H   UNL     1      -0.433  14.072  19.839  0.00  0.00    +0.000 HD
ENDBRANCH  19  24
ENDBRANCH   1  16
BRANCH   3  26
ATOM     26  C   UNL     1       1.848   4.951  20.150  0.00  0.00    +0.000 A 
ATOM     27  C   UNL     1       2.498   4.552  21.325  0.00  0.00    +0.000 A 
ATOM     28  C   UNL     1       2.338   3.253  21.823  0.00  0.00    +0.000 A 
ATOM     29  C   UNL     1       1.526   2.341  21.151  0.00  0.00    +0.000 A 
ATOM     30  C   UNL     1       0.896   2.716  19.967  0.00  0.00    +0.000 A 
ATOM     31  C   UNL     1       1.075   4.006  19.459  0.00  0.00    +0.000 A 
ENDBRANCH   3  26
TORSDOF 6
ENDMDL
MODEL 4
REMARK VINA RESULT:      -8.2      0.086      1.268
REMARK  Name = 
REMARK  8 active torsions:
REMARK  status: ('A' for Active; 'I' for Inactive)
REMARK    1  A    between atoms: C_1  and  O_2
REMARK    2  A    between atoms: O_2  and  C_3
REMARK    3  A    between atoms: C_5  and  C_6
REMARK    4  A    between atoms: C_8  and  C_9
REMARK    5  A    between atoms: C_15  and  C_16
REMARK    6  A    between atoms: C_25  and  O_26
REMARK    7  A    between atoms: O_26  and  C_27
REMARK    8  A    between atoms: C_28  and  O_29
REMARK                            x       y       z     vdW  Elec       q    Type
REMARK                         _______ _______ _______ _____ _____    ______ ____
ROOT
ATOM      1  C   UNL     1       1.535   8.481  19.736  0.00  0.00    +0.000 A 
ATOM      2  N   UNL     1       1.170   7.364  20.332  0.00  0.00    +0.000 NA
ATOM      3  C   UNL     1       1.904   6.346  19.756  0.00  0.00    +0.000 A 
ATOM      4  C   UNL     1       2.677   6.830  18.705  0.00  0.00    +0.000 A 
ATOM      5  N   UNL     1       2.436   8.189  18.738  0.00  0.00    +0.000 N 
ATOM      6  H   UNL     1       2.824   8.867  18.099  0.00  0.00    +0.000 HD
ENDROOT
BRANCH   4   7
ATOM      7  C   UNL     1       3.556   6.209  17.706  0.00  0.00    +0.000 A 
ATOM      8  C   UNL     1       3.576   4.817  17.528  0.00  0.00    +0.000 A 
ATOM      9  C   UNL     1       4.459   4.215  16.627  0.00  0.00    +0.000 A 
ATOM     10  C   UNL     1       5.304   5.007  15.859  0.00  0.00    +0.000 A 
ATOM     11 BR   UNL     1       6.499   4.199  14.638  0.00  0.00    +0.000 Br
ATOM     12  C   UNL     1       5.276   6.393  15.988  0.00  0.00    +0.000 A 
ATOM     13  C   UNL     1       4.411   6.989  16.913  0.00  0.00    +0.000 A 
ENDBRANCH   4   7
BRANCH   1  16
ATOM     14  C   UNL     1       0.771  12.195  19.486  0.00  0.00    +0.000 A 
ATOM     15  C   UNL     1       1.178  10.893  19.148  0.00  0.00    +0.000 A 
ATOM     16  C   UNL     1       1.064   9.835  20.053  0.00  0.00    +0.000 A 
ATOM     17  C   UNL     1       0.508  10.106  21.307  0.00  0.00    +0.000 A 
ATOM     18  C   UNL     1       0.077  11.391  21.674  0.00  0.00    +0.000 A 
ATOM     19  C   UNL     1       0.232  12.446  20.759  0.00  0.00    +0.000 A 
BRANCH  14  21
ATOM     20  C   UNL     1       2.240  13.680  18.288  0.00  0.00    +0.000 C 
ATOM     21  O   UNL     1       0.964  13.077  18.452  0.00  0.00    +0.000 OA
ENDBRANCH  14  21
BRANCH  18  22
ATOM     22  O   UNL     1      -0.439  11.410  22.943  0.00  0.00    +0.000 OA
ATOM     23  C   UNL     1      -1.827  11.542  23.174  0.00  0.00    +0.000 C 
ENDBRANCH  18  22
BRANCH  19  24
ATOM     24  O   UNL     1      -0.104  13.727  21.094  0.00  0.00    +0.000 OA
ATOM     25  H   UNL     1      -0.895  13.948  20.576  0.00  0.00    +0.000 HD
ENDBRANCH  19  24
ENDBRANCH   1  16
BRANCH   3  26
ATOM     26  C   UNL     1       1.804   4.970  20.230  0.00  0.00    +0.000 A 
ATOM     27  C   UNL     1       2.516   4.577  21.371  0.00  0.00    +0.000 A 
ATOM     28  C   UNL     1       2.404   3.274  21.869  0.00  0.00    +0.000 A 
ATOM     29  C   UNL     1       1.577   2.350  21.231  0.00  0.00    +0.000 A 
ATOM     30  C   UNL     1       0.886   2.718  20.080  0.00  0.00    +0.000 A 
ATOM     31  C   UNL     1       1.017   4.013  19.571  0.00  0.00    +0.000 A 
ENDBRANCH   3  26
TORSDOF 6
ENDMDL
MODEL 5
REMARK VINA RESULT:      -7.8      4.536      8.740
REMARK  Name = 
REMARK  8 active torsions:
REMARK  status: ('A' for Active; 'I' for Inactive)
REMARK    1  A    between atoms: C_1  and  O_2
REMARK    2  A    between atoms: O_2  and  C_3
REMARK    3  A    between atoms: C_5  and  C_6
REMARK    4  A    between atoms: C_8  and  C_9
REMARK    5  A    between atoms: C_15  and  C_16
REMARK    6  A    between atoms: C_25  and  O_26
REMARK    7  A    between atoms: O_26  and  C_27
REMARK    8  A    between atoms: C_28  and  O_29
REMARK                            x       y       z     vdW  Elec       q    Type
REMARK                         _______ _______ _______ _____ _____    ______ ____
ROOT
ATOM      1  C   UNL     1       2.100   8.586  18.015  0.00  0.00    +0.000 A 
ATOM      2  N   UNL     1       2.582   9.759  18.375  0.00  0.00    +0.000 NA
ATOM      3  C   UNL     1       1.500  10.605  18.523  0.00  0.00    +0.000 A 
ATOM      4  C   UNL     1       0.321   9.967  18.152  0.00  0.00    +0.000 A 
ATOM      5  N   UNL     1       0.737   8.683  17.859  0.00  0.00    +0.000 N 
ATOM      6  H   UNL     1       0.142   7.936  17.534  0.00  0.00    +0.000 HD
ENDROOT
BRANCH   4   7
ATOM      7  C   UNL     1      -1.079  10.392  18.021  0.00  0.00    +0.000 A 
ATOM      8  C   UNL     1      -1.889   9.897  16.986  0.00  0.00    +0.000 A 
ATOM      9  C   UNL     1      -3.201  10.349  16.815  0.00  0.00    +0.000 A 
ATOM     10  C   UNL     1      -3.733  11.272  17.708  0.00  0.00    +0.000 A 
ATOM     11 BR   UNL     1      -5.505  11.885  17.483  0.00  0.00    +0.000 Br
ATOM     12  C   UNL     1      -2.962  11.749  18.766  0.00  0.00    +0.000 A 
ATOM     13  C   UNL     1      -1.640  11.316  18.915  0.00  0.00    +0.000 A 
ENDBRANCH   4   7
BRANCH   1  16
ATOM     14  C   UNL     1       3.141   4.931  17.960  0.00  0.00    +0.000 A 
ATOM     15  C   UNL     1       2.370   6.095  18.128  0.00  0.00    +0.000 A 
ATOM     16  C   UNL     1       2.870   7.356  17.795  0.00  0.00    +0.000 A 
ATOM     17  C   UNL     1       4.162   7.426  17.263  0.00  0.00    +0.000 A 
ATOM     18  C   UNL     1       4.955   6.283  17.068  0.00  0.00    +0.000 A 
ATOM     19  C   UNL     1       4.443   5.029  17.441  0.00  0.00    +0.000 A 
BRANCH  14  21
ATOM     20  C   UNL     1       1.514   3.895  19.401  0.00  0.00    +0.000 C 
ATOM     21  O   UNL     1       2.457   3.804  18.342  0.00  0.00    +0.000 OA
ENDBRANCH  14  21
BRANCH  18  22
ATOM     22  O   UNL     1       6.175   6.598  16.529  0.00  0.00    +0.000 OA
ATOM     23  C   UNL     1       7.302   6.841  17.345  0.00  0.00    +0.000 C 
ENDBRANCH  18  22
BRANCH  19  24
ATOM     24  O   UNL     1       5.201   3.898  17.339  0.00  0.00    +0.000 OA
ATOM     25  H   UNL     1       6.085   4.184  17.058  0.00  0.00    +0.000 HD
ENDBRANCH  19  24
ENDBRANCH   1  16
BRANCH   3  26
ATOM     26  C   UNL     1       1.664  11.978  18.990  0.00  0.00    +0.000 A 
ATOM     27  C   UNL     1       2.029  12.979  18.081  0.00  0.00    +0.000 A 
ATOM     28  C   UNL     1       2.151  14.310  18.497  0.00  0.00    +0.000 A 
ATOM     29  C   UNL     1       1.908  14.653  19.826  0.00  0.00    +0.000 A 
ATOM     30  C   UNL     1       1.571  13.664  20.746  0.00  0.00    +0.000 A 
ATOM     31  C   UNL     1       1.472  12.332  20.334  0.00  0.00    +0.000 A 
ENDBRANCH   3  26
TORSDOF 6
ENDMDL
MODEL 6
REMARK VINA RESULT:      -7.7      4.537      8.766
REMARK  Name = 
REMARK  8 active torsions:
REMARK  status: ('A' for Active; 'I' for Inactive)
REMARK    1  A    between atoms: C_1  and  O_2
REMARK    2  A    between atoms: O_2  and  C_3
REMARK    3  A    between atoms: C_5  and  C_6
REMARK    4  A    between atoms: C_8  and  C_9
REMARK    5  A    between atoms: C_15  and  C_16
REMARK    6  A    between atoms: C_25  and  O_26
REMARK    7  A    between atoms: O_26  and  C_27
REMARK    8  A    between atoms: C_28  and  O_29
REMARK                            x       y       z     vdW  Elec       q    Type
REMARK                         _______ _______ _______ _____ _____    ______ ____
ROOT
ATOM      1  C   UNL     1       2.125   8.594  18.020  0.00  0.00    +0.000 A 
ATOM      2  N   UNL     1       2.609   9.776  18.348  0.00  0.00    +0.000 NA
ATOM      3  C   UNL     1       1.529  10.626  18.481  0.00  0.00    +0.000 A 
ATOM      4  C   UNL     1       0.347   9.980  18.133  0.00  0.00    +0.000 A 
ATOM      5  N   UNL     1       0.761   8.689  17.869  0.00  0.00    +0.000 N 
ATOM      6  H   UNL     1       0.163   7.934  17.567  0.00  0.00    +0.000 HD
ENDROOT
BRANCH   4   7
ATOM      7  C   UNL     1      -1.053  10.401  17.999  0.00  0.00    +0.000 A 
ATOM      8  C   UNL     1      -1.609  11.345  18.877  0.00  0.00    +0.000 A 
ATOM      9  C   UNL     1      -2.960  11.699  18.797  0.00  0.00    +0.000 A 
ATOM     10  C   UNL     1      -3.760  11.144  17.806  0.00  0.00    +0.000 A 
ATOM     11 BR   UNL     1      -5.585  11.620  17.693  0.00  0.00    +0.000 Br
ATOM     12  C   UNL     1      -3.222  10.235  16.899  0.00  0.00    +0.000 A 
ATOM     13  C   UNL     1      -1.877   9.860  17.001  0.00  0.00    +0.000 A 
ENDBRANCH   4   7
BRANCH   1  16
ATOM     14  C   UNL     1       3.176   4.943  18.074  0.00  0.00    +0.000 A 
ATOM     15  C   UNL     1       2.407   6.110  18.219  0.00  0.00    +0.000 A 
ATOM     16  C   UNL     1       2.893   7.359  17.826  0.00  0.00    +0.000 A 
ATOM     17  C   UNL     1       4.171   7.412  17.259  0.00  0.00    +0.000 A 
ATOM     18  C   UNL     1       4.962   6.265  17.086  0.00  0.00    +0.000 A 
ATOM     19  C   UNL     1       4.464   5.024  17.519  0.00  0.00    +0.000 A 
BRANCH  14  21
ATOM     20  C   UNL     1       2.608   3.460  19.884  0.00  0.00    +0.000 C 
ATOM     21  O   UNL     1       2.506   3.829  18.516  0.00  0.00    +0.000 OA
ENDBRANCH  14  21
BRANCH  18  22
ATOM     22  O   UNL     1       6.167   6.562  16.504  0.00  0.00    +0.000 OA
ATOM     23  C   UNL     1       7.324   6.795  17.280  0.00  0.00    +0.000 C 
ENDBRANCH  18  22
BRANCH  19  24
ATOM     24  O   UNL     1       5.223   3.892  17.440  0.00  0.00    +0.000 OA
ATOM     25  H   UNL     1       6.078   4.159  17.066  0.00  0.00    +0.000 HD
ENDBRANCH  19  24
ENDBRANCH   1  16
BRANCH   3  26
ATOM     26  C   UNL     1       1.696  12.010  18.912  0.00  0.00    +0.000 A 
ATOM     27  C   UNL     1       1.450  12.353  20.248  0.00  0.00    +0.000 A 
ATOM     28  C   UNL     1       1.643  13.666  20.694  0.00  0.00    +0.000 A 
ATOM     29  C   UNL     1       2.085  14.648  19.808  0.00  0.00    +0.000 A 
ATOM     30  C   UNL     1       2.306  14.327  18.472  0.00  0.00    +0.000 A 
ATOM     31  C   UNL     1       2.091  13.021  18.023  0.00  0.00    +0.000 A 
ENDBRANCH   3  26
TORSDOF 6
ENDMDL
MODEL 7
REMARK VINA RESULT:      -7.7      4.532      8.497
REMARK  Name = 
REMARK  8 active torsions:
REMARK  status: ('A' for Active; 'I' for Inactive)
REMARK    1  A    between atoms: C_1  and  O_2
REMARK    2  A    between atoms: O_2  and  C_3
REMARK    3  A    between atoms: C_5  and  C_6
REMARK    4  A    between atoms: C_8  and  C_9
REMARK    5  A    between atoms: C_15  and  C_16
REMARK    6  A    between atoms: C_25  and  O_26
REMARK    7  A    between atoms: O_26  and  C_27
REMARK    8  A    between atoms: C_28  and  O_29
REMARK                            x       y       z     vdW  Elec       q    Type
REMARK                         _______ _______ _______ _____ _____    ______ ____
ROOT
ATOM      1  C   UNL     1       2.078   8.680  18.025  0.00  0.00    +0.000 A 
ATOM      2  N   UNL     1       2.545   9.856  18.395  0.00  0.00    +0.000 NA
ATOM      3  C   UNL     1       1.452  10.687  18.553  0.00  0.00    +0.000 A 
ATOM      4  C   UNL     1       0.281  10.037  18.177  0.00  0.00    +0.000 A 
ATOM      5  N   UNL     1       0.714   8.761  17.871  0.00  0.00    +0.000 N 
ATOM      6  H   UNL     1       0.128   8.009  17.541  0.00  0.00    +0.000 HD
ENDROOT
BRANCH   4   7
ATOM      7  C   UNL     1      -1.125  10.443  18.051  0.00  0.00    +0.000 A 
ATOM      8  C   UNL     1      -1.931   9.942  17.017  0.00  0.00    +0.000 A 
ATOM      9  C   UNL     1      -3.249  10.378  16.852  0.00  0.00    +0.000 A 
ATOM     10  C   UNL     1      -3.791  11.291  17.750  0.00  0.00    +0.000 A 
ATOM     11 BR   UNL     1      -5.572  11.882  17.533  0.00  0.00    +0.000 Br
ATOM     12  C   UNL     1      -3.024  11.773  18.808  0.00  0.00    +0.000 A 
ATOM     13  C   UNL     1      -1.695  11.357  18.951  0.00  0.00    +0.000 A 
ENDBRANCH   4   7
BRANCH   1  16
ATOM     14  C   UNL     1       4.864   6.322  16.969  0.00  0.00    +0.000 A 
ATOM     15  C   UNL     1       4.144   7.500  17.235  0.00  0.00    +0.000 A 
ATOM     16  C   UNL     1       2.864   7.463  17.792  0.00  0.00    +0.000 A 
ATOM     17  C   UNL     1       2.323   6.211  18.100  0.00  0.00    +0.000 A 
ATOM     18  C   UNL     1       3.018   5.014  17.862  0.00  0.00    +0.000 A 
ATOM     19  C   UNL     1       4.291   5.075  17.270  0.00  0.00    +0.000 A 
BRANCH  14  21
ATOM     20  C   UNL     1       7.201   6.798  17.302  0.00  0.00    +0.000 C 
ATOM     21  O   UNL     1       6.099   6.586  16.431  0.00  0.00    +0.000 OA
ENDBRANCH  14  21
BRANCH  18  22
ATOM     22  O   UNL     1       2.293   3.919  18.252  0.00  0.00    +0.000 OA
ATOM     23  C   UNL     1       1.489   3.943  19.413  0.00  0.00    +0.000 C 
ENDBRANCH  18  22
BRANCH  19  24
ATOM     24  O   UNL     1       4.977   3.938  16.952  0.00  0.00    +0.000 OA
ATOM     25  H   UNL     1       4.962   3.377  17.744  0.00  0.00    +0.000 HD
ENDBRANCH  19  24
ENDBRANCH   1  16
BRANCH   3  26
ATOM     26  C   UNL     1       1.598  12.057  19.032  0.00  0.00    +0.000 A 
ATOM     27  C   UNL     1       1.932  13.075  18.128  0.00  0.00    +0.000 A 
ATOM     28  C   UNL     1       2.036  14.403  18.557  0.00  0.00    +0.000 A 
ATOM     29  C   UNL     1       1.806  14.727  19.894  0.00  0.00    +0.000 A 
ATOM     30  C   UNL     1       1.501  13.722  20.807  0.00  0.00    +0.000 A 
ATOM     31  C   UNL     1       1.420  12.393  20.382  0.00  0.00    +0.000 A 
ENDBRANCH   3  26
TORSDOF 6
ENDMDL
MODEL 8
REMARK VINA RESULT:      -7.6      4.532      8.508
REMARK  Name = 
REMARK  8 active torsions:
REMARK  status: ('A' for Active; 'I' for Inactive)
REMARK    1  A    between atoms: C_1  and  O_2
REMARK    2  A    between atoms: O_2  and  C_3
REMARK    3  A    between atoms: C_5  and  C_6
REMARK    4  A    between atoms: C_8  and  C_9
REMARK    5  A    between atoms: C_15  and  C_16
REMARK    6  A    between atoms: C_25  and  O_26
REMARK    7  A    between atoms: O_26  and  C_27
REMARK    8  A    between atoms: C_28  and  O_29
REMARK                            x       y       z     vdW  Elec       q    Type
REMARK                         _______ _______ _______ _____ _____    ______ ____
ROOT
ATOM      1  C   UNL     1       2.093   8.700  18.016  0.00  0.00    +0.000 A 
ATOM      2  N   UNL     1       2.562   9.879  18.375  0.00  0.00    +0.000 NA
ATOM      3  C   UNL     1       1.471  10.712  18.524  0.00  0.00    +0.000 A 
ATOM      4  C   UNL     1       0.298  10.060  18.155  0.00  0.00    +0.000 A 
ATOM      5  N   UNL     1       0.729   8.781  17.862  0.00  0.00    +0.000 N 
ATOM      6  H   UNL     1       0.142   8.026  17.539  0.00  0.00    +0.000 HD
ENDROOT
BRANCH   4   7
ATOM      7  C   UNL     1      -1.106  10.468  18.026  0.00  0.00    +0.000 A 
ATOM      8  C   UNL     1      -1.665  11.419  18.895  0.00  0.00    +0.000 A 
ATOM      9  C   UNL     1      -3.019  11.760  18.820  0.00  0.00    +0.000 A 
ATOM     10  C   UNL     1      -3.821  11.184  17.843  0.00  0.00    +0.000 A 
ATOM     11 BR   UNL     1      -5.651  11.642  17.737  0.00  0.00    +0.000 Br
ATOM     12  C   UNL     1      -3.283  10.267  16.944  0.00  0.00    +0.000 A 
ATOM     13  C   UNL     1      -1.934   9.905  17.042  0.00  0.00    +0.000 A 
ENDBRANCH   4   7
BRANCH   1  16
ATOM     14  C   UNL     1       4.877   6.327  16.986  0.00  0.00    +0.000 A 
ATOM     15  C   UNL     1       4.159   7.509  17.241  0.00  0.00    +0.000 A 
ATOM     16  C   UNL     1       2.878   7.479  17.795  0.00  0.00    +0.000 A 
ATOM     17  C   UNL     1       2.333   6.230  18.112  0.00  0.00    +0.000 A 
ATOM     18  C   UNL     1       3.026   5.031  17.885  0.00  0.00    +0.000 A 
ATOM     19  C   UNL     1       4.301   5.084  17.297  0.00  0.00    +0.000 A 
BRANCH  14  21
ATOM     20  C   UNL     1       7.206   6.841  17.321  0.00  0.00    +0.000 C 
ATOM     21  O   UNL     1       6.114   6.585  16.449  0.00  0.00    +0.000 OA
ENDBRANCH  14  21
BRANCH  18  22
ATOM     22  O   UNL     1       2.298   3.940  18.283  0.00  0.00    +0.000 OA
ATOM     23  C   UNL     1       1.908   3.764  19.629  0.00  0.00    +0.000 C 
ENDBRANCH  18  22
BRANCH  19  24
ATOM     24  O   UNL     1       4.986   3.943  16.989  0.00  0.00    +0.000 OA
ATOM     25  H   UNL     1       5.754   4.217  16.463  0.00  0.00    +0.000 HD
ENDBRANCH  19  24
ENDBRANCH   1  16
BRANCH   3  26
ATOM     26  C   UNL     1       1.618  12.087  18.989  0.00  0.00    +0.000 A 
ATOM     27  C   UNL     1       1.443  12.381  20.348  0.00  0.00    +0.000 A 
ATOM     28  C   UNL     1       1.621  13.685  20.824  0.00  0.00    +0.000 A 
ATOM     29  C   UNL     1       1.976  14.708  19.946  0.00  0.00    +0.000 A 
ATOM     30  C   UNL     1       2.125  14.436  18.590  0.00  0.00    +0.000 A 
ATOM     31  C   UNL     1       1.926  13.138  18.112  0.00  0.00    +0.000 A 
ENDBRANCH   3  26
TORSDOF 6
ENDMDL
MODEL 9
REMARK VINA RESULT:      -7.5      1.308      1.833
REMARK  Name = 
REMARK  8 active torsions:
REMARK  status: ('A' for Active; 'I' for Inactive)
REMARK    1  A    between atoms: C_1  and  O_2
REMARK    2  A    between atoms: O_2  and  C_3
REMARK    3  A    between atoms: C_5  and  C_6
REMARK    4  A    between atoms: C_8  and  C_9
REMARK    5  A    between atoms: C_15  and  C_16
REMARK    6  A    between atoms: C_25  and  O_26
REMARK    7  A    between atoms: O_26  and  C_27
REMARK    8  A    between atoms: C_28  and  O_29
REMARK                            x       y       z     vdW  Elec       q    Type
REMARK                         _______ _______ _______ _____ _____    ______ ____
ROOT
ATOM      1  C   UNL     1       1.327   8.556  19.602  0.00  0.00    +0.000 A 
ATOM      2  N   UNL     1       0.990   7.452  20.240  0.00  0.00    +0.000 NA
ATOM      3  C   UNL     1       1.803   6.448  19.752  0.00  0.00    +0.000 A 
ATOM      4  C   UNL     1       2.600   6.919  18.714  0.00  0.00    +0.000 A 
ATOM      5  N   UNL     1       2.288   8.263  18.664  0.00  0.00    +0.000 N 
ATOM      6  H   UNL     1       2.671   8.928  18.008  0.00  0.00    +0.000 HD
ENDROOT
BRANCH   4   7
ATOM      7  C   UNL     1       3.557   6.297  17.790  0.00  0.00    +0.000 A 
ATOM      8  C   UNL     1       4.480   7.076  17.075  0.00  0.00    +0.000 A 
ATOM      9  C   UNL     1       5.347   6.498  16.143  0.00  0.00    +0.000 A 
ATOM     10  C   UNL     1       5.331   5.121  15.949  0.00  0.00    +0.000 A 
ATOM     11 BR   UNL     1       6.501   4.334  14.693  0.00  0.00    +0.000 Br
ATOM     12  C   UNL     1       4.452   4.322  16.675  0.00  0.00    +0.000 A 
ATOM     13  C   UNL     1       3.565   4.909  17.585  0.00  0.00    +0.000 A 
ENDBRANCH   4   7
BRANCH   1  16
ATOM     14  C   UNL     1      -1.001  11.560  19.559  0.00  0.00    +0.000 A 
ATOM     15  C   UNL     1      -0.504  10.256  19.384  0.00  0.00    +0.000 A 
ATOM     16  C   UNL     1       0.771   9.896  19.826  0.00  0.00    +0.000 A 
ATOM     17  C   UNL     1       1.538  10.872  20.472  0.00  0.00    +0.000 A 
ATOM     18  C   UNL     1       1.068  12.179  20.677  0.00  0.00    +0.000 A 
ATOM     19  C   UNL     1      -0.205  12.527  20.195  0.00  0.00    +0.000 A 
BRANCH  14  21
ATOM     20  C   UNL     1      -2.481  11.570  17.659  0.00  0.00    +0.000 C 
ATOM     21  O   UNL     1      -2.272  11.694  19.059  0.00  0.00    +0.000 OA
ENDBRANCH  14  21
BRANCH  18  22
ATOM     22  O   UNL     1       1.988  12.951  21.337  0.00  0.00    +0.000 OA
ATOM     23  C   UNL     1       2.896  13.777  20.638  0.00  0.00    +0.000 C 
ENDBRANCH  18  22
BRANCH  19  24
ATOM     24  O   UNL     1      -0.678  13.804  20.304  0.00  0.00    +0.000 OA
ATOM     25  H   UNL     1      -1.606  13.779  20.020  0.00  0.00    +0.000 HD
ENDBRANCH  19  24
ENDBRANCH   1  16
BRANCH   3  26
ATOM     26  C   UNL     1       1.752   5.093  20.293  0.00  0.00    +0.000 A 
ATOM     27  C   UNL     1       0.899   4.147  19.711  0.00  0.00    +0.000 A 
ATOM     28  C   UNL     1       0.863   2.831  20.187  0.00  0.00    +0.000 A 
ATOM     29  C   UNL     1       1.681   2.448  21.249  0.00  0.00    +0.000 A 
ATOM     30  C   UNL     1       2.513   3.386  21.855  0.00  0.00    +0.000 A 
ATOM     31  C   UNL     1       2.531   4.705  21.394  0.00  0.00    +0.000 A 
ENDBRANCH   3  26
TORSDOF 6
ENDMDL
