MODEL 1
REMARK VINA RESULT:      -6.9      0.000      0.000
REMARK  Name = 
REMARK  6 active torsions:
REMARK  status: ('A' for Active; 'I' for Inactive)
REMARK    1  A    between atoms: C_1  and  O_2
REMARK    2  A    between atoms: O_2  and  C_3
REMARK    3  A    between atoms: C_3  and  C_4
REMARK    4  A    between atoms: N_6  and  C_7
REMARK    5  A    between atoms: C_7  and  C_8
REMARK    6  A    between atoms: C_11  and  C_12
REMARK                            x       y       z     vdW  Elec       q    Type
REMARK                         _______ _______ _______ _____ _____    ______ ____
ROOT
ATOM      1  C   UNL     1       5.649   6.201  18.230  0.00  0.00    +0.000 C 
ENDROOT
BRANCH   1   2
ATOM      2  C   UNL     1       4.415   5.383  18.540  0.00  0.00    +0.000 A 
ATOM      3  C   UNL     1       4.577   4.042  18.938  0.00  0.00    +0.000 A 
ATOM      4  C   UNL     1       3.476   3.188  19.070  0.00  0.00    +0.000 A 
ATOM      5  C   UNL     1       2.186   3.666  18.827  0.00  0.00    +0.000 A 
ATOM      6  C   UNL     1       2.004   5.014  18.511  0.00  0.00    +0.000 A 
ATOM      7  C   UNL     1       3.107   5.869  18.376  0.00  0.00    +0.000 A 
ATOM      8 BR   UNL     1       2.737   7.678  17.928  0.00  0.00    +0.000 Br
BRANCH   5   9
ATOM      9  C   UNL     1       1.062   2.773  18.864  0.00  0.00    +0.000 C 
ATOM     10  N   UNL     1       0.164   2.042  18.918  0.00  0.00    +0.000 NA
ENDBRANCH   5   9
ENDBRANCH   1   2
BRANCH   1  13
ATOM     11  C   UNL     1       6.975   5.017  15.256  0.00  0.00    +0.000 A 
ATOM     12  N   UNL     1       6.110   5.789  15.838  0.00  0.00    +0.000 NA
ATOM     13  N   UNL     1       6.462   5.680  17.158  0.00  0.00    +0.000 N 
ATOM     14  C   UNL     1       7.512   4.810  17.315  0.00  0.00    +0.000 A 
ATOM     15  O   UNL     1       8.037   4.434  18.349  0.00  0.00    +0.000 OA
ATOM     16  O   UNL     1       7.868   4.406  16.065  0.00  0.00    +0.000 OA
BRANCH  11  17
ATOM     17  C   UNL     1       7.083   4.730  13.790  0.00  0.00    +0.000 C 
BRANCH  17  19
ATOM     18  C   UNL     1       6.309   3.290  12.091  0.00  0.00    +0.000 C 
ATOM     19  O   UNL     1       6.156   3.708  13.439  0.00  0.00    +0.000 OA
ENDBRANCH  17  19
ENDBRANCH  11  17
ENDBRANCH   1  13
TORSDOF 5
ENDMDL
MODEL 2
REMARK VINA RESULT:      -6.8      2.515      3.947
REMARK  Name = 
REMARK  6 active torsions:
REMARK  status: ('A' for Active; 'I' for Inactive)
REMARK    1  A    between atoms: C_1  and  O_2
REMARK    2  A    between atoms: O_2  and  C_3
REMARK    3  A    between atoms: C_3  and  C_4
REMARK    4  A    between atoms: N_6  and  C_7
REMARK    5  A    between atoms: C_7  and  C_8
REMARK    6  A    between atoms: C_11  and  C_12
REMARK                            x       y       z     vdW  Elec       q    Type
REMARK                         _______ _______ _______ _____ _____    ______ ____
ROOT
ATOM      1  C   UNL     1       5.599   5.902  16.290  0.00  0.00    +0.000 C 
ENDROOT
BRANCH   1   2
ATOM      2  C   UNL     1       4.521   5.136  17.024  0.00  0.00    +0.000 A 
ATOM      3  C   UNL     1       4.594   3.729  17.052  0.00  0.00    +0.000 A 
ATOM      4  C   UNL     1       3.542   2.961  17.562  0.00  0.00    +0.000 A 
ATOM      5  C   UNL     1       2.404   3.585  18.076  0.00  0.00    +0.000 A 
ATOM      6  C   UNL     1       2.352   4.980  18.129  0.00  0.00    +0.000 A 
ATOM      7  C   UNL     1       3.405   5.750  17.616  0.00  0.00    +0.000 A 
ATOM      8 BR   UNL     1       3.218   7.637  17.729  0.00  0.00    +0.000 Br
BRANCH   5   9
ATOM      9  C   UNL     1       1.280   2.802  18.511  0.00  0.00    +0.000 C 
ATOM     10  N   UNL     1       0.367   2.191  18.879  0.00  0.00    +0.000 NA
ENDBRANCH   5   9
ENDBRANCH   1   2
BRANCH   1  13
ATOM     11  C   UNL     1       7.726   8.191  17.788  0.00  0.00    +0.000 A 
ATOM     12  N   UNL     1       6.722   7.988  16.991  0.00  0.00    +0.000 NA
ATOM     13  N   UNL     1       6.496   6.646  17.142  0.00  0.00    +0.000 N 
ATOM     14  C   UNL     1       7.406   6.088  18.005  0.00  0.00    +0.000 A 
ATOM     15  O   UNL     1       7.534   4.917  18.319  0.00  0.00    +0.000 OA
ATOM     16  O   UNL     1       8.186   7.109  18.454  0.00  0.00    +0.000 OA
BRANCH  11  17
ATOM     17  C   UNL     1       8.426   9.490  18.042  0.00  0.00    +0.000 C 
BRANCH  17  19
ATOM     18  C   UNL     1       9.362  10.636  19.879  0.00  0.00    +0.000 C 
ATOM     19  O   UNL     1       9.204   9.383  19.229  0.00  0.00    +0.000 OA
ENDBRANCH  17  19
ENDBRANCH  11  17
ENDBRANCH   1  13
TORSDOF 5
ENDMDL
MODEL 3
REMARK VINA RESULT:      -6.6      2.276      3.596
REMARK  Name = 
REMARK  6 active torsions:
REMARK  status: ('A' for Active; 'I' for Inactive)
REMARK    1  A    between atoms: C_1  and  O_2
REMARK    2  A    between atoms: O_2  and  C_3
REMARK    3  A    between atoms: C_3  and  C_4
REMARK    4  A    between atoms: N_6  and  C_7
REMARK    5  A    between atoms: C_7  and  C_8
REMARK    6  A    between atoms: C_11  and  C_12
REMARK                            x       y       z     vdW  Elec       q    Type
REMARK                         _______ _______ _______ _____ _____    ______ ____
ROOT
ATOM      1  C   UNL     1       4.587   4.541  16.736  0.00  0.00    +0.000 C 
ENDROOT
BRANCH   1   2
ATOM      2  C   UNL     1       3.972   4.203  18.077  0.00  0.00    +0.000 A 
ATOM      3  C   UNL     1       4.232   2.937  18.638  0.00  0.00    +0.000 A 
ATOM      4  C   UNL     1       3.558   2.502  19.784  0.00  0.00    +0.000 A 
ATOM      5  C   UNL     1       2.624   3.334  20.406  0.00  0.00    +0.000 A 
ATOM      6  C   UNL     1       2.416   4.622  19.908  0.00  0.00    +0.000 A 
ATOM      7  C   UNL     1       3.090   5.058  18.758  0.00  0.00    +0.000 A 
ATOM      8 BR   UNL     1       2.715   6.823  18.165  0.00  0.00    +0.000 Br
BRANCH   5   9
ATOM      9  C   UNL     1       1.857   2.858  21.523  0.00  0.00    +0.000 C 
ATOM     10  N   UNL     1       1.235   2.499  22.432  0.00  0.00    +0.000 NA
ENDBRANCH   5   9
ENDBRANCH   1   2
BRANCH   1  13
ATOM     11  C   UNL     1       7.276   6.580  17.520  0.00  0.00    +0.000 A 
ATOM     12  N   UNL     1       6.259   5.898  17.948  0.00  0.00    +0.000 NA
ATOM     13  N   UNL     1       5.835   5.262  16.811  0.00  0.00    +0.000 N 
ATOM     14  C   UNL     1       6.603   5.621  15.732  0.00  0.00    +0.000 A 
ATOM     15  O   UNL     1       6.471   5.295  14.564  0.00  0.00    +0.000 OA
ATOM     16  O   UNL     1       7.567   6.456  16.206  0.00  0.00    +0.000 OA
BRANCH  11  17
ATOM     17  C   UNL     1       8.153   7.490  18.325  0.00  0.00    +0.000 C 
BRANCH  17  19
ATOM     18  C   UNL     1       8.834   9.738  18.536  0.00  0.00    +0.000 C 
ATOM     19  O   UNL     1       7.902   8.840  17.951  0.00  0.00    +0.000 OA
ENDBRANCH  17  19
ENDBRANCH  11  17
ENDBRANCH   1  13
TORSDOF 5
ENDMDL
MODEL 4
REMARK VINA RESULT:      -6.6      2.659      3.204
REMARK  Name = 
REMARK  6 active torsions:
REMARK  status: ('A' for Active; 'I' for Inactive)
REMARK    1  A    between atoms: C_1  and  O_2
REMARK    2  A    between atoms: O_2  and  C_3
REMARK    3  A    between atoms: C_3  and  C_4
REMARK    4  A    between atoms: N_6  and  C_7
REMARK    5  A    between atoms: C_7  and  C_8
REMARK    6  A    between atoms: C_11  and  C_12
REMARK                            x       y       z     vdW  Elec       q    Type
REMARK                         _______ _______ _______ _____ _____    ______ ____
ROOT
ATOM      1  C   UNL     1       4.559   3.761  18.590  0.00  0.00    +0.000 C 
ENDROOT
BRANCH   1   2
ATOM      2  C   UNL     1       3.579   4.807  19.073  0.00  0.00    +0.000 A 
ATOM      3  C   UNL     1       3.576   6.069  18.446  0.00  0.00    +0.000 A 
ATOM      4  C   UNL     1       2.819   7.129  18.958  0.00  0.00    +0.000 A 
ATOM      5  C   UNL     1       2.031   6.941  20.096  0.00  0.00    +0.000 A 
ATOM      6  C   UNL     1       1.962   5.675  20.680  0.00  0.00    +0.000 A 
ATOM      7  C   UNL     1       2.722   4.613  20.169  0.00  0.00    +0.000 A 
ATOM      8 BR   UNL     1       2.559   2.941  21.055  0.00  0.00    +0.000 Br
BRANCH   5   9
ATOM      9  C   UNL     1       1.330   8.049  20.684  0.00  0.00    +0.000 C 
ATOM     10  N   UNL     1       0.759   8.927  21.179  0.00  0.00    +0.000 NA
ENDBRANCH   5   9
ENDBRANCH   1   2
BRANCH   1  13
ATOM     11  C   UNL     1       6.442   4.431  15.759  0.00  0.00    +0.000 A 
ATOM     12  N   UNL     1       5.291   4.093  16.253  0.00  0.00    +0.000 NA
ATOM     13  N   UNL     1       5.500   4.230  17.600  0.00  0.00    +0.000 N 
ATOM     14  C   UNL     1       6.792   4.615  17.860  0.00  0.00    +0.000 A 
ATOM     15  O   UNL     1       7.333   4.770  18.941  0.00  0.00    +0.000 OA
ATOM     16  O   UNL     1       7.395   4.780  16.652  0.00  0.00    +0.000 OA
BRANCH  11  17
ATOM     17  C   UNL     1       6.824   4.470  14.312  0.00  0.00    +0.000 C 
BRANCH  17  19
ATOM     18  C   UNL     1       8.179   5.596  12.744  0.00  0.00    +0.000 C 
ATOM     19  O   UNL     1       7.797   5.490  14.107  0.00  0.00    +0.000 OA
ENDBRANCH  17  19
ENDBRANCH  11  17
ENDBRANCH   1  13
TORSDOF 5
ENDMDL
MODEL 5
REMARK VINA RESULT:      -6.4      2.433      3.161
REMARK  Name = 
REMARK  6 active torsions:
REMARK  status: ('A' for Active; 'I' for Inactive)
REMARK    1  A    between atoms: C_1  and  O_2
REMARK    2  A    between atoms: O_2  and  C_3
REMARK    3  A    between atoms: C_3  and  C_4
REMARK    4  A    between atoms: N_6  and  C_7
REMARK    5  A    between atoms: C_7  and  C_8
REMARK    6  A    between atoms: C_11  and  C_12
REMARK                            x       y       z     vdW  Elec       q    Type
REMARK                         _______ _______ _______ _____ _____    ______ ____
ROOT
ATOM      1  C   UNL     1       4.976   4.394  18.137  0.00  0.00    +0.000 C 
ENDROOT
BRANCH   1   2
ATOM      2  C   UNL     1       3.957   5.496  18.327  0.00  0.00    +0.000 A 
ATOM      3  C   UNL     1       4.021   6.625  17.486  0.00  0.00    +0.000 A 
ATOM      4  C   UNL     1       3.221   7.748  17.723  0.00  0.00    +0.000 A 
ATOM      5  C   UNL     1       2.325   7.757  18.795  0.00  0.00    +0.000 A 
ATOM      6  C   UNL     1       2.194   6.615  19.587  0.00  0.00    +0.000 A 
ATOM      7  C   UNL     1       2.996   5.490  19.351  0.00  0.00    +0.000 A 
ATOM      8 BR   UNL     1       2.740   4.000  20.503  0.00  0.00    +0.000 Br
BRANCH   5   9
ATOM      9  C   UNL     1       1.574   8.942  19.103  0.00  0.00    +0.000 C 
ATOM     10  N   UNL     1       0.964   9.889  19.377  0.00  0.00    +0.000 NA
ENDBRANCH   5   9
ENDBRANCH   1   2
BRANCH   1  13
ATOM     11  C   UNL     1       6.332   4.227  14.953  0.00  0.00    +0.000 A 
ATOM     12  N   UNL     1       5.265   4.214  15.689  0.00  0.00    +0.000 NA
ATOM     13  N   UNL     1       5.763   4.503  16.932  0.00  0.00    +0.000 N 
ATOM     14  C   UNL     1       7.128   4.645  16.893  0.00  0.00    +0.000 A 
ATOM     15  O   UNL     1       7.897   4.843  17.818  0.00  0.00    +0.000 OA
ATOM     16  O   UNL     1       7.493   4.499  15.590  0.00  0.00    +0.000 OA
BRANCH  11  17
ATOM     17  C   UNL     1       6.414   3.970  13.480  0.00  0.00    +0.000 C 
BRANCH  17  19
ATOM     18  C   UNL     1       5.138   2.992  11.753  0.00  0.00    +0.000 C 
ATOM     19  O   UNL     1       5.107   3.723  12.971  0.00  0.00    +0.000 OA
ENDBRANCH  17  19
ENDBRANCH  11  17
ENDBRANCH   1  13
TORSDOF 5
ENDMDL
MODEL 6
REMARK VINA RESULT:      -6.4      3.470      6.029
REMARK  Name = 
REMARK  6 active torsions:
REMARK  status: ('A' for Active; 'I' for Inactive)
REMARK    1  A    between atoms: C_1  and  O_2
REMARK    2  A    between atoms: O_2  and  C_3
REMARK    3  A    between atoms: C_3  and  C_4
REMARK    4  A    between atoms: N_6  and  C_7
REMARK    5  A    between atoms: C_7  and  C_8
REMARK    6  A    between atoms: C_11  and  C_12
REMARK                            x       y       z     vdW  Elec       q    Type
REMARK                         _______ _______ _______ _____ _____    ______ ____
ROOT
ATOM      1  C   UNL     1       5.445   5.270  19.145  0.00  0.00    +0.000 C 
ENDROOT
BRANCH   1   2
ATOM      2  C   UNL     1       5.596   5.065  17.654  0.00  0.00    +0.000 A 
ATOM      3  C   UNL     1       4.838   4.053  17.032  0.00  0.00    +0.000 A 
ATOM      4  C   UNL     1       5.061   3.700  15.696  0.00  0.00    +0.000 A 
ATOM      5  C   UNL     1       6.033   4.369  14.948  0.00  0.00    +0.000 A 
ATOM      6  C   UNL     1       6.735   5.427  15.527  0.00  0.00    +0.000 A 
ATOM      7  C   UNL     1       6.514   5.780  16.866  0.00  0.00    +0.000 A 
ATOM      8 BR   UNL     1       7.539   7.226  17.550  0.00  0.00    +0.000 Br
BRANCH   5   9
ATOM      9  C   UNL     1       6.334   3.947  13.608  0.00  0.00    +0.000 C 
ATOM     10  N   UNL     1       6.570   3.631  12.519  0.00  0.00    +0.000 NA
ENDBRANCH   5   9
ENDBRANCH   1   2
BRANCH   1  13
ATOM     11  C   UNL     1       2.349   4.222  20.294  0.00  0.00    +0.000 A 
ATOM     12  N   UNL     1       3.621   3.986  20.210  0.00  0.00    +0.000 NA
ATOM     13  N   UNL     1       4.094   5.137  19.636  0.00  0.00    +0.000 N 
ATOM     14  C   UNL     1       3.068   6.009  19.367  0.00  0.00    +0.000 A 
ATOM     15  O   UNL     1       3.120   7.092  18.808  0.00  0.00    +0.000 OA
ATOM     16  O   UNL     1       1.932   5.422  19.831  0.00  0.00    +0.000 OA
BRANCH  11  17
ATOM     17  C   UNL     1       1.298   3.307  20.844  0.00  0.00    +0.000 C 
BRANCH  17  19
ATOM     18  C   UNL     1       1.034   2.224  18.765  0.00  0.00    +0.000 C 
ATOM     19  O   UNL     1       0.393   2.949  19.804  0.00  0.00    +0.000 OA
ENDBRANCH  17  19
ENDBRANCH  11  17
ENDBRANCH   1  13
TORSDOF 5
ENDMDL
MODEL 7
REMARK VINA RESULT:      -6.3      1.129      1.143
REMARK  Name = 
REMARK  6 active torsions:
REMARK  status: ('A' for Active; 'I' for Inactive)
REMARK    1  A    between atoms: C_1  and  O_2
REMARK    2  A    between atoms: O_2  and  C_3
REMARK    3  A    between atoms: C_3  and  C_4
REMARK    4  A    between atoms: N_6  and  C_7
REMARK    5  A    between atoms: C_7  and  C_8
REMARK    6  A    between atoms: C_11  and  C_12
REMARK                            x       y       z     vdW  Elec       q    Type
REMARK                         _______ _______ _______ _____ _____    ______ ____
ROOT
ATOM      1  C   UNL     1       5.980   5.403  18.983  0.00  0.00    +0.000 C 
ENDROOT
BRANCH   1   2
ATOM      2  C   UNL     1       4.624   4.739  19.062  0.00  0.00    +0.000 A 
ATOM      3  C   UNL     1       4.548   3.413  19.534  0.00  0.00    +0.000 A 
ATOM      4  C   UNL     1       3.353   2.689  19.467  0.00  0.00    +0.000 A 
ATOM      5  C   UNL     1       2.202   3.283  18.946  0.00  0.00    +0.000 A 
ATOM      6  C   UNL     1       2.242   4.622  18.549  0.00  0.00    +0.000 A 
ATOM      7  C   UNL     1       3.439   5.347  18.614  0.00  0.00    +0.000 A 
ATOM      8 BR   UNL     1       3.376   7.155  18.033  0.00  0.00    +0.000 Br
BRANCH   5   9
ATOM      9  C   UNL     1       0.998   2.516  18.783  0.00  0.00    +0.000 C 
ATOM     10  N   UNL     1       0.039   1.884  18.630  0.00  0.00    +0.000 NA
ENDBRANCH   5   9
ENDBRANCH   1   2
BRANCH   1  13
ATOM     11  C   UNL     1       7.023   5.212  15.685  0.00  0.00    +0.000 A 
ATOM     12  N   UNL     1       6.257   4.740  16.619  0.00  0.00    +0.000 NA
ATOM     13  N   UNL     1       6.463   5.628  17.642  0.00  0.00    +0.000 N 
ATOM     14  C   UNL     1       7.381   6.584  17.285  0.00  0.00    +0.000 A 
ATOM     15  O   UNL     1       7.842   7.485  17.966  0.00  0.00    +0.000 OA
ATOM     16  O   UNL     1       7.719   6.330  15.991  0.00  0.00    +0.000 OA
BRANCH  11  17
ATOM     17  C   UNL     1       7.221   4.648  14.312  0.00  0.00    +0.000 C 
BRANCH  17  19
ATOM     18  C   UNL     1       6.042   3.436  12.668  0.00  0.00    +0.000 C 
ATOM     19  O   UNL     1       5.952   4.381  13.724  0.00  0.00    +0.000 OA
ENDBRANCH  17  19
ENDBRANCH  11  17
ENDBRANCH   1  13
TORSDOF 5
ENDMDL
MODEL 8
REMARK VINA RESULT:      -6.3      1.674      1.760
REMARK  Name = 
REMARK  6 active torsions:
REMARK  status: ('A' for Active; 'I' for Inactive)
REMARK    1  A    between atoms: C_1  and  O_2
REMARK    2  A    between atoms: O_2  and  C_3
REMARK    3  A    between atoms: C_3  and  C_4
REMARK    4  A    between atoms: N_6  and  C_7
REMARK    5  A    between atoms: C_7  and  C_8
REMARK    6  A    between atoms: C_11  and  C_12
REMARK                            x       y       z     vdW  Elec       q    Type
REMARK                         _______ _______ _______ _____ _____    ______ ____
ROOT
ATOM      1  C   UNL     1       4.116   7.007  17.225  0.00  0.00    +0.000 C 
ENDROOT
BRANCH   1   2
ATOM      2  C   UNL     1       3.673   6.165  18.402  0.00  0.00    +0.000 A 
ATOM      3  C   UNL     1       4.235   4.884  18.564  0.00  0.00    +0.000 A 
ATOM      4  C   UNL     1       3.743   3.995  19.526  0.00  0.00    +0.000 A 
ATOM      5  C   UNL     1       2.691   4.378  20.361  0.00  0.00    +0.000 A 
ATOM      6  C   UNL     1       2.178   5.673  20.265  0.00  0.00    +0.000 A 
ATOM      7  C   UNL     1       2.669   6.564  19.301  0.00  0.00    +0.000 A 
ATOM      8 BR   UNL     1       1.884   8.293  19.255  0.00  0.00    +0.000 Br
BRANCH   5   9
ATOM      9  C   UNL     1       2.116   3.437  21.282  0.00  0.00    +0.000 C 
ATOM     10  N   UNL     1       1.673   2.662  22.021  0.00  0.00    +0.000 NA
ENDBRANCH   5   9
ENDBRANCH   1   2
BRANCH   1  13
ATOM     11  C   UNL     1       6.408   5.243  15.317  0.00  0.00    +0.000 A 
ATOM     12  N   UNL     1       5.170   5.582  15.503  0.00  0.00    +0.000 NA
ATOM     13  N   UNL     1       5.267   6.495  16.520  0.00  0.00    +0.000 N 
ATOM     14  C   UNL     1       6.570   6.640  16.927  0.00  0.00    +0.000 A 
ATOM     15  O   UNL     1       7.008   7.318  17.841  0.00  0.00    +0.000 OA
ATOM     16  O   UNL     1       7.318   5.846  16.114  0.00  0.00    +0.000 OA
BRANCH  11  17
ATOM     17  C   UNL     1       6.931   4.256  14.319  0.00  0.00    +0.000 C 
BRANCH  17  19
ATOM     18  C   UNL     1       6.216   3.447  12.222  0.00  0.00    +0.000 C 
ATOM     19  O   UNL     1       5.846   3.727  13.565  0.00  0.00    +0.000 OA
ENDBRANCH  17  19
ENDBRANCH  11  17
ENDBRANCH   1  13
TORSDOF 5
ENDMDL
MODEL 9
REMARK VINA RESULT:      -6.3      3.242      4.356
REMARK  Name = 
REMARK  6 active torsions:
REMARK  status: ('A' for Active; 'I' for Inactive)
REMARK    1  A    between atoms: C_1  and  O_2
REMARK    2  A    between atoms: O_2  and  C_3
REMARK    3  A    between atoms: C_3  and  C_4
REMARK    4  A    between atoms: N_6  and  C_7
REMARK    5  A    between atoms: C_7  and  C_8
REMARK    6  A    between atoms: C_11  and  C_12
REMARK                            x       y       z     vdW  Elec       q    Type
REMARK                         _______ _______ _______ _____ _____    ______ ____
ROOT
ATOM      1  C   UNL     1       2.922   4.810  18.079  0.00  0.00    +0.000 C 
ENDROOT
BRANCH   1   2
ATOM      2  C   UNL     1       2.306   5.861  18.975  0.00  0.00    +0.000 A 
ATOM      3  C   UNL     1       2.366   7.210  18.572  0.00  0.00    +0.000 A 
ATOM      4  C   UNL     1       1.971   8.240  19.433  0.00  0.00    +0.000 A 
ATOM      5  C   UNL     1       1.487   7.940  20.708  0.00  0.00    +0.000 A 
ATOM      6  C   UNL     1       1.346   6.604  21.091  0.00  0.00    +0.000 A 
ATOM      7  C   UNL     1       1.744   5.572  20.230  0.00  0.00    +0.000 A 
ATOM      8 BR   UNL     1       1.519   3.796  20.864  0.00  0.00    +0.000 Br
BRANCH   5   9
ATOM      9  C   UNL     1       1.173   8.995  21.632  0.00  0.00    +0.000 C 
ATOM     10  N   UNL     1       0.945   9.854  22.375  0.00  0.00    +0.000 NA
ENDBRANCH   5   9
ENDBRANCH   1   2
BRANCH   1  13
ATOM     11  C   UNL     1       6.272   5.083  17.236  0.00  0.00    +0.000 A 
ATOM     12  N   UNL     1       5.057   5.491  17.037  0.00  0.00    +0.000 NA
ATOM     13  N   UNL     1       4.364   4.838  18.022  0.00  0.00    +0.000 N 
ATOM     14  C   UNL     1       5.198   4.031  18.756  0.00  0.00    +0.000 A 
ATOM     15  O   UNL     1       4.911   3.269  19.663  0.00  0.00    +0.000 OA
ATOM     16  O   UNL     1       6.451   4.221  18.261  0.00  0.00    +0.000 OA
BRANCH  11  17
ATOM     17  C   UNL     1       7.489   5.462  16.449  0.00  0.00    +0.000 C 
BRANCH  17  19
ATOM     18  C   UNL     1       7.778   7.404  17.756  0.00  0.00    +0.000 C 
ATOM     19  O   UNL     1       7.626   6.879  16.445  0.00  0.00    +0.000 OA
ENDBRANCH  17  19
ENDBRANCH  11  17
ENDBRANCH   1  13
TORSDOF 5
ENDMDL
