MODEL 1
REMARK VINA RESULT:      -8.3      0.000      0.000
REMARK  Name = 
REMARK  3 active torsions:
REMARK  status: ('A' for Active; 'I' for Inactive)
REMARK    1  A    between atoms: C_2  and  O_3
REMARK    2  A    between atoms: C_2  and  C_4
REMARK    3  A    between atoms: C_6  and  C_7
REMARK                            x       y       z     vdW  Elec       q    Type
REMARK                         _______ _______ _______ _____ _____    ______ ____
ROOT
ATOM      1  C   UNL     1       6.518   5.268  18.382  0.00  0.00    +0.000 A 
ATOM      2  C   UNL     1       5.468   4.971  19.255  0.00  0.00    +0.000 A 
ATOM      3  C   UNL     1       4.367   4.274  18.785  0.00  0.00    +0.000 A 
ATOM      4  N   UNL     1       4.272   3.916  17.481  0.00  0.00    +0.000 NA
ATOM      5  C   UNL     1       5.244   4.247  16.622  0.00  0.00    +0.000 A 
ATOM      6  C   UNL     1       5.068   3.901  15.289  0.00  0.00    +0.000 A 
ATOM      7  C   UNL     1       6.014   4.208  14.311  0.00  0.00    +0.000 A 
ATOM      8  C   UNL     1       7.180   4.863  14.674  0.00  0.00    +0.000 A 
ATOM      9  C   UNL     1       7.386   5.210  16.008  0.00  0.00    +0.000 A 
ATOM     10  C   UNL     1       6.418   4.927  17.007  0.00  0.00    +0.000 A 
ENDROOT
BRANCH   3  11
ATOM     11  C   UNL     1       3.259   3.875  19.681  0.00  0.00    +0.000 A 
ATOM     12  C   UNL     1       1.991   4.456  19.605  0.00  0.00    +0.000 A 
ATOM     13  C   UNL     1       0.988   4.023  20.471  0.00  0.00    +0.000 A 
ATOM     14  C   UNL     1       1.269   3.023  21.393  0.00  0.00    +0.000 A 
ATOM     15  C   UNL     1       2.546   2.494  21.409  0.00  0.00    +0.000 A 
ATOM     16  N   UNL     1       3.536   2.887  20.579  0.00  0.00    +0.000 NA
ENDBRANCH   3  11
BRANCH   1  18
ATOM     17  O   UNL     1       8.069   7.088  18.565  0.00  0.00    +0.000 OA
ATOM     18  C   UNL     1       7.703   5.986  18.934  0.00  0.00    +0.000 C 
BRANCH  18  19
ATOM     19  O   UNL     1       8.366   5.299  19.895  0.00  0.00    +0.000 OA
ATOM     20  H   UNL     1       8.662   4.399  19.660  0.00  0.00    +0.000 HD
ENDBRANCH  18  19
ENDBRANCH   1  18
TORSDOF 3
ENDMDL
MODEL 2
REMARK VINA RESULT:      -8.1      1.832      5.832
REMARK  Name = 
REMARK  3 active torsions:
REMARK  status: ('A' for Active; 'I' for Inactive)
REMARK    1  A    between atoms: C_2  and  O_3
REMARK    2  A    between atoms: C_2  and  C_4
REMARK    3  A    between atoms: C_6  and  C_7
REMARK                            x       y       z     vdW  Elec       q    Type
REMARK                         _______ _______ _______ _____ _____    ______ ____
ROOT
ATOM      1  C   UNL     1       6.516   5.383  18.130  0.00  0.00    +0.000 A 
ATOM      2  C   UNL     1       6.996   5.159  16.837  0.00  0.00    +0.000 A 
ATOM      3  C   UNL     1       6.109   4.812  15.831  0.00  0.00    +0.000 A 
ATOM      4  N   UNL     1       4.790   4.640  16.092  0.00  0.00    +0.000 NA
ATOM      5  C   UNL     1       4.327   4.793  17.340  0.00  0.00    +0.000 A 
ATOM      6  C   UNL     1       2.978   4.552  17.558  0.00  0.00    +0.000 A 
ATOM      7  C   UNL     1       2.396   4.672  18.820  0.00  0.00    +0.000 A 
ATOM      8  C   UNL     1       3.179   5.061  19.896  0.00  0.00    +0.000 A 
ATOM      9  C   UNL     1       4.535   5.320  19.700  0.00  0.00    +0.000 A 
ATOM     10  C   UNL     1       5.142   5.176  18.425  0.00  0.00    +0.000 A 
ENDROOT
BRANCH   3  11
ATOM     11  C   UNL     1       6.553   4.630  14.431  0.00  0.00    +0.000 A 
ATOM     12  C   UNL     1       5.953   3.708  13.571  0.00  0.00    +0.000 A 
ATOM     13  C   UNL     1       6.412   3.597  12.260  0.00  0.00    +0.000 A 
ATOM     14  C   UNL     1       7.458   4.405  11.834  0.00  0.00    +0.000 A 
ATOM     15  C   UNL     1       8.002   5.296  12.741  0.00  0.00    +0.000 A 
ATOM     16  N   UNL     1       7.575   5.431  14.015  0.00  0.00    +0.000 NA
ENDBRANCH   3  11
BRANCH   1  18
ATOM     17  O   UNL     1       7.648   5.212  20.238  0.00  0.00    +0.000 OA
ATOM     18  C   UNL     1       7.496   5.793  19.178  0.00  0.00    +0.000 C 
BRANCH  18  19
ATOM     19  O   UNL     1       8.216   6.894  18.857  0.00  0.00    +0.000 OA
ATOM     20  H   UNL     1       7.715   7.658  18.514  0.00  0.00    +0.000 HD
ENDBRANCH  18  19
ENDBRANCH   1  18
TORSDOF 3
ENDMDL
MODEL 3
REMARK VINA RESULT:      -8.1      0.618      1.097
REMARK  Name = 
REMARK  3 active torsions:
REMARK  status: ('A' for Active; 'I' for Inactive)
REMARK    1  A    between atoms: C_2  and  O_3
REMARK    2  A    between atoms: C_2  and  C_4
REMARK    3  A    between atoms: C_6  and  C_7
REMARK                            x       y       z     vdW  Elec       q    Type
REMARK                         _______ _______ _______ _____ _____    ______ ____
ROOT
ATOM      1  C   UNL     1       6.527   5.260  18.361  0.00  0.00    +0.000 A 
ATOM      2  C   UNL     1       5.488   4.938  19.238  0.00  0.00    +0.000 A 
ATOM      3  C   UNL     1       4.397   4.225  18.770  0.00  0.00    +0.000 A 
ATOM      4  N   UNL     1       4.299   3.875  17.464  0.00  0.00    +0.000 NA
ATOM      5  C   UNL     1       5.260   4.230  16.601  0.00  0.00    +0.000 A 
ATOM      6  C   UNL     1       5.081   3.890  15.267  0.00  0.00    +0.000 A 
ATOM      7  C   UNL     1       6.015   4.220  14.285  0.00  0.00    +0.000 A 
ATOM      8  C   UNL     1       7.171   4.894  14.645  0.00  0.00    +0.000 A 
ATOM      9  C   UNL     1       7.380   5.235  15.980  0.00  0.00    +0.000 A 
ATOM     10  C   UNL     1       6.424   4.927  16.983  0.00  0.00    +0.000 A 
ENDROOT
BRANCH   3  11
ATOM     11  C   UNL     1       3.302   3.800  19.671  0.00  0.00    +0.000 A 
ATOM     12  C   UNL     1       3.467   2.794  20.625  0.00  0.00    +0.000 A 
ATOM     13  C   UNL     1       2.397   2.452  21.450  0.00  0.00    +0.000 A 
ATOM     14  C   UNL     1       1.187   3.119  21.307  0.00  0.00    +0.000 A 
ATOM     15  C   UNL     1       1.098   4.105  20.342  0.00  0.00    +0.000 A 
ATOM     16  N   UNL     1       2.118   4.463  19.532  0.00  0.00    +0.000 NA
ENDBRANCH   3  11
BRANCH   1  18
ATOM     17  O   UNL     1       8.076   7.086  18.513  0.00  0.00    +0.000 OA
ATOM     18  C   UNL     1       7.703   5.996  18.909  0.00  0.00    +0.000 C 
BRANCH  18  19
ATOM     19  O   UNL     1       8.349   5.338  19.902  0.00  0.00    +0.000 OA
ATOM     20  H   UNL     1       9.232   5.676  20.146  0.00  0.00    +0.000 HD
ENDBRANCH  18  19
ENDBRANCH   1  18
TORSDOF 3
ENDMDL
MODEL 4
REMARK VINA RESULT:      -7.8      0.768      1.081
REMARK  Name = 
REMARK  3 active torsions:
REMARK  status: ('A' for Active; 'I' for Inactive)
REMARK    1  A    between atoms: C_2  and  O_3
REMARK    2  A    between atoms: C_2  and  C_4
REMARK    3  A    between atoms: C_6  and  C_7
REMARK                            x       y       z     vdW  Elec       q    Type
REMARK                         _______ _______ _______ _____ _____    ______ ____
ROOT
ATOM      1  C   UNL     1       6.424   5.091  18.122  0.00  0.00    +0.000 A 
ATOM      2  C   UNL     1       5.308   4.811  18.915  0.00  0.00    +0.000 A 
ATOM      3  C   UNL     1       4.204   4.197  18.347  0.00  0.00    +0.000 A 
ATOM      4  N   UNL     1       4.171   3.907  17.023  0.00  0.00    +0.000 NA
ATOM      5  C   UNL     1       5.210   4.226  16.240  0.00  0.00    +0.000 A 
ATOM      6  C   UNL     1       5.098   3.953  14.883  0.00  0.00    +0.000 A 
ATOM      7  C   UNL     1       6.117   4.254  13.979  0.00  0.00    +0.000 A 
ATOM      8  C   UNL     1       7.290   4.828  14.443  0.00  0.00    +0.000 A 
ATOM      9  C   UNL     1       7.431   5.100  15.802  0.00  0.00    +0.000 A 
ATOM     10  C   UNL     1       6.391   4.822  16.727  0.00  0.00    +0.000 A 
ENDROOT
BRANCH   3  11
ATOM     11  C   UNL     1       3.024   3.816  19.155  0.00  0.00    +0.000 A 
ATOM     12  C   UNL     1       1.951   3.101  18.619  0.00  0.00    +0.000 A 
ATOM     13  C   UNL     1       0.877   2.764  19.440  0.00  0.00    +0.000 A 
ATOM     14  C   UNL     1       0.894   3.145  20.775  0.00  0.00    +0.000 A 
ATOM     15  C   UNL     1       1.990   3.850  21.236  0.00  0.00    +0.000 A 
ATOM     16  N   UNL     1       3.049   4.187  20.467  0.00  0.00    +0.000 NA
ENDBRANCH   3  11
BRANCH   1  18
ATOM     17  O   UNL     1       8.317   5.156  19.593  0.00  0.00    +0.000 OA
ATOM     18  C   UNL     1       7.608   5.718  18.777  0.00  0.00    +0.000 C 
BRANCH  18  19
ATOM     19  O   UNL     1       7.835   6.998  18.395  0.00  0.00    +0.000 OA
ATOM     20  H   UNL     1       7.369   7.692  18.898  0.00  0.00    +0.000 HD
ENDBRANCH  18  19
ENDBRANCH   1  18
TORSDOF 3
ENDMDL
MODEL 5
REMARK VINA RESULT:      -7.6      2.882      6.229
REMARK  Name = 
REMARK  3 active torsions:
REMARK  status: ('A' for Active; 'I' for Inactive)
REMARK    1  A    between atoms: C_2  and  O_3
REMARK    2  A    between atoms: C_2  and  C_4
REMARK    3  A    between atoms: C_6  and  C_7
REMARK                            x       y       z     vdW  Elec       q    Type
REMARK                         _______ _______ _______ _____ _____    ______ ____
ROOT
ATOM      1  C   UNL     1       4.248   3.711  17.944  0.00  0.00    +0.000 A 
ATOM      2  C   UNL     1       4.939   3.555  16.739  0.00  0.00    +0.000 A 
ATOM      3  C   UNL     1       5.155   4.657  15.929  0.00  0.00    +0.000 A 
ATOM      4  N   UNL     1       4.666   5.876  16.263  0.00  0.00    +0.000 NA
ATOM      5  C   UNL     1       3.949   6.027  17.385  0.00  0.00    +0.000 A 
ATOM      6  C   UNL     1       3.428   7.287  17.649  0.00  0.00    +0.000 A 
ATOM      7  C   UNL     1       2.661   7.550  18.783  0.00  0.00    +0.000 A 
ATOM      8  C   UNL     1       2.419   6.532  19.692  0.00  0.00    +0.000 A 
ATOM      9  C   UNL     1       2.941   5.261  19.456  0.00  0.00    +0.000 A 
ATOM     10  C   UNL     1       3.702   4.976  18.291  0.00  0.00    +0.000 A 
ENDROOT
BRANCH   3  11
ATOM     11  C   UNL     1       5.939   4.560  14.677  0.00  0.00    +0.000 A 
ATOM     12  C   UNL     1       5.585   3.696  13.639  0.00  0.00    +0.000 A 
ATOM     13  C   UNL     1       6.361   3.665  12.481  0.00  0.00    +0.000 A 
ATOM     14  C   UNL     1       7.470   4.493  12.383  0.00  0.00    +0.000 A 
ATOM     15  C   UNL     1       7.759   5.324  13.449  0.00  0.00    +0.000 A 
ATOM     16  N   UNL     1       7.023   5.381  14.581  0.00  0.00    +0.000 NA
ENDBRANCH   3  11
BRANCH   1  18
ATOM     17  O   UNL     1       3.096   1.775  18.767  0.00  0.00    +0.000 OA
ATOM     18  C   UNL     1       4.068   2.509  18.808  0.00  0.00    +0.000 C 
BRANCH  18  19
ATOM     19  O   UNL     1       5.089   2.294  19.672  0.00  0.00    +0.000 OA
ATOM     20  H   UNL     1       5.065   2.796  20.508  0.00  0.00    +0.000 HD
ENDBRANCH  18  19
ENDBRANCH   1  18
TORSDOF 3
ENDMDL
MODEL 6
REMARK VINA RESULT:      -7.6      1.214      1.313
REMARK  Name = 
REMARK  3 active torsions:
REMARK  status: ('A' for Active; 'I' for Inactive)
REMARK    1  A    between atoms: C_2  and  O_3
REMARK    2  A    between atoms: C_2  and  C_4
REMARK    3  A    between atoms: C_6  and  C_7
REMARK                            x       y       z     vdW  Elec       q    Type
REMARK                         _______ _______ _______ _____ _____    ______ ____
ROOT
ATOM      1  C   UNL     1       6.342   5.900  17.389  0.00  0.00    +0.000 A 
ATOM      2  C   UNL     1       5.268   5.686  18.257  0.00  0.00    +0.000 A 
ATOM      3  C   UNL     1       4.272   4.791  17.902  0.00  0.00    +0.000 A 
ATOM      4  N   UNL     1       4.299   4.156  16.705  0.00  0.00    +0.000 NA
ATOM      5  C   UNL     1       5.291   4.398  15.839  0.00  0.00    +0.000 A 
ATOM      6  C   UNL     1       5.237   3.759  14.607  0.00  0.00    +0.000 A 
ATOM      7  C   UNL     1       6.214   3.949  13.629  0.00  0.00    +0.000 A 
ATOM      8  C   UNL     1       7.286   4.787  13.892  0.00  0.00    +0.000 A 
ATOM      9  C   UNL     1       7.368   5.431  15.126  0.00  0.00    +0.000 A 
ATOM     10  C   UNL     1       6.367   5.265  16.118  0.00  0.00    +0.000 A 
ENDROOT
BRANCH   3  11
ATOM     11  C   UNL     1       3.149   4.477  18.813  0.00  0.00    +0.000 A 
ATOM     12  C   UNL     1       2.107   3.621  18.447  0.00  0.00    +0.000 A 
ATOM     13  C   UNL     1       1.087   3.358  19.359  0.00  0.00    +0.000 A 
ATOM     14  C   UNL     1       1.125   3.951  20.614  0.00  0.00    +0.000 A 
ATOM     15  C   UNL     1       2.188   4.785  20.907  0.00  0.00    +0.000 A 
ATOM     16  N   UNL     1       3.195   5.055  20.047  0.00  0.00    +0.000 NA
ENDBRANCH   3  11
BRANCH   1  18
ATOM     17  O   UNL     1       7.694   7.876  17.242  0.00  0.00    +0.000 OA
ATOM     18  C   UNL     1       7.414   6.842  17.822  0.00  0.00    +0.000 C 
BRANCH  18  19
ATOM     19  O   UNL     1       8.079   6.444  18.934  0.00  0.00    +0.000 OA
ATOM     20  H   UNL     1       8.314   7.143  19.574  0.00  0.00    +0.000 HD
ENDBRANCH  18  19
ENDBRANCH   1  18
TORSDOF 3
ENDMDL
MODEL 7
REMARK VINA RESULT:      -7.5      3.290      4.131
REMARK  Name = 
REMARK  3 active torsions:
REMARK  status: ('A' for Active; 'I' for Inactive)
REMARK    1  A    between atoms: C_2  and  O_3
REMARK    2  A    between atoms: C_2  and  C_4
REMARK    3  A    between atoms: C_6  and  C_7
REMARK                            x       y       z     vdW  Elec       q    Type
REMARK                         _______ _______ _______ _____ _____    ______ ____
ROOT
ATOM      1  C   UNL     1       3.879   4.040  18.329  0.00  0.00    +0.000 A 
ATOM      2  C   UNL     1       3.147   5.002  19.029  0.00  0.00    +0.000 A 
ATOM      3  C   UNL     1       3.101   6.302  18.554  0.00  0.00    +0.000 A 
ATOM      4  N   UNL     1       3.793   6.666  17.447  0.00  0.00    +0.000 NA
ATOM      5  C   UNL     1       4.548   5.767  16.802  0.00  0.00    +0.000 A 
ATOM      6  C   UNL     1       5.277   6.209  15.706  0.00  0.00    +0.000 A 
ATOM      7  C   UNL     1       6.101   5.358  14.970  0.00  0.00    +0.000 A 
ATOM      8  C   UNL     1       6.188   4.021  15.325  0.00  0.00    +0.000 A 
ATOM      9  C   UNL     1       5.457   3.550  16.414  0.00  0.00    +0.000 A 
ATOM     10  C   UNL     1       4.635   4.413  17.186  0.00  0.00    +0.000 A 
ENDROOT
BRANCH   3  11
ATOM     11  C   UNL     1       2.286   7.344  19.218  0.00  0.00    +0.000 A 
ATOM     12  C   UNL     1       1.842   7.219  20.537  0.00  0.00    +0.000 A 
ATOM     13  C   UNL     1       1.089   8.245  21.105  0.00  0.00    +0.000 A 
ATOM     14  C   UNL     1       0.795   9.372  20.350  0.00  0.00    +0.000 A 
ATOM     15  C   UNL     1       1.270   9.428  19.052  0.00  0.00    +0.000 A 
ATOM     16  N   UNL     1       2.006   8.453  18.476  0.00  0.00    +0.000 NA
ENDBRANCH   3  11
BRANCH   1  18
ATOM     17  O   UNL     1       3.011   1.820  18.598  0.00  0.00    +0.000 OA
ATOM     18  C   UNL     1       3.874   2.642  18.850  0.00  0.00    +0.000 C 
BRANCH  18  19
ATOM     19  O   UNL     1       4.924   2.351  19.655  0.00  0.00    +0.000 OA
ATOM     20  H   UNL     1       4.741   2.311  20.613  0.00  0.00    +0.000 HD
ENDBRANCH  18  19
ENDBRANCH   1  18
TORSDOF 3
ENDMDL
MODEL 8
REMARK VINA RESULT:      -7.5      3.383      4.094
REMARK  Name = 
REMARK  3 active torsions:
REMARK  status: ('A' for Active; 'I' for Inactive)
REMARK    1  A    between atoms: C_2  and  O_3
REMARK    2  A    between atoms: C_2  and  C_4
REMARK    3  A    between atoms: C_6  and  C_7
REMARK                            x       y       z     vdW  Elec       q    Type
REMARK                         _______ _______ _______ _____ _____    ______ ____
ROOT
ATOM      1  C   UNL     1       3.936   4.221  18.356  0.00  0.00    +0.000 A 
ATOM      2  C   UNL     1       3.199   5.246  18.955  0.00  0.00    +0.000 A 
ATOM      3  C   UNL     1       3.152   6.493  18.355  0.00  0.00    +0.000 A 
ATOM      4  N   UNL     1       3.849   6.748  17.220  0.00  0.00    +0.000 NA
ATOM      5  C   UNL     1       4.607   5.792  16.669  0.00  0.00    +0.000 A 
ATOM      6  C   UNL     1       5.340   6.126  15.538  0.00  0.00    +0.000 A 
ATOM      7  C   UNL     1       6.169   5.208  14.893  0.00  0.00    +0.000 A 
ATOM      8  C   UNL     1       6.257   3.913  15.378  0.00  0.00    +0.000 A 
ATOM      9  C   UNL     1       5.522   3.550  16.505  0.00  0.00    +0.000 A 
ATOM     10  C   UNL     1       4.696   4.483  17.185  0.00  0.00    +0.000 A 
ENDROOT
BRANCH   3  11
ATOM     11  C   UNL     1       2.333   7.594  18.910  0.00  0.00    +0.000 A 
ATOM     12  C   UNL     1       1.896   8.667  18.131  0.00  0.00    +0.000 A 
ATOM     13  C   UNL     1       1.116   9.663  18.715  0.00  0.00    +0.000 A 
ATOM     14  C   UNL     1       0.788   9.570  20.061  0.00  0.00    +0.000 A 
ATOM     15  C   UNL     1       1.255   8.479  20.770  0.00  0.00    +0.000 A 
ATOM     16  N   UNL     1       2.007   7.494  20.230  0.00  0.00    +0.000 NA
ENDBRANCH   3  11
BRANCH   1  18
ATOM     17  O   UNL     1       3.004   2.093  18.953  0.00  0.00    +0.000 OA
ATOM     18  C   UNL     1       3.931   2.882  19.012  0.00  0.00    +0.000 C 
BRANCH  18  19
ATOM     19  O   UNL     1       5.061   2.604  19.705  0.00  0.00    +0.000 OA
ATOM     20  H   UNL     1       5.373   1.679  19.678  0.00  0.00    +0.000 HD
ENDBRANCH  18  19
ENDBRANCH   1  18
TORSDOF 3
ENDMDL
MODEL 9
REMARK VINA RESULT:      -7.5      4.321      5.620
REMARK  Name = 
REMARK  3 active torsions:
REMARK  status: ('A' for Active; 'I' for Inactive)
REMARK    1  A    between atoms: C_2  and  O_3
REMARK    2  A    between atoms: C_2  and  C_4
REMARK    3  A    between atoms: C_6  and  C_7
REMARK                            x       y       z     vdW  Elec       q    Type
REMARK                         _______ _______ _______ _____ _____    ______ ____
ROOT
ATOM      1  C   UNL     1       2.140   4.692  20.392  0.00  0.00    +0.000 A 
ATOM      2  C   UNL     1       1.667   5.933  20.828  0.00  0.00    +0.000 A 
ATOM      3  C   UNL     1       1.918   7.063  20.069  0.00  0.00    +0.000 A 
ATOM      4  N   UNL     1       2.655   6.992  18.933  0.00  0.00    +0.000 NA
ATOM      5  C   UNL     1       3.165   5.819  18.537  0.00  0.00    +0.000 A 
ATOM      6  C   UNL     1       3.956   5.816  17.396  0.00  0.00    +0.000 A 
ATOM      7  C   UNL     1       4.543   4.650  16.902  0.00  0.00    +0.000 A 
ATOM      8  C   UNL     1       4.321   3.448  17.555  0.00  0.00    +0.000 A 
ATOM      9  C   UNL     1       3.521   3.423  18.696  0.00  0.00    +0.000 A 
ATOM     10  C   UNL     1       2.940   4.607  19.222  0.00  0.00    +0.000 A 
ENDROOT
BRANCH   3  11
ATOM     11  C   UNL     1       1.383   8.390  20.449  0.00  0.00    +0.000 A 
ATOM     12  C   UNL     1       1.048   8.712  21.766  0.00  0.00    +0.000 A 
ATOM     13  C   UNL     1       0.562   9.985  22.056  0.00  0.00    +0.000 A 
ATOM     14  C   UNL     1       0.420  10.910  21.031  0.00  0.00    +0.000 A 
ATOM     15  C   UNL     1       0.773  10.522  19.752  0.00  0.00    +0.000 A 
ATOM     16  N   UNL     1       1.253   9.298  19.440  0.00  0.00    +0.000 NA
ENDBRANCH   3  11
BRANCH   1  18
ATOM     17  O   UNL     1       2.530   3.059  22.105  0.00  0.00    +0.000 OA
ATOM     18  C   UNL     1       1.817   3.492  21.217  0.00  0.00    +0.000 C 
BRANCH  18  19
ATOM     19  O   UNL     1       0.644   2.898  20.890  0.00  0.00    +0.000 OA
ATOM     20  H   UNL     1       0.052   3.400  20.297  0.00  0.00    +0.000 HD
ENDBRANCH  18  19
ENDBRANCH   1  18
TORSDOF 3
ENDMDL
