MODEL 1
REMARK VINA RESULT:      -8.3      0.000      0.000
REMARK  Name = 
REMARK  5 active torsions:
REMARK  status: ('A' for Active; 'I' for Inactive)
REMARK    1  A    between atoms: C_2  and  C_5
REMARK    2  A    between atoms: N_3  and  O_4
REMARK    3  A    between atoms: C_8  and  N_9
REMARK    4  A    between atoms: N_9  and  C_10
REMARK    5  A    between atoms: C_10  and  C_11
REMARK                            x       y       z     vdW  Elec       q    Type
REMARK                         _______ _______ _______ _____ _____    ______ ____
ROOT
ATOM      1  C   UNL     1       6.137   4.921  15.386  0.00  0.00    +0.000 A 
ATOM      2  C   UNL     1       5.995   6.218  15.857  0.00  0.00    +0.000 A 
ATOM      3  N   UNL     1       5.364   6.535  17.019  0.00  0.00    +0.000 NA
ATOM      4  C   UNL     1       4.869   5.523  17.776  0.00  0.00    +0.000 A 
ATOM      5  C   UNL     1       5.041   4.192  17.382  0.00  0.00    +0.000 A 
ATOM      6  F   UNL     1       4.618   3.168  18.135  0.00  0.00    +0.000 F 
ATOM      7  C   UNL     1       5.660   3.883  16.174  0.00  0.00    +0.000 A 
ENDROOT
BRANCH   1   9
ATOM      8  O   UNL     1       7.746   5.387  13.731  0.00  0.00    +0.000 OA
ATOM      9  C   UNL     1       6.811   4.682  14.098  0.00  0.00    +0.000 C 
ATOM     10  N   UNL     1       6.305   3.658  13.328  0.00  0.00    +0.000 N 
ATOM     11  H   UNL     1       5.355   3.315  13.426  0.00  0.00    +0.000 HD
BRANCH  10  12
ATOM     12  O   UNL     1       6.878   3.530  12.041  0.00  0.00    +0.000 OA
ATOM     13  H   UNL     1       6.981   4.466  11.760  0.00  0.00    +0.000 HD
ENDBRANCH  10  12
ENDBRANCH   1   9
BRANCH   4  14
ATOM     14  N   UNL     1       4.205   5.925  18.937  0.00  0.00    +0.000 N 
ATOM     15  H   UNL     1       4.818   6.511  19.496  0.00  0.00    +0.000 HD
BRANCH  14  16
ATOM     16  C   UNL     1       2.749   6.076  19.086  0.00  0.00    +0.000 C 
ATOM     17  C   UNL     1       2.241   7.297  19.863  0.00  0.00    +0.000 C 
ATOM     18  C   UNL     1       2.003   7.208  18.397  0.00  0.00    +0.000 C 
BRANCH  16  19
ATOM     19  C   UNL     1       2.028   4.771  19.412  0.00  0.00    +0.000 A 
ATOM     20  C   UNL     1       1.438   3.987  18.403  0.00  0.00    +0.000 A 
ATOM     21  F   UNL     1       1.483   4.407  17.129  0.00  0.00    +0.000 F 
ATOM     22  C   UNL     1       0.822   2.760  18.663  0.00  0.00    +0.000 A 
ATOM     23  C   UNL     1       0.763   2.279  19.966  0.00  0.00    +0.000 A 
ATOM     24  C   UNL     1       1.313   3.036  20.995  0.00  0.00    +0.000 A 
ATOM     25  C   UNL     1       1.931   4.258  20.711  0.00  0.00    +0.000 A 
ATOM     26  F   UNL     1       2.474   4.930  21.737  0.00  0.00    +0.000 F 
ENDBRANCH  16  19
ENDBRANCH  14  16
ENDBRANCH   4  14
TORSDOF 5
ENDMDL
MODEL 2
REMARK VINA RESULT:      -8.2      0.215      1.729
REMARK  Name = 
REMARK  5 active torsions:
REMARK  status: ('A' for Active; 'I' for Inactive)
REMARK    1  A    between atoms: C_2  and  C_5
REMARK    2  A    between atoms: N_3  and  O_4
REMARK    3  A    between atoms: C_8  and  N_9
REMARK    4  A    between atoms: N_9  and  C_10
REMARK    5  A    between atoms: C_10  and  C_11
REMARK                            x       y       z     vdW  Elec       q    Type
REMARK                         _______ _______ _______ _____ _____    ______ ____
ROOT
ATOM      1  C   UNL     1       6.027   4.799  15.268  0.00  0.00    +0.000 A 
ATOM      2  C   UNL     1       5.834   6.125  15.627  0.00  0.00    +0.000 A 
ATOM      3  N   UNL     1       5.235   6.515  16.783  0.00  0.00    +0.000 NA
ATOM      4  C   UNL     1       4.831   5.554  17.651  0.00  0.00    +0.000 A 
ATOM      5  C   UNL     1       5.060   4.202  17.372  0.00  0.00    +0.000 A 
ATOM      6  F   UNL     1       4.726   3.233  18.233  0.00  0.00    +0.000 F 
ATOM      7  C   UNL     1       5.644   3.815  16.169  0.00  0.00    +0.000 A 
ENDROOT
BRANCH   1   9
ATOM      8  O   UNL     1       7.442   5.254  13.442  0.00  0.00    +0.000 OA
ATOM      9  C   UNL     1       6.659   4.477  13.977  0.00  0.00    +0.000 C 
ATOM     10  N   UNL     1       6.288   3.281  13.400  0.00  0.00    +0.000 N 
ATOM     11  H   UNL     1       5.414   2.813  13.621  0.00  0.00    +0.000 HD
BRANCH  10  12
ATOM     12  O   UNL     1       6.801   3.052  12.103  0.00  0.00    +0.000 OA
ATOM     13  H   UNL     1       6.002   2.770  11.605  0.00  0.00    +0.000 HD
ENDBRANCH  10  12
ENDBRANCH   1   9
BRANCH   4  14
ATOM     14  N   UNL     1       4.195   6.027  18.802  0.00  0.00    +0.000 N 
ATOM     15  H   UNL     1       4.804   6.681  19.284  0.00  0.00    +0.000 HD
BRANCH  14  16
ATOM     16  C   UNL     1       2.740   6.135  18.998  0.00  0.00    +0.000 C 
ATOM     17  C   UNL     1       2.223   7.335  19.799  0.00  0.00    +0.000 C 
ATOM     18  C   UNL     1       1.941   7.249  18.340  0.00  0.00    +0.000 C 
BRANCH  16  19
ATOM     19  C   UNL     1       2.068   4.808  19.337  0.00  0.00    +0.000 A 
ATOM     20  C   UNL     1       1.981   4.347  20.664  0.00  0.00    +0.000 A 
ATOM     21  F   UNL     1       2.527   5.073  21.652  0.00  0.00    +0.000 F 
ATOM     22  C   UNL     1       1.321   3.165  21.012  0.00  0.00    +0.000 A 
ATOM     23  C   UNL     1       0.731   2.387  20.023  0.00  0.00    +0.000 A 
ATOM     24  C   UNL     1       0.815   2.796  18.697  0.00  0.00    +0.000 A 
ATOM     25  C   UNL     1       1.473   3.986  18.371  0.00  0.00    +0.000 A 
ATOM     26  F   UNL     1       1.495   4.349  17.081  0.00  0.00    +0.000 F 
ENDBRANCH  16  19
ENDBRANCH  14  16
ENDBRANCH   4  14
TORSDOF 5
ENDMDL
MODEL 3
REMARK VINA RESULT:      -8.0      1.082      1.430
REMARK  Name = 
REMARK  5 active torsions:
REMARK  status: ('A' for Active; 'I' for Inactive)
REMARK    1  A    between atoms: C_2  and  C_5
REMARK    2  A    between atoms: N_3  and  O_4
REMARK    3  A    between atoms: C_8  and  N_9
REMARK    4  A    between atoms: N_9  and  C_10
REMARK    5  A    between atoms: C_10  and  C_11
REMARK                            x       y       z     vdW  Elec       q    Type
REMARK                         _______ _______ _______ _____ _____    ______ ____
ROOT
ATOM      1  C   UNL     1       6.015   5.089  15.665  0.00  0.00    +0.000 A 
ATOM      2  C   UNL     1       6.055   4.295  16.802  0.00  0.00    +0.000 A 
ATOM      3  N   UNL     1       5.435   4.616  17.969  0.00  0.00    +0.000 NA
ATOM      4  C   UNL     1       4.710   5.762  18.015  0.00  0.00    +0.000 A 
ATOM      5  C   UNL     1       4.581   6.568  16.879  0.00  0.00    +0.000 A 
ATOM      6  F   UNL     1       3.826   7.673  16.875  0.00  0.00    +0.000 F 
ATOM      7  C   UNL     1       5.248   6.245  15.701  0.00  0.00    +0.000 A 
ENDROOT
BRANCH   1   9
ATOM      8  O   UNL     1       7.743   5.278  14.076  0.00  0.00    +0.000 OA
ATOM      9  C   UNL     1       6.747   4.671  14.457  0.00  0.00    +0.000 C 
ATOM     10  N   UNL     1       6.225   3.595  13.773  0.00  0.00    +0.000 N 
ATOM     11  H   UNL     1       5.252   3.317  13.847  0.00  0.00    +0.000 HD
BRANCH  10  12
ATOM     12  O   UNL     1       6.863   3.292  12.547  0.00  0.00    +0.000 OA
ATOM     13  H   UNL     1       6.545   4.012  11.958  0.00  0.00    +0.000 HD
ENDBRANCH  10  12
ENDBRANCH   1   9
BRANCH   4  14
ATOM     14  N   UNL     1       4.129   6.043  19.255  0.00  0.00    +0.000 N 
ATOM     15  H   UNL     1       4.757   6.624  19.802  0.00  0.00    +0.000 HD
BRANCH  14  16
ATOM     16  C   UNL     1       2.685   6.098  19.535  0.00  0.00    +0.000 C 
ATOM     17  C   UNL     1       2.206   7.117  20.576  0.00  0.00    +0.000 C 
ATOM     18  C   UNL     1       1.855   7.311  19.142  0.00  0.00    +0.000 C 
BRANCH  16  19
ATOM     19  C   UNL     1       2.030   4.724  19.643  0.00  0.00    +0.000 A 
ATOM     20  C   UNL     1       1.463   4.091  18.520  0.00  0.00    +0.000 A 
ATOM     21  F   UNL     1       1.471   4.719  17.334  0.00  0.00    +0.000 F 
ATOM     22  C   UNL     1       0.908   2.810  18.575  0.00  0.00    +0.000 A 
ATOM     23  C   UNL     1       0.889   2.116  19.780  0.00  0.00    +0.000 A 
ATOM     24  C   UNL     1       1.418   2.717  20.917  0.00  0.00    +0.000 A 
ATOM     25  C   UNL     1       1.975   3.997  20.838  0.00  0.00    +0.000 A 
ATOM     26  F   UNL     1       2.501   4.514  21.958  0.00  0.00    +0.000 F 
ENDBRANCH  16  19
ENDBRANCH  14  16
ENDBRANCH   4  14
TORSDOF 5
ENDMDL
MODEL 4
REMARK VINA RESULT:      -7.9      1.080      2.225
REMARK  Name = 
REMARK  5 active torsions:
REMARK  status: ('A' for Active; 'I' for Inactive)
REMARK    1  A    between atoms: C_2  and  C_5
REMARK    2  A    between atoms: N_3  and  O_4
REMARK    3  A    between atoms: C_8  and  N_9
REMARK    4  A    between atoms: N_9  and  C_10
REMARK    5  A    between atoms: C_10  and  C_11
REMARK                            x       y       z     vdW  Elec       q    Type
REMARK                         _______ _______ _______ _____ _____    ______ ____
ROOT
ATOM      1  C   UNL     1       5.971   4.964  15.263  0.00  0.00    +0.000 A 
ATOM      2  C   UNL     1       5.896   4.101  16.346  0.00  0.00    +0.000 A 
ATOM      3  N   UNL     1       5.304   4.422  17.528  0.00  0.00    +0.000 NA
ATOM      4  C   UNL     1       4.727   5.645  17.644  0.00  0.00    +0.000 A 
ATOM      5  C   UNL     1       4.715   6.531  16.562  0.00  0.00    +0.000 A 
ATOM      6  F   UNL     1       4.104   7.720  16.625  0.00  0.00    +0.000 F 
ATOM      7  C   UNL     1       5.353   6.203  15.369  0.00  0.00    +0.000 A 
ENDROOT
BRANCH   1   9
ATOM      8  O   UNL     1       7.562   5.208  13.545  0.00  0.00    +0.000 OA
ATOM      9  C   UNL     1       6.662   4.535  14.035  0.00  0.00    +0.000 C 
ATOM     10  N   UNL     1       6.210   3.367  13.460  0.00  0.00    +0.000 N 
ATOM     11  H   UNL     1       5.277   3.000  13.622  0.00  0.00    +0.000 HD
BRANCH  10  12
ATOM     12  O   UNL     1       6.794   3.042  12.214  0.00  0.00    +0.000 OA
ATOM     13  H   UNL     1       6.130   2.434  11.820  0.00  0.00    +0.000 HD
ENDBRANCH  10  12
ENDBRANCH   1   9
BRANCH   4  14
ATOM     14  N   UNL     1       4.168   5.917  18.896  0.00  0.00    +0.000 N 
ATOM     15  H   UNL     1       4.820   6.465  19.449  0.00  0.00    +0.000 HD
BRANCH  14  16
ATOM     16  C   UNL     1       2.730   6.011  19.193  0.00  0.00    +0.000 C 
ATOM     17  C   UNL     1       2.278   7.123  20.147  0.00  0.00    +0.000 C 
ATOM     18  C   UNL     1       1.905   7.193  18.708  0.00  0.00    +0.000 C 
BRANCH  16  19
ATOM     19  C   UNL     1       2.064   4.659  19.433  0.00  0.00    +0.000 A 
ATOM     20  C   UNL     1       1.989   4.096  20.721  0.00  0.00    +0.000 A 
ATOM     21  F   UNL     1       2.540   4.746  21.759  0.00  0.00    +0.000 F 
ATOM     22  C   UNL     1       1.335   2.889  20.981  0.00  0.00    +0.000 A 
ATOM     23  C   UNL     1       0.739   2.188  19.939  0.00  0.00    +0.000 A 
ATOM     24  C   UNL     1       0.812   2.699  18.647  0.00  0.00    +0.000 A 
ATOM     25  C   UNL     1       1.465   3.913  18.410  0.00  0.00    +0.000 A 
ATOM     26  F   UNL     1       1.476   4.375  17.152  0.00  0.00    +0.000 F 
ENDBRANCH  16  19
ENDBRANCH  14  16
ENDBRANCH   4  14
TORSDOF 5
ENDMDL
MODEL 5
REMARK VINA RESULT:      -7.9      1.068      1.165
REMARK  Name = 
REMARK  5 active torsions:
REMARK  status: ('A' for Active; 'I' for Inactive)
REMARK    1  A    between atoms: C_2  and  C_5
REMARK    2  A    between atoms: N_3  and  O_4
REMARK    3  A    between atoms: C_8  and  N_9
REMARK    4  A    between atoms: N_9  and  C_10
REMARK    5  A    between atoms: C_10  and  C_11
REMARK                            x       y       z     vdW  Elec       q    Type
REMARK                         _______ _______ _______ _____ _____    ______ ____
ROOT
ATOM      1  C   UNL     1       6.322   5.039  15.678  0.00  0.00    +0.000 A 
ATOM      2  C   UNL     1       4.939   5.047  15.789  0.00  0.00    +0.000 A 
ATOM      3  N   UNL     1       4.276   5.331  16.942  0.00  0.00    +0.000 NA
ATOM      4  C   UNL     1       5.007   5.654  18.038  0.00  0.00    +0.000 A 
ATOM      5  C   UNL     1       6.402   5.726  17.967  0.00  0.00    +0.000 A 
ATOM      6  F   UNL     1       7.148   6.099  19.014  0.00  0.00    +0.000 F 
ATOM      7  C   UNL     1       7.069   5.401  16.789  0.00  0.00    +0.000 A 
ENDROOT
BRANCH   1   9
ATOM      8  O   UNL     1       7.876   5.348  13.936  0.00  0.00    +0.000 OA
ATOM      9  C   UNL     1       6.948   4.688  14.391  0.00  0.00    +0.000 C 
ATOM     10  N   UNL     1       6.405   3.610  13.725  0.00  0.00    +0.000 N 
ATOM     11  H   UNL     1       5.455   3.288  13.884  0.00  0.00    +0.000 HD
BRANCH  10  12
ATOM     12  O   UNL     1       6.931   3.371  12.435  0.00  0.00    +0.000 OA
ATOM     13  H   UNL     1       7.901   3.444  12.583  0.00  0.00    +0.000 HD
ENDBRANCH  10  12
ENDBRANCH   1   9
BRANCH   4  14
ATOM     14  N   UNL     1       4.260   5.900  19.194  0.00  0.00    +0.000 N 
ATOM     15  H   UNL     1       4.832   6.398  19.869  0.00  0.00    +0.000 HD
BRANCH  14  16
ATOM     16  C   UNL     1       2.797   6.043  19.258  0.00  0.00    +0.000 C 
ATOM     17  C   UNL     1       2.239   7.252  20.018  0.00  0.00    +0.000 C 
ATOM     18  C   UNL     1       2.088   7.182  18.539  0.00  0.00    +0.000 C 
BRANCH  16  19
ATOM     19  C   UNL     1       2.064   4.732  19.524  0.00  0.00    +0.000 A 
ATOM     20  C   UNL     1       1.417   4.030  18.489  0.00  0.00    +0.000 A 
ATOM     21  F   UNL     1       1.417   4.537  17.246  0.00  0.00    +0.000 F 
ATOM     22  C   UNL     1       0.788   2.798  18.690  0.00  0.00    +0.000 A 
ATOM     23  C   UNL     1       0.774   2.229  19.958  0.00  0.00    +0.000 A 
ATOM     24  C   UNL     1       1.382   2.903  21.012  0.00  0.00    +0.000 A 
ATOM     25  C   UNL     1       2.013   4.131  20.787  0.00  0.00    +0.000 A 
ATOM     26  F   UNL     1       2.612   4.720  21.832  0.00  0.00    +0.000 F 
ENDBRANCH  16  19
ENDBRANCH  14  16
ENDBRANCH   4  14
TORSDOF 5
ENDMDL
MODEL 6
REMARK VINA RESULT:      -7.8      4.621      6.601
REMARK  Name = 
REMARK  5 active torsions:
REMARK  status: ('A' for Active; 'I' for Inactive)
REMARK    1  A    between atoms: C_2  and  C_5
REMARK    2  A    between atoms: N_3  and  O_4
REMARK    3  A    between atoms: C_8  and  N_9
REMARK    4  A    between atoms: N_9  and  C_10
REMARK    5  A    between atoms: C_10  and  C_11
REMARK                            x       y       z     vdW  Elec       q    Type
REMARK                         _______ _______ _______ _____ _____    ______ ____
ROOT
ATOM      1  C   UNL     1       0.322   9.929  19.064  0.00  0.00    +0.000 A 
ATOM      2  C   UNL     1       0.369   9.461  20.370  0.00  0.00    +0.000 A 
ATOM      3  N   UNL     1       1.146   8.420  20.771  0.00  0.00    +0.000 NA
ATOM      4  C   UNL     1       1.945   7.824  19.851  0.00  0.00    +0.000 A 
ATOM      5  C   UNL     1       1.988   8.296  18.535  0.00  0.00    +0.000 A 
ATOM      6  F   UNL     1       2.808   7.769  17.617  0.00  0.00    +0.000 F 
ATOM      7  C   UNL     1       1.162   9.341  18.129  0.00  0.00    +0.000 A 
ENDROOT
BRANCH   1   9
ATOM      8  O   UNL     1      -1.761  11.026  19.042  0.00  0.00    +0.000 OA
ATOM      9  C   UNL     1      -0.577  11.043  18.721  0.00  0.00    +0.000 C 
ATOM     10  N   UNL     1      -0.020  12.071  17.992  0.00  0.00    +0.000 N 
ATOM     11  H   UNL     1       0.813  11.952  17.423  0.00  0.00    +0.000 HD
BRANCH  10  12
ATOM     12  O   UNL     1      -0.927  13.066  17.559  0.00  0.00    +0.000 OA
ATOM     13  H   UNL     1      -1.177  12.750  16.662  0.00  0.00    +0.000 HD
ENDBRANCH  10  12
ENDBRANCH   1   9
BRANCH   4  14
ATOM     14  N   UNL     1       2.690   6.742  20.327  0.00  0.00    +0.000 N 
ATOM     15  H   UNL     1       3.121   6.989  21.213  0.00  0.00    +0.000 HD
BRANCH  14  16
ATOM     16  C   UNL     1       2.430   5.324  20.033  0.00  0.00    +0.000 C 
ATOM     17  C   UNL     1       2.328   4.363  21.225  0.00  0.00    +0.000 C 
ATOM     18  C   UNL     1       1.113   4.670  20.422  0.00  0.00    +0.000 C 
BRANCH  16  19
ATOM     19  C   UNL     1       3.232   4.786  18.851  0.00  0.00    +0.000 A 
ATOM     20  C   UNL     1       2.596   4.200  17.740  0.00  0.00    +0.000 A 
ATOM     21  F   UNL     1       1.259   4.083  17.729  0.00  0.00    +0.000 F 
ATOM     22  C   UNL     1       3.299   3.753  16.618  0.00  0.00    +0.000 A 
ATOM     23  C   UNL     1       4.684   3.865  16.579  0.00  0.00    +0.000 A 
ATOM     24  C   UNL     1       5.351   4.417  17.668  0.00  0.00    +0.000 A 
ATOM     25  C   UNL     1       4.628   4.866  18.778  0.00  0.00    +0.000 A 
ATOM     26  F   UNL     1       5.319   5.420  19.785  0.00  0.00    +0.000 F 
ENDBRANCH  16  19
ENDBRANCH  14  16
ENDBRANCH   4  14
TORSDOF 5
ENDMDL
MODEL 7
REMARK VINA RESULT:      -7.7      4.623      6.692
REMARK  Name = 
REMARK  5 active torsions:
REMARK  status: ('A' for Active; 'I' for Inactive)
REMARK    1  A    between atoms: C_2  and  C_5
REMARK    2  A    between atoms: N_3  and  O_4
REMARK    3  A    between atoms: C_8  and  N_9
REMARK    4  A    between atoms: N_9  and  C_10
REMARK    5  A    between atoms: C_10  and  C_11
REMARK                            x       y       z     vdW  Elec       q    Type
REMARK                         _______ _______ _______ _____ _____    ______ ____
ROOT
ATOM      1  C   UNL     1       0.389  10.006  19.015  0.00  0.00    +0.000 A 
ATOM      2  C   UNL     1       0.397   9.542  20.322  0.00  0.00    +0.000 A 
ATOM      3  N   UNL     1       1.142   8.486  20.744  0.00  0.00    +0.000 NA
ATOM      4  C   UNL     1       1.947   7.870  19.843  0.00  0.00    +0.000 A 
ATOM      5  C   UNL     1       2.029   8.336  18.527  0.00  0.00    +0.000 A 
ATOM      6  F   UNL     1       2.857   7.787  17.629  0.00  0.00    +0.000 F 
ATOM      7  C   UNL     1       1.236   9.397  18.099  0.00  0.00    +0.000 A 
ENDROOT
BRANCH   1   9
ATOM      8  O   UNL     1      -0.558  12.134  19.361  0.00  0.00    +0.000 OA
ATOM      9  C   UNL     1      -0.478  11.140  18.648  0.00  0.00    +0.000 C 
ATOM     10  N   UNL     1      -1.211  10.994  17.490  0.00  0.00    +0.000 N 
ATOM     11  H   UNL     1      -1.438  10.087  17.094  0.00  0.00    +0.000 HD
BRANCH  10  12
ATOM     12  O   UNL     1      -2.134  12.033  17.225  0.00  0.00    +0.000 OA
ATOM     13  H   UNL     1      -2.452  11.809  16.322  0.00  0.00    +0.000 HD
ENDBRANCH  10  12
ENDBRANCH   1   9
BRANCH   4  14
ATOM     14  N   UNL     1       2.657   6.773  20.339  0.00  0.00    +0.000 N 
ATOM     15  H   UNL     1       3.063   7.009  21.239  0.00  0.00    +0.000 HD
BRANCH  14  16
ATOM     16  C   UNL     1       2.383   5.361  20.031  0.00  0.00    +0.000 C 
ATOM     17  C   UNL     1       2.293   4.385  21.211  0.00  0.00    +0.000 C 
ATOM     18  C   UNL     1       1.067   4.711  20.432  0.00  0.00    +0.000 C 
BRANCH  16  19
ATOM     19  C   UNL     1       3.163   4.833  18.829  0.00  0.00    +0.000 A 
ATOM     20  C   UNL     1       4.569   4.879  18.790  0.00  0.00    +0.000 A 
ATOM     21  F   UNL     1       5.242   5.424  19.815  0.00  0.00    +0.000 F 
ATOM     22  C   UNL     1       5.312   4.352  17.730  0.00  0.00    +0.000 A 
ATOM     23  C   UNL     1       4.659   3.766  16.652  0.00  0.00    +0.000 A 
ATOM     24  C   UNL     1       3.269   3.723  16.642  0.00  0.00    +0.000 A 
ATOM     25  C   UNL     1       2.544   4.250  17.717  0.00  0.00    +0.000 A 
ATOM     26  F   UNL     1       1.208   4.151  17.671  0.00  0.00    +0.000 F 
ENDBRANCH  16  19
ENDBRANCH  14  16
ENDBRANCH   4  14
TORSDOF 5
ENDMDL
MODEL 8
REMARK VINA RESULT:      -7.5      4.250      6.386
REMARK  Name = 
REMARK  5 active torsions:
REMARK  status: ('A' for Active; 'I' for Inactive)
REMARK    1  A    between atoms: C_2  and  C_5
REMARK    2  A    between atoms: N_3  and  O_4
REMARK    3  A    between atoms: C_8  and  N_9
REMARK    4  A    between atoms: N_9  and  C_10
REMARK    5  A    between atoms: C_10  and  C_11
REMARK                            x       y       z     vdW  Elec       q    Type
REMARK                         _______ _______ _______ _____ _____    ______ ____
ROOT
ATOM      1  C   UNL     1       1.074   9.320  18.815  0.00  0.00    +0.000 A 
ATOM      2  C   UNL     1       1.124   8.749  20.078  0.00  0.00    +0.000 A 
ATOM      3  N   UNL     1       1.899   7.677  20.392  0.00  0.00    +0.000 NA
ATOM      4  C   UNL     1       2.693   7.155  19.424  0.00  0.00    +0.000 A 
ATOM      5  C   UNL     1       2.733   7.731  18.150  0.00  0.00    +0.000 A 
ATOM      6  F   UNL     1       3.548   7.276  17.190  0.00  0.00    +0.000 F 
ATOM      7  C   UNL     1       1.910   8.807  17.832  0.00  0.00    +0.000 A 
ENDROOT
BRANCH   1   9
ATOM      8  O   UNL     1       0.168  11.436  19.310  0.00  0.00    +0.000 OA
ATOM      9  C   UNL     1       0.178  10.462  18.565  0.00  0.00    +0.000 C 
ATOM     10  N   UNL     1      -0.663  10.348  17.479  0.00  0.00    +0.000 N 
ATOM     11  H   UNL     1      -0.928   9.452  17.081  0.00  0.00    +0.000 HD
BRANCH  10  12
ATOM     12  O   UNL     1      -1.606  11.392  17.333  0.00  0.00    +0.000 OA
ATOM     13  H   UNL     1      -2.455  10.943  17.542  0.00  0.00    +0.000 HD
ENDBRANCH  10  12
ENDBRANCH   1   9
BRANCH   4  14
ATOM     14  N   UNL     1       3.435   6.035  19.809  0.00  0.00    +0.000 N 
ATOM     15  H   UNL     1       3.591   6.059  20.813  0.00  0.00    +0.000 HD
BRANCH  14  16
ATOM     16  C   UNL     1       3.457   4.737  19.116  0.00  0.00    +0.000 C 
ATOM     17  C   UNL     1       3.116   3.491  19.942  0.00  0.00    +0.000 C 
ATOM     18  C   UNL     1       2.175   3.951  18.884  0.00  0.00    +0.000 C 
BRANCH  16  19
ATOM     19  C   UNL     1       4.641   4.568  18.170  0.00  0.00    +0.000 A 
ATOM     20  C   UNL     1       4.468   4.096  16.855  0.00  0.00    +0.000 A 
ATOM     21  F   UNL     1       3.240   3.760  16.430  0.00  0.00    +0.000 F 
ATOM     22  C   UNL     1       5.524   3.986  15.947  0.00  0.00    +0.000 A 
ATOM     23  C   UNL     1       6.812   4.335  16.338  0.00  0.00    +0.000 A 
ATOM     24  C   UNL     1       7.028   4.783  17.637  0.00  0.00    +0.000 A 
ATOM     25  C   UNL     1       5.955   4.893  18.528  0.00  0.00    +0.000 A 
ATOM     26  F   UNL     1       6.216   5.362  19.756  0.00  0.00    +0.000 F 
ENDBRANCH  16  19
ENDBRANCH  14  16
ENDBRANCH   4  14
TORSDOF 5
ENDMDL
MODEL 9
REMARK VINA RESULT:      -7.5      1.319      2.425
REMARK  Name = 
REMARK  5 active torsions:
REMARK  status: ('A' for Active; 'I' for Inactive)
REMARK    1  A    between atoms: C_2  and  C_5
REMARK    2  A    between atoms: N_3  and  O_4
REMARK    3  A    between atoms: C_8  and  N_9
REMARK    4  A    between atoms: N_9  and  C_10
REMARK    5  A    between atoms: C_10  and  C_11
REMARK                            x       y       z     vdW  Elec       q    Type
REMARK                         _______ _______ _______ _____ _____    ______ ____
ROOT
ATOM      1  C   UNL     1       6.018   5.266  15.886  0.00  0.00    +0.000 A 
ATOM      2  C   UNL     1       6.108   4.483  17.028  0.00  0.00    +0.000 A 
ATOM      3  N   UNL     1       5.461   4.766  18.190  0.00  0.00    +0.000 NA
ATOM      4  C   UNL     1       4.657   5.859  18.226  0.00  0.00    +0.000 A 
ATOM      5  C   UNL     1       4.477   6.647  17.084  0.00  0.00    +0.000 A 
ATOM      6  F   UNL     1       3.646   7.696  17.070  0.00  0.00    +0.000 F 
ATOM      7  C   UNL     1       5.171   6.365  15.911  0.00  0.00    +0.000 A 
ENDROOT
BRANCH   1   9
ATOM      8  O   UNL     1       6.550   3.850  14.081  0.00  0.00    +0.000 OA
ATOM      9  C   UNL     1       6.783   4.892  14.684  0.00  0.00    +0.000 C 
ATOM     10  N   UNL     1       7.789   5.758  14.310  0.00  0.00    +0.000 N 
ATOM     11  H   UNL     1       8.228   6.403  14.960  0.00  0.00    +0.000 HD
BRANCH  10  12
ATOM     12  O   UNL     1       8.596   5.318  13.236  0.00  0.00    +0.000 OA
ATOM     13  H   UNL     1       8.701   4.359  13.427  0.00  0.00    +0.000 HD
ENDBRANCH  10  12
ENDBRANCH   1   9
BRANCH   4  14
ATOM     14  N   UNL     1       4.052   6.106  19.461  0.00  0.00    +0.000 N 
ATOM     15  H   UNL     1       4.641   6.722  20.012  0.00  0.00    +0.000 HD
BRANCH  14  16
ATOM     16  C   UNL     1       2.605   6.075  19.730  0.00  0.00    +0.000 C 
ATOM     17  C   UNL     1       2.078   6.977  20.853  0.00  0.00    +0.000 C 
ATOM     18  C   UNL     1       1.728   7.283  19.439  0.00  0.00    +0.000 C 
BRANCH  16  19
ATOM     19  C   UNL     1       2.007   4.672  19.709  0.00  0.00    +0.000 A 
ATOM     20  C   UNL     1       1.962   3.876  20.870  0.00  0.00    +0.000 A 
ATOM     21  F   UNL     1       2.482   4.346  22.014  0.00  0.00    +0.000 F 
ATOM     22  C   UNL     1       1.369   2.611  20.895  0.00  0.00    +0.000 A 
ATOM     23  C   UNL     1       0.807   2.088  19.736  0.00  0.00    +0.000 A 
ATOM     24  C   UNL     1       0.853   2.834  18.563  0.00  0.00    +0.000 A 
ATOM     25  C   UNL     1       1.444   4.101  18.561  0.00  0.00    +0.000 A 
ATOM     26  F   UNL     1       1.430   4.789  17.411  0.00  0.00    +0.000 F 
ENDBRANCH  16  19
ENDBRANCH  14  16
ENDBRANCH   4  14
TORSDOF 5
ENDMDL
