MODEL 1
REMARK VINA RESULT:      -7.0      0.000      0.000
REMARK  Name = 
REMARK  7 active torsions:
REMARK  status: ('A' for Active; 'I' for Inactive)
REMARK    1  A    between atoms: C_1  and  C_2
REMARK    2  A    between atoms: C_2  and  O_3
REMARK    3  A    between atoms: O_3  and  C_4
REMARK    4  A    between atoms: C_4  and  C_5
REMARK    5  A    between atoms: N_10  and  C_11
REMARK    6  A    between atoms: N_19  and  C_20
REMARK    7  A    between atoms: C_20  and  C_21
REMARK                            x       y       z     vdW  Elec       q    Type
REMARK                         _______ _______ _______ _____ _____    ______ ____
ROOT
ATOM      1  C   UNL     1       5.391   4.311  17.739  0.00  0.00    +0.000 A 
ATOM      2  N   UNL     1       6.542   4.446  18.470  0.00  0.00    +0.000 NA
ATOM      3  C   UNL     1       7.723   4.627  17.849  0.00  0.00    +0.000 A 
ATOM      4  N   UNL     1       7.963   4.720  16.529  0.00  0.00    +0.000 NA
ATOM      5  C   UNL     1       6.824   4.590  15.833  0.00  0.00    +0.000 A 
ATOM      6  C   UNL     1       5.541   4.381  16.328  0.00  0.00    +0.000 A 
ATOM      7  N   UNL     1       4.639   4.306  15.279  0.00  0.00    +0.000 NA
ATOM      8  C   UNL     1       5.355   4.461  14.188  0.00  0.00    +0.000 A 
ATOM      9  N   UNL     1       6.675   4.649  14.473  0.00  0.00    +0.000 N 
ENDROOT
BRANCH   1  15
ATOM     10  C   UNL     1       3.548   2.795  18.516  0.00  0.00    +0.000 C 
ATOM     11  C   UNL     1       2.267   2.815  17.666  0.00  0.00    +0.000 C 
ATOM     12  C   UNL     1       1.351   3.978  18.042  0.00  0.00    +0.000 C 
ATOM     13  C   UNL     1       2.103   5.306  17.964  0.00  0.00    +0.000 C 
ATOM     14  C   UNL     1       3.406   5.293  18.765  0.00  0.00    +0.000 C 
ATOM     15  N   UNL     1       4.205   4.112  18.433  0.00  0.00    +0.000 N 
BRANCH  10  16
ATOM     16  C   UNL     1       3.288   2.442  20.001  0.00  0.00    +0.000 C 
BRANCH  16  17
ATOM     17  O   UNL     1       1.936   2.025  20.219  0.00  0.00    +0.000 OA
BRANCH  17  19
ATOM     18  C   UNL     1       2.205   3.820  21.785  0.00  0.00    +0.000 C 
ATOM     19  C   UNL     1       1.434   2.563  21.443  0.00  0.00    +0.000 C 
ENDBRANCH  17  19
ENDBRANCH  16  17
ENDBRANCH  10  16
ENDBRANCH   1  15
BRANCH   9  20
ATOM     20  C   UNL     1       7.729   4.833  13.497  0.00  0.00    +0.000 C 
ATOM     21  C   UNL     1       7.308   4.456  12.086  0.00  0.00    +0.000 C 
ENDBRANCH   9  20
TORSDOF 5
ENDMDL
MODEL 2
REMARK VINA RESULT:      -6.6      2.361      6.561
REMARK  Name = 
REMARK  7 active torsions:
REMARK  status: ('A' for Active; 'I' for Inactive)
REMARK    1  A    between atoms: C_1  and  C_2
REMARK    2  A    between atoms: C_2  and  O_3
REMARK    3  A    between atoms: O_3  and  C_4
REMARK    4  A    between atoms: C_4  and  C_5
REMARK    5  A    between atoms: N_10  and  C_11
REMARK    6  A    between atoms: N_19  and  C_20
REMARK    7  A    between atoms: C_20  and  C_21
REMARK                            x       y       z     vdW  Elec       q    Type
REMARK                         _______ _______ _______ _____ _____    ______ ____
ROOT
ATOM      1  C   UNL     1       4.276   4.144  17.359  0.00  0.00    +0.000 A 
ATOM      2  N   UNL     1       3.959   2.930  16.810  0.00  0.00    +0.000 NA
ATOM      3  C   UNL     1       3.042   2.137  17.398  0.00  0.00    +0.000 A 
ATOM      4  N   UNL     1       2.326   2.377  18.510  0.00  0.00    +0.000 NA
ATOM      5  C   UNL     1       2.648   3.572  19.029  0.00  0.00    +0.000 A 
ATOM      6  C   UNL     1       3.581   4.486  18.550  0.00  0.00    +0.000 A 
ATOM      7  N   UNL     1       3.611   5.601  19.373  0.00  0.00    +0.000 NA
ATOM      8  C   UNL     1       2.729   5.365  20.317  0.00  0.00    +0.000 A 
ATOM      9  N   UNL     1       2.114   4.161  20.144  0.00  0.00    +0.000 N 
ENDROOT
BRANCH   1  15
ATOM     10  C   UNL     1       6.646   4.488  16.610  0.00  0.00    +0.000 C 
ATOM     11  C   UNL     1       7.511   5.373  17.523  0.00  0.00    +0.000 C 
ATOM     12  C   UNL     1       7.298   6.860  17.243  0.00  0.00    +0.000 C 
ATOM     13  C   UNL     1       5.817   7.222  17.341  0.00  0.00    +0.000 C 
ATOM     14  C   UNL     1       4.932   6.322  16.476  0.00  0.00    +0.000 C 
ATOM     15  N   UNL     1       5.238   4.911  16.717  0.00  0.00    +0.000 N 
BRANCH  10  16
ATOM     16  C   UNL     1       7.085   4.531  15.126  0.00  0.00    +0.000 C 
BRANCH  16  17
ATOM     17  O   UNL     1       6.077   4.004  14.257  0.00  0.00    +0.000 OA
BRANCH  17  19
ATOM     18  C   UNL     1       5.585   3.088  12.097  0.00  0.00    +0.000 C 
ATOM     19  C   UNL     1       6.571   3.889  12.922  0.00  0.00    +0.000 C 
ENDBRANCH  17  19
ENDBRANCH  16  17
ENDBRANCH  10  16
ENDBRANCH   1  15
BRANCH   9  20
ATOM     20  C   UNL     1       1.107   3.596  21.018  0.00  0.00    +0.000 C 
ATOM     21  C   UNL     1       1.651   2.505  21.928  0.00  0.00    +0.000 C 
ENDBRANCH   9  20
TORSDOF 5
ENDMDL
MODEL 3
REMARK VINA RESULT:      -6.5      2.273      6.348
REMARK  Name = 
REMARK  7 active torsions:
REMARK  status: ('A' for Active; 'I' for Inactive)
REMARK    1  A    between atoms: C_1  and  C_2
REMARK    2  A    between atoms: C_2  and  O_3
REMARK    3  A    between atoms: O_3  and  C_4
REMARK    4  A    between atoms: C_4  and  C_5
REMARK    5  A    between atoms: N_10  and  C_11
REMARK    6  A    between atoms: N_19  and  C_20
REMARK    7  A    between atoms: C_20  and  C_21
REMARK                            x       y       z     vdW  Elec       q    Type
REMARK                         _______ _______ _______ _____ _____    ______ ____
ROOT
ATOM      1  C   UNL     1       4.272   5.557  18.361  0.00  0.00    +0.000 A 
ATOM      2  N   UNL     1       3.568   6.651  18.788  0.00  0.00    +0.000 NA
ATOM      3  C   UNL     1       2.439   6.494  19.506  0.00  0.00    +0.000 A 
ATOM      4  N   UNL     1       1.864   5.348  19.911  0.00  0.00    +0.000 NA
ATOM      5  C   UNL     1       2.572   4.290  19.487  0.00  0.00    +0.000 A 
ATOM      6  C   UNL     1       3.737   4.292  18.728  0.00  0.00    +0.000 A 
ATOM      7  N   UNL     1       4.155   2.990  18.504  0.00  0.00    +0.000 NA
ATOM      8  C   UNL     1       3.269   2.229  19.106  0.00  0.00    +0.000 A 
ATOM      9  N   UNL     1       2.304   2.968  19.722  0.00  0.00    +0.000 N 
ENDROOT
BRANCH   1  15
ATOM     10  C   UNL     1       6.675   5.042  17.850  0.00  0.00    +0.000 C 
ATOM     11  C   UNL     1       7.708   5.993  18.479  0.00  0.00    +0.000 C 
ATOM     12  C   UNL     1       7.893   7.262  17.650  0.00  0.00    +0.000 C 
ATOM     13  C   UNL     1       6.552   7.958  17.418  0.00  0.00    +0.000 C 
ATOM     14  C   UNL     1       5.495   7.017  16.835  0.00  0.00    +0.000 C 
ATOM     15  N   UNL     1       5.420   5.779  17.613  0.00  0.00    +0.000 N 
BRANCH  10  16
ATOM     16  C   UNL     1       7.159   4.410  16.523  0.00  0.00    +0.000 C 
BRANCH  16  17
ATOM     17  O   UNL     1       6.130   3.637  15.895  0.00  0.00    +0.000 OA
BRANCH  17  19
ATOM     18  C   UNL     1       7.092   4.931  14.121  0.00  0.00    +0.000 C 
ATOM     19  C   UNL     1       5.923   4.070  14.551  0.00  0.00    +0.000 C 
ENDBRANCH  17  19
ENDBRANCH  16  17
ENDBRANCH  10  16
ENDBRANCH   1  15
BRANCH   9  20
ATOM     20  C   UNL     1       1.175   2.434  20.457  0.00  0.00    +0.000 C 
ATOM     21  C   UNL     1       1.361   2.499  21.965  0.00  0.00    +0.000 C 
ENDBRANCH   9  20
TORSDOF 5
ENDMDL
MODEL 4
REMARK VINA RESULT:      -6.4      1.050      1.252
REMARK  Name = 
REMARK  7 active torsions:
REMARK  status: ('A' for Active; 'I' for Inactive)
REMARK    1  A    between atoms: C_1  and  C_2
REMARK    2  A    between atoms: C_2  and  O_3
REMARK    3  A    between atoms: O_3  and  C_4
REMARK    4  A    between atoms: C_4  and  C_5
REMARK    5  A    between atoms: N_10  and  C_11
REMARK    6  A    between atoms: N_19  and  C_20
REMARK    7  A    between atoms: C_20  and  C_21
REMARK                            x       y       z     vdW  Elec       q    Type
REMARK                         _______ _______ _______ _____ _____    ______ ____
ROOT
ATOM      1  C   UNL     1       5.232   4.864  17.584  0.00  0.00    +0.000 A 
ATOM      2  N   UNL     1       5.986   5.789  18.256  0.00  0.00    +0.000 NA
ATOM      3  C   UNL     1       7.030   6.385  17.648  0.00  0.00    +0.000 A 
ATOM      4  N   UNL     1       7.467   6.213  16.388  0.00  0.00    +0.000 NA
ATOM      5  C   UNL     1       6.712   5.308  15.747  0.00  0.00    +0.000 A 
ATOM      6  C   UNL     1       5.623   4.600  16.244  0.00  0.00    +0.000 A 
ATOM      7  N   UNL     1       5.118   3.765  15.261  0.00  0.00    +0.000 NA
ATOM      8  C   UNL     1       5.879   3.960  14.208  0.00  0.00    +0.000 A 
ATOM      9  N   UNL     1       6.845   4.891  14.449  0.00  0.00    +0.000 N 
ENDROOT
BRANCH   1  15
ATOM     10  C   UNL     1       4.285   2.938  18.885  0.00  0.00    +0.000 C 
ATOM     11  C   UNL     1       3.443   1.938  18.074  0.00  0.00    +0.000 C 
ATOM     12  C   UNL     1       2.003   2.415  17.898  0.00  0.00    +0.000 C 
ATOM     13  C   UNL     1       1.968   3.812  17.282  0.00  0.00    +0.000 C 
ATOM     14  C   UNL     1       2.836   4.814  18.046  0.00  0.00    +0.000 C 
ATOM     15  N   UNL     1       4.178   4.272  18.266  0.00  0.00    +0.000 N 
BRANCH  10  16
ATOM     16  C   UNL     1       3.863   3.024  20.371  0.00  0.00    +0.000 C 
BRANCH  16  17
ATOM     17  O   UNL     1       3.265   4.287  20.682  0.00  0.00    +0.000 OA
BRANCH  17  19
ATOM     18  C   UNL     1       1.803   2.625  21.603  0.00  0.00    +0.000 C 
ATOM     19  C   UNL     1       2.022   4.104  21.361  0.00  0.00    +0.000 C 
ENDBRANCH  17  19
ENDBRANCH  16  17
ENDBRANCH  10  16
ENDBRANCH   1  15
BRANCH   9  20
ATOM     20  C   UNL     1       7.855   5.321  13.504  0.00  0.00    +0.000 C 
ATOM     21  C   UNL     1       7.523   4.950  12.067  0.00  0.00    +0.000 C 
ENDBRANCH   9  20
TORSDOF 5
ENDMDL
MODEL 5
REMARK VINA RESULT:      -6.4      2.802      3.924
REMARK  Name = 
REMARK  7 active torsions:
REMARK  status: ('A' for Active; 'I' for Inactive)
REMARK    1  A    between atoms: C_1  and  C_2
REMARK    2  A    between atoms: C_2  and  O_3
REMARK    3  A    between atoms: O_3  and  C_4
REMARK    4  A    between atoms: C_4  and  C_5
REMARK    5  A    between atoms: N_10  and  C_11
REMARK    6  A    between atoms: N_19  and  C_20
REMARK    7  A    between atoms: C_20  and  C_21
REMARK                            x       y       z     vdW  Elec       q    Type
REMARK                         _______ _______ _______ _____ _____    ______ ____
ROOT
ATOM      1  C   UNL     1       4.351   4.953  18.774  0.00  0.00    +0.000 A 
ATOM      2  N   UNL     1       3.535   5.485  17.812  0.00  0.00    +0.000 NA
ATOM      3  C   UNL     1       4.001   6.432  16.974  0.00  0.00    +0.000 A 
ATOM      4  N   UNL     1       5.236   6.961  16.922  0.00  0.00    +0.000 NA
ATOM      5  C   UNL     1       6.020   6.423  17.869  0.00  0.00    +0.000 A 
ATOM      6  C   UNL     1       5.679   5.459  18.811  0.00  0.00    +0.000 A 
ATOM      7  N   UNL     1       6.776   5.171  19.606  0.00  0.00    +0.000 NA
ATOM      8  C   UNL     1       7.745   5.938  19.160  0.00  0.00    +0.000 A 
ATOM      9  N   UNL     1       7.340   6.701  18.106  0.00  0.00    +0.000 N 
ENDROOT
BRANCH   1  15
ATOM     10  C   UNL     1       4.145   2.560  19.502  0.00  0.00    +0.000 C 
ATOM     11  C   UNL     1       2.924   1.802  18.956  0.00  0.00    +0.000 C 
ATOM     12  C   UNL     1       1.668   2.071  19.783  0.00  0.00    +0.000 C 
ATOM     13  C   UNL     1       1.401   3.572  19.888  0.00  0.00    +0.000 C 
ATOM     14  C   UNL     1       2.619   4.353  20.385  0.00  0.00    +0.000 C 
ATOM     15  N   UNL     1       3.813   3.992  19.618  0.00  0.00    +0.000 N 
BRANCH  10  16
ATOM     16  C   UNL     1       4.627   2.030  20.874  0.00  0.00    +0.000 C 
BRANCH  16  17
ATOM     17  O   UNL     1       5.514   0.915  20.731  0.00  0.00    +0.000 OA
BRANCH  17  19
ATOM     18  C   UNL     1       6.649  -0.880  21.843  0.00  0.00    +0.000 C 
ATOM     19  C   UNL     1       5.959   0.458  22.009  0.00  0.00    +0.000 C 
ENDBRANCH  17  19
ENDBRANCH  16  17
ENDBRANCH  10  16
ENDBRANCH   1  15
BRANCH   9  20
ATOM     20  C   UNL     1       8.159   7.663  17.398  0.00  0.00    +0.000 C 
ATOM     21  C   UNL     1       8.281   8.992  18.127  0.00  0.00    +0.000 C 
ENDBRANCH   9  20
TORSDOF 5
ENDMDL
MODEL 6
REMARK VINA RESULT:      -6.4      3.682      6.535
REMARK  Name = 
REMARK  7 active torsions:
REMARK  status: ('A' for Active; 'I' for Inactive)
REMARK    1  A    between atoms: C_1  and  C_2
REMARK    2  A    between atoms: C_2  and  O_3
REMARK    3  A    between atoms: O_3  and  C_4
REMARK    4  A    between atoms: C_4  and  C_5
REMARK    5  A    between atoms: N_10  and  C_11
REMARK    6  A    between atoms: N_19  and  C_20
REMARK    7  A    between atoms: C_20  and  C_21
REMARK                            x       y       z     vdW  Elec       q    Type
REMARK                         _______ _______ _______ _____ _____    ______ ____
ROOT
ATOM      1  C   UNL     1       2.594   6.409  19.239  0.00  0.00    +0.000 A 
ATOM      2  N   UNL     1       3.083   6.784  18.015  0.00  0.00    +0.000 NA
ATOM      3  C   UNL     1       2.862   8.028  17.548  0.00  0.00    +0.000 A 
ATOM      4  N   UNL     1       2.204   9.036  18.146  0.00  0.00    +0.000 NA
ATOM      5  C   UNL     1       1.738   8.650  19.344  0.00  0.00    +0.000 A 
ATOM      6  C   UNL     1       1.868   7.404  19.948  0.00  0.00    +0.000 A 
ATOM      7  N   UNL     1       1.247   7.416  21.186  0.00  0.00    +0.000 NA
ATOM      8  C   UNL     1       0.756   8.627  21.322  0.00  0.00    +0.000 A 
ATOM      9  N   UNL     1       1.039   9.410  20.243  0.00  0.00    +0.000 N 
ENDROOT
BRANCH   1  15
ATOM     10  C   UNL     1       3.350   4.065  18.756  0.00  0.00    +0.000 C 
ATOM     11  C   UNL     1       2.231   3.049  18.477  0.00  0.00    +0.000 C 
ATOM     12  C   UNL     1       1.627   2.496  19.767  0.00  0.00    +0.000 C 
ATOM     13  C   UNL     1       1.147   3.632  20.669  0.00  0.00    +0.000 C 
ATOM     14  C   UNL     1       2.232   4.681  20.923  0.00  0.00    +0.000 C 
ATOM     15  N   UNL     1       2.840   5.110  19.663  0.00  0.00    +0.000 N 
BRANCH  10  16
ATOM     16  C   UNL     1       4.616   3.422  19.373  0.00  0.00    +0.000 C 
BRANCH  16  17
ATOM     17  O   UNL     1       5.756   4.282  19.267  0.00  0.00    +0.000 OA
BRANCH  17  19
ATOM     18  C   UNL     1       7.528   4.654  17.696  0.00  0.00    +0.000 C 
ATOM     19  C   UNL     1       6.029   4.592  17.900  0.00  0.00    +0.000 C 
ENDBRANCH  17  19
ENDBRANCH  16  17
ENDBRANCH  10  16
ENDBRANCH   1  15
BRANCH   9  20
ATOM     20  C   UNL     1       0.627  10.788  20.071  0.00  0.00    +0.000 C 
ATOM     21  C   UNL     1      -0.537  11.179  20.969  0.00  0.00    +0.000 C 
ENDBRANCH   9  20
TORSDOF 5
ENDMDL
MODEL 7
REMARK VINA RESULT:      -6.3      1.853      2.119
REMARK  Name = 
REMARK  7 active torsions:
REMARK  status: ('A' for Active; 'I' for Inactive)
REMARK    1  A    between atoms: C_1  and  C_2
REMARK    2  A    between atoms: C_2  and  O_3
REMARK    3  A    between atoms: O_3  and  C_4
REMARK    4  A    between atoms: C_4  and  C_5
REMARK    5  A    between atoms: N_10  and  C_11
REMARK    6  A    between atoms: N_19  and  C_20
REMARK    7  A    between atoms: C_20  and  C_21
REMARK                            x       y       z     vdW  Elec       q    Type
REMARK                         _______ _______ _______ _____ _____    ______ ____
ROOT
ATOM      1  C   UNL     1       5.515   4.428  18.568  0.00  0.00    +0.000 A 
ATOM      2  N   UNL     1       6.537   5.083  19.202  0.00  0.00    +0.000 NA
ATOM      3  C   UNL     1       7.554   5.607  18.490  0.00  0.00    +0.000 A 
ATOM      4  N   UNL     1       7.723   5.602  17.156  0.00  0.00    +0.000 NA
ATOM      5  C   UNL     1       6.710   4.961  16.554  0.00  0.00    +0.000 A 
ATOM      6  C   UNL     1       5.609   4.356  17.151  0.00  0.00    +0.000 A 
ATOM      7  N   UNL     1       4.791   3.806  16.179  0.00  0.00    +0.000 NA
ATOM      8  C   UNL     1       5.380   4.068  15.034  0.00  0.00    +0.000 A 
ATOM      9  N   UNL     1       6.532   4.774  15.210  0.00  0.00    +0.000 N 
ENDROOT
BRANCH   1  15
ATOM     10  C   UNL     1       4.230   2.448  19.419  0.00  0.00    +0.000 C 
ATOM     11  C   UNL     1       2.907   2.150  18.693  0.00  0.00    +0.000 C 
ATOM     12  C   UNL     1       1.761   3.012  19.220  0.00  0.00    +0.000 C 
ATOM     13  C   UNL     1       2.123   4.494  19.151  0.00  0.00    +0.000 C 
ATOM     14  C   UNL     1       3.459   4.806  19.827  0.00  0.00    +0.000 C 
ATOM     15  N   UNL     1       4.503   3.895  19.354  0.00  0.00    +0.000 N 
BRANCH  10  16
ATOM     16  C   UNL     1       4.228   1.991  20.898  0.00  0.00    +0.000 C 
BRANCH  16  17
ATOM     17  O   UNL     1       5.502   1.470  21.296  0.00  0.00    +0.000 OA
BRANCH  17  19
ATOM     18  C   UNL     1       6.696  -0.345  22.309  0.00  0.00    +0.000 C 
ATOM     19  C   UNL     1       5.341   0.297  22.093  0.00  0.00    +0.000 C 
ENDBRANCH  17  19
ENDBRANCH  16  17
ENDBRANCH  10  16
ENDBRANCH   1  15
BRANCH   9  20
ATOM     20  C   UNL     1       7.425   5.205  14.154  0.00  0.00    +0.000 C 
ATOM     21  C   UNL     1       7.099   4.581  12.806  0.00  0.00    +0.000 C 
ENDBRANCH   9  20
TORSDOF 5
ENDMDL
MODEL 8
REMARK VINA RESULT:      -6.2      4.483      7.329
REMARK  Name = 
REMARK  7 active torsions:
REMARK  status: ('A' for Active; 'I' for Inactive)
REMARK    1  A    between atoms: C_1  and  C_2
REMARK    2  A    between atoms: C_2  and  O_3
REMARK    3  A    between atoms: O_3  and  C_4
REMARK    4  A    between atoms: C_4  and  C_5
REMARK    5  A    between atoms: N_10  and  C_11
REMARK    6  A    between atoms: N_19  and  C_20
REMARK    7  A    between atoms: C_20  and  C_21
REMARK                            x       y       z     vdW  Elec       q    Type
REMARK                         _______ _______ _______ _____ _____    ______ ____
ROOT
ATOM      1  C   UNL     1       2.066   7.451  19.249  0.00  0.00    +0.000 A 
ATOM      2  N   UNL     1       2.238   8.035  18.022  0.00  0.00    +0.000 NA
ATOM      3  C   UNL     1       1.848   9.308  17.815  0.00  0.00    +0.000 A 
ATOM      4  N   UNL     1       1.292  10.160  18.693  0.00  0.00    +0.000 NA
ATOM      5  C   UNL     1       1.137   9.571  19.889  0.00  0.00    +0.000 A 
ATOM      6  C   UNL     1       1.470   8.269  20.247  0.00  0.00    +0.000 A 
ATOM      7  N   UNL     1       1.152   8.052  21.578  0.00  0.00    +0.000 NA
ATOM      8  C   UNL     1       0.641   9.184  22.006  0.00  0.00    +0.000 A 
ATOM      9  N   UNL     1       0.624  10.132  21.027  0.00  0.00    +0.000 N 
ENDROOT
BRANCH   1  15
ATOM     10  C   UNL     1       2.961   5.320  18.270  0.00  0.00    +0.000 C 
ATOM     11  C   UNL     1       1.909   4.253  17.925  0.00  0.00    +0.000 C 
ATOM     12  C   UNL     1       1.514   3.425  19.146  0.00  0.00    +0.000 C 
ATOM     13  C   UNL     1       1.049   4.330  20.286  0.00  0.00    +0.000 C 
ATOM     14  C   UNL     1       2.061   5.429  20.615  0.00  0.00    +0.000 C 
ATOM     15  N   UNL     1       2.473   6.133  19.400  0.00  0.00    +0.000 N 
BRANCH  10  16
ATOM     16  C   UNL     1       4.342   4.720  18.625  0.00  0.00    +0.000 C 
BRANCH  16  17
ATOM     17  O   UNL     1       5.407   5.639  18.357  0.00  0.00    +0.000 OA
BRANCH  17  19
ATOM     18  C   UNL     1       7.728   6.108  18.732  0.00  0.00    +0.000 C 
ATOM     19  C   UNL     1       6.477   5.457  19.284  0.00  0.00    +0.000 C 
ENDBRANCH  17  19
ENDBRANCH  16  17
ENDBRANCH  10  16
ENDBRANCH   1  15
BRANCH   9  20
ATOM     20  C   UNL     1       0.109  11.479  21.168  0.00  0.00    +0.000 C 
ATOM     21  C   UNL     1      -0.715  11.673  22.431  0.00  0.00    +0.000 C 
ENDBRANCH   9  20
TORSDOF 5
ENDMDL
MODEL 9
REMARK VINA RESULT:      -6.2      2.429      6.542
REMARK  Name = 
REMARK  7 active torsions:
REMARK  status: ('A' for Active; 'I' for Inactive)
REMARK    1  A    between atoms: C_1  and  C_2
REMARK    2  A    between atoms: C_2  and  O_3
REMARK    3  A    between atoms: O_3  and  C_4
REMARK    4  A    between atoms: C_4  and  C_5
REMARK    5  A    between atoms: N_10  and  C_11
REMARK    6  A    between atoms: N_19  and  C_20
REMARK    7  A    between atoms: C_20  and  C_21
REMARK                            x       y       z     vdW  Elec       q    Type
REMARK                         _______ _______ _______ _____ _____    ______ ____
ROOT
ATOM      1  C   UNL     1       3.855   5.477  17.806  0.00  0.00    +0.000 A 
ATOM      2  N   UNL     1       3.393   6.617  18.408  0.00  0.00    +0.000 NA
ATOM      3  C   UNL     1       2.441   6.544  19.358  0.00  0.00    +0.000 A 
ATOM      4  N   UNL     1       1.844   5.447  19.855  0.00  0.00    +0.000 NA
ATOM      5  C   UNL     1       2.315   4.342  19.256  0.00  0.00    +0.000 A 
ATOM      6  C   UNL     1       3.274   4.259  18.253  0.00  0.00    +0.000 A 
ATOM      7  N   UNL     1       3.481   2.933  17.909  0.00  0.00    +0.000 NA
ATOM      8  C   UNL     1       2.670   2.241  18.676  0.00  0.00    +0.000 A 
ATOM      9  N   UNL     1       1.957   3.046  19.514  0.00  0.00    +0.000 N 
ENDROOT
BRANCH   1  15
ATOM     10  C   UNL     1       5.533   4.457  16.242  0.00  0.00    +0.000 C 
ATOM     11  C   UNL     1       6.989   4.455  16.736  0.00  0.00    +0.000 C 
ATOM     12  C   UNL     1       7.683   5.790  16.472  0.00  0.00    +0.000 C 
ATOM     13  C   UNL     1       6.883   6.944  17.075  0.00  0.00    +0.000 C 
ATOM     14  C   UNL     1       5.418   6.939  16.632  0.00  0.00    +0.000 C 
ATOM     15  N   UNL     1       4.826   5.614  16.822  0.00  0.00    +0.000 N 
BRANCH  10  16
ATOM     16  C   UNL     1       5.415   4.504  14.699  0.00  0.00    +0.000 C 
BRANCH  16  17
ATOM     17  O   UNL     1       6.264   3.538  14.071  0.00  0.00    +0.000 OA
BRANCH  17  19
ATOM     18  C   UNL     1       5.193   3.160  11.960  0.00  0.00    +0.000 C 
ATOM     19  C   UNL     1       6.371   3.794  12.670  0.00  0.00    +0.000 C 
ENDBRANCH  17  19
ENDBRANCH  16  17
ENDBRANCH  10  16
ENDBRANCH   1  15
BRANCH   9  20
ATOM     20  C   UNL     1       0.966   2.599  20.471  0.00  0.00    +0.000 C 
ATOM     21  C   UNL     1       1.512   2.493  21.887  0.00  0.00    +0.000 C 
ENDBRANCH   9  20
TORSDOF 5
ENDMDL
