MODEL 1
REMARK VINA RESULT:      -7.7      0.000      0.000
REMARK  Name = 
REMARK  4 active torsions:
REMARK  status: ('A' for Active; 'I' for Inactive)
REMARK    1  A    between atoms: C_1  and  O_2
REMARK    2  A    between atoms: O_2  and  C_3
REMARK    3  A    between atoms: C_5  and  N_6
REMARK    4  A    between atoms: C_11  and  C_13
REMARK                            x       y       z     vdW  Elec       q    Type
REMARK                         _______ _______ _______ _____ _____    ______ ____
ROOT
ATOM      1  N   UNL     1       6.238   5.523  15.600  0.00  0.00    +0.000 N 
ATOM      2  C   UNL     1       4.866   5.579  16.069  0.00  0.00    +0.000 C 
ATOM      3  C   UNL     1       4.994   5.972  17.537  0.00  0.00    +0.000 C 
ATOM      4  C   UNL     1       4.104   5.168  18.457  0.00  0.00    +0.000 C 
ATOM      5  N   UNL     1       4.911   4.066  18.961  0.00  0.00    +0.000 N 
ATOM      6  C   UNL     1       4.492   2.964  19.706  0.00  0.00    +0.000 C 
ATOM      7  O   UNL     1       5.248   2.037  19.982  0.00  0.00    +0.000 OA
ATOM      8  C   UNL     1       6.256   4.116  18.395  0.00  0.00    +0.000 C 
ATOM      9  C   UNL     1       6.412   5.566  17.937  0.00  0.00    +0.000 C 
ATOM     10  C   UNL     1       7.213   5.757  16.659  0.00  0.00    +0.000 C 
ENDROOT
BRANCH   1  13
ATOM     11  C   UNL     1       6.358   3.675  12.482  0.00  0.00    +0.000 A 
ATOM     12  C   UNL     1       5.888   4.083  13.708  0.00  0.00    +0.000 A 
ATOM     13  C   UNL     1       6.613   5.055  14.369  0.00  0.00    +0.000 A 
ATOM     14  N   UNL     1       7.723   5.571  13.813  0.00  0.00    +0.000 NA
ATOM     15  C   UNL     1       8.093   5.099  12.615  0.00  0.00    +0.000 A 
ATOM     16  N   UNL     1       7.460   4.165  11.903  0.00  0.00    +0.000 NA
BRANCH  11  18
ATOM     17  C   UNL     1       4.352   3.141  11.411  0.00  0.00    +0.000 C 
ATOM     18  O   UNL     1       5.627   2.685  11.849  0.00  0.00    +0.000 OA
ENDBRANCH  11  18
ENDBRANCH   1  13
BRANCH   6  19
ATOM     19  C   UNL     1       3.067   2.857  20.138  0.00  0.00    +0.000 A 
ATOM     20  C   UNL     1       2.625   2.872  21.462  0.00  0.00    +0.000 A 
ATOM     21  C   UNL     1       1.263   2.912  21.753  0.00  0.00    +0.000 A 
ATOM     22  C   UNL     1       0.371   2.841  20.701  0.00  0.00    +0.000 A 
ATOM     23  N   UNL     1       0.751   2.737  19.411  0.00  0.00    +0.000 NA
ATOM     24  C   UNL     1       2.088   2.747  19.158  0.00  0.00    +0.000 A 
ENDBRANCH   6  19
TORSDOF 3
ENDMDL
MODEL 2
REMARK VINA RESULT:      -7.6      2.762      3.529
REMARK  Name = 
REMARK  4 active torsions:
REMARK  status: ('A' for Active; 'I' for Inactive)
REMARK    1  A    between atoms: C_1  and  O_2
REMARK    2  A    between atoms: O_2  and  C_3
REMARK    3  A    between atoms: C_5  and  N_6
REMARK    4  A    between atoms: C_11  and  C_13
REMARK                            x       y       z     vdW  Elec       q    Type
REMARK                         _______ _______ _______ _____ _____    ______ ____
ROOT
ATOM      1  N   UNL     1       6.812   5.182  15.749  0.00  0.00    +0.000 N 
ATOM      2  C   UNL     1       6.433   6.493  16.239  0.00  0.00    +0.000 C 
ATOM      3  C   UNL     1       6.241   6.286  17.738  0.00  0.00    +0.000 C 
ATOM      4  C   UNL     1       4.997   6.948  18.285  0.00  0.00    +0.000 C 
ATOM      5  N   UNL     1       3.952   5.934  18.286  0.00  0.00    +0.000 N 
ATOM      6  C   UNL     1       2.591   6.103  18.541  0.00  0.00    +0.000 C 
ATOM      7  O   UNL     1       1.784   5.188  18.404  0.00  0.00    +0.000 OA
ATOM      8  C   UNL     1       4.460   4.675  17.750  0.00  0.00    +0.000 C 
ATOM      9  C   UNL     1       5.977   4.790  17.904  0.00  0.00    +0.000 C 
ATOM     10  C   UNL     1       6.790   4.156  16.787  0.00  0.00    +0.000 C 
ENDROOT
BRANCH   1  13
ATOM     11  C   UNL     1       6.375   3.616  12.507  0.00  0.00    +0.000 A 
ATOM     12  C   UNL     1       6.166   3.868  13.843  0.00  0.00    +0.000 A 
ATOM     13  C   UNL     1       6.934   4.859  14.424  0.00  0.00    +0.000 A 
ATOM     14  N   UNL     1       7.834   5.539  13.692  0.00  0.00    +0.000 NA
ATOM     15  C   UNL     1       7.957   5.210  12.400  0.00  0.00    +0.000 A 
ATOM     16  N   UNL     1       7.264   4.271  11.753  0.00  0.00    +0.000 NA
BRANCH  11  18
ATOM     17  C   UNL     1       4.391   3.083  11.396  0.00  0.00    +0.000 C 
ATOM     18  O   UNL     1       5.610   2.605  11.953  0.00  0.00    +0.000 OA
ENDBRANCH  11  18
ENDBRANCH   1  13
BRANCH   6  19
ATOM     19  C   UNL     1       2.069   7.445  18.934  0.00  0.00    +0.000 A 
ATOM     20  C   UNL     1       1.838   8.506  18.056  0.00  0.00    +0.000 A 
ATOM     21  C   UNL     1       1.214   9.669  18.501  0.00  0.00    +0.000 A 
ATOM     22  C   UNL     1       0.919   9.775  19.846  0.00  0.00    +0.000 A 
ATOM     23  N   UNL     1       1.202   8.811  20.747  0.00  0.00    +0.000 NA
ATOM     24  C   UNL     1       1.770   7.670  20.272  0.00  0.00    +0.000 A 
ENDBRANCH   6  19
TORSDOF 3
ENDMDL
MODEL 3
REMARK VINA RESULT:      -7.5      4.359      8.319
REMARK  Name = 
REMARK  4 active torsions:
REMARK  status: ('A' for Active; 'I' for Inactive)
REMARK    1  A    between atoms: C_1  and  O_2
REMARK    2  A    between atoms: O_2  and  C_3
REMARK    3  A    between atoms: C_5  and  N_6
REMARK    4  A    between atoms: C_11  and  C_13
REMARK                            x       y       z     vdW  Elec       q    Type
REMARK                         _______ _______ _______ _____ _____    ______ ____
ROOT
ATOM      1  N   UNL     1       1.664   6.916  19.667  0.00  0.00    +0.000 N 
ATOM      2  C   UNL     1       1.917   6.611  18.271  0.00  0.00    +0.000 C 
ATOM      3  C   UNL     1       2.328   5.143  18.283  0.00  0.00    +0.000 C 
ATOM      4  C   UNL     1       3.529   4.845  17.413  0.00  0.00    +0.000 C 
ATOM      5  N   UNL     1       4.696   4.899  18.282  0.00  0.00    +0.000 N 
ATOM      6  C   UNL     1       6.041   4.859  17.916  0.00  0.00    +0.000 C 
ATOM      7  O   UNL     1       6.944   5.024  18.731  0.00  0.00    +0.000 OA
ATOM      8  C   UNL     1       4.303   5.235  19.647  0.00  0.00    +0.000 C 
ATOM      9  C   UNL     1       2.818   4.876  19.705  0.00  0.00    +0.000 C 
ATOM     10  C   UNL     1       1.964   5.800  20.558  0.00  0.00    +0.000 C 
ENDROOT
BRANCH   1  13
ATOM     11  C   UNL     1       0.834   9.692  21.848  0.00  0.00    +0.000 A 
ATOM     12  C   UNL     1       1.070   8.392  21.469  0.00  0.00    +0.000 A 
ATOM     13  C   UNL     1       1.417   8.173  20.150  0.00  0.00    +0.000 A 
ATOM     14  N   UNL     1       1.521   9.205  19.294  0.00  0.00    +0.000 NA
ATOM     15  C   UNL     1       1.267  10.432  19.769  0.00  0.00    +0.000 A 
ATOM     16  N   UNL     1       0.925  10.740  21.022  0.00  0.00    +0.000 NA
BRANCH  11  18
ATOM     17  C   UNL     1      -0.840  10.430  23.300  0.00  0.00    +0.000 C 
ATOM     18  O   UNL     1       0.467   9.883  23.168  0.00  0.00    +0.000 OA
ENDBRANCH  11  18
ENDBRANCH   1  13
BRANCH   6  19
ATOM     19  C   UNL     1       6.417   4.674  16.483  0.00  0.00    +0.000 A 
ATOM     20  C   UNL     1       5.880   3.709  15.629  0.00  0.00    +0.000 A 
ATOM     21  C   UNL     1       6.193   3.713  14.272  0.00  0.00    +0.000 A 
ATOM     22  C   UNL     1       7.117   4.635  13.820  0.00  0.00    +0.000 A 
ATOM     23  N   UNL     1       7.727   5.530  14.623  0.00  0.00    +0.000 NA
ATOM     24  C   UNL     1       7.365   5.530  15.935  0.00  0.00    +0.000 A 
ENDBRANCH   6  19
TORSDOF 3
ENDMDL
MODEL 4
REMARK VINA RESULT:      -7.4      4.401      8.150
REMARK  Name = 
REMARK  4 active torsions:
REMARK  status: ('A' for Active; 'I' for Inactive)
REMARK    1  A    between atoms: C_1  and  O_2
REMARK    2  A    between atoms: O_2  and  C_3
REMARK    3  A    between atoms: C_5  and  N_6
REMARK    4  A    between atoms: C_11  and  C_13
REMARK                            x       y       z     vdW  Elec       q    Type
REMARK                         _______ _______ _______ _____ _____    ______ ____
ROOT
ATOM      1  N   UNL     1       1.633   6.865  19.824  0.00  0.00    +0.000 N 
ATOM      2  C   UNL     1       1.916   6.663  18.416  0.00  0.00    +0.000 C 
ATOM      3  C   UNL     1       2.235   5.175  18.313  0.00  0.00    +0.000 C 
ATOM      4  C   UNL     1       3.446   4.874  17.458  0.00  0.00    +0.000 C 
ATOM      5  N   UNL     1       4.582   4.779  18.363  0.00  0.00    +0.000 N 
ATOM      6  C   UNL     1       5.935   4.683  18.037  0.00  0.00    +0.000 C 
ATOM      7  O   UNL     1       6.816   4.720  18.890  0.00  0.00    +0.000 OA
ATOM      8  C   UNL     1       4.162   5.024  19.739  0.00  0.00    +0.000 C 
ATOM      9  C   UNL     1       2.657   4.759  19.722  0.00  0.00    +0.000 C 
ATOM     10  C   UNL     1       1.831   5.661  20.624  0.00  0.00    +0.000 C 
ENDROOT
BRANCH   1  13
ATOM     11  C   UNL     1       1.102  10.416  20.334  0.00  0.00    +0.000 A 
ATOM     12  C   UNL     1       1.269   9.234  19.651  0.00  0.00    +0.000 A 
ATOM     13  C   UNL     1       1.448   8.091  20.405  0.00  0.00    +0.000 A 
ATOM     14  N   UNL     1       1.446   8.155  21.748  0.00  0.00    +0.000 NA
ATOM     15  C   UNL     1       1.277   9.358  22.311  0.00  0.00    +0.000 A 
ATOM     16  N   UNL     1       1.100  10.514  21.668  0.00  0.00    +0.000 NA
BRANCH  11  18
ATOM     17  C   UNL     1       1.434  12.724  20.198  0.00  0.00    +0.000 C 
ATOM     18  O   UNL     1       0.947  11.550  19.558  0.00  0.00    +0.000 OA
ENDBRANCH  11  18
ENDBRANCH   1  13
BRANCH   6  19
ATOM     19  C   UNL     1       6.350   4.595  16.605  0.00  0.00    +0.000 A 
ATOM     20  C   UNL     1       5.846   3.682  15.676  0.00  0.00    +0.000 A 
ATOM     21  C   UNL     1       6.194   3.778  14.331  0.00  0.00    +0.000 A 
ATOM     22  C   UNL     1       7.118   4.736  13.964  0.00  0.00    +0.000 A 
ATOM     23  N   UNL     1       7.698   5.583  14.840  0.00  0.00    +0.000 NA
ATOM     24  C   UNL     1       7.302   5.494  16.139  0.00  0.00    +0.000 A 
ENDBRANCH   6  19
TORSDOF 3
ENDMDL
MODEL 5
REMARK VINA RESULT:      -7.4      2.597      3.153
REMARK  Name = 
REMARK  4 active torsions:
REMARK  status: ('A' for Active; 'I' for Inactive)
REMARK    1  A    between atoms: C_1  and  O_2
REMARK    2  A    between atoms: O_2  and  C_3
REMARK    3  A    between atoms: C_5  and  N_6
REMARK    4  A    between atoms: C_11  and  C_13
REMARK                            x       y       z     vdW  Elec       q    Type
REMARK                         _______ _______ _______ _____ _____    ______ ____
ROOT
ATOM      1  N   UNL     1       6.859   5.133  15.815  0.00  0.00    +0.000 N 
ATOM      2  C   UNL     1       6.398   6.402  16.346  0.00  0.00    +0.000 C 
ATOM      3  C   UNL     1       6.287   6.156  17.846  0.00  0.00    +0.000 C 
ATOM      4  C   UNL     1       5.018   6.707  18.457  0.00  0.00    +0.000 C 
ATOM      5  N   UNL     1       4.057   5.613  18.480  0.00  0.00    +0.000 N 
ATOM      6  C   UNL     1       2.700   5.668  18.794  0.00  0.00    +0.000 C 
ATOM      7  O   UNL     1       1.962   4.695  18.671  0.00  0.00    +0.000 OA
ATOM      8  C   UNL     1       4.641   4.407  17.900  0.00  0.00    +0.000 C 
ATOM      9  C   UNL     1       6.149   4.641  17.994  0.00  0.00    +0.000 C 
ATOM     10  C   UNL     1       6.961   4.092  16.833  0.00  0.00    +0.000 C 
ENDROOT
BRANCH   1  13
ATOM     11  C   UNL     1       6.343   3.649  12.546  0.00  0.00    +0.000 A 
ATOM     12  C   UNL     1       6.165   3.870  13.892  0.00  0.00    +0.000 A 
ATOM     13  C   UNL     1       6.950   4.842  14.480  0.00  0.00    +0.000 A 
ATOM     14  N   UNL     1       7.837   5.535  13.746  0.00  0.00    +0.000 NA
ATOM     15  C   UNL     1       7.931   5.238  12.443  0.00  0.00    +0.000 A 
ATOM     16  N   UNL     1       7.219   4.319  11.788  0.00  0.00    +0.000 NA
BRANCH  11  18
ATOM     17  C   UNL     1       4.352   3.159  11.428  0.00  0.00    +0.000 C 
ATOM     18  O   UNL     1       5.561   2.656  11.985  0.00  0.00    +0.000 OA
ENDBRANCH  11  18
ENDBRANCH   1  13
BRANCH   6  19
ATOM     19  C   UNL     1       2.090   6.958  19.233  0.00  0.00    +0.000 A 
ATOM     20  C   UNL     1       1.698   7.259  20.539  0.00  0.00    +0.000 A 
ATOM     21  C   UNL     1       1.273   8.543  20.872  0.00  0.00    +0.000 A 
ATOM     22  C   UNL     1       1.162   9.475  19.859  0.00  0.00    +0.000 A 
ATOM     23  N   UNL     1       1.446   9.206  18.567  0.00  0.00    +0.000 NA
ATOM     24  C   UNL     1       1.903   7.955  18.283  0.00  0.00    +0.000 A 
ENDBRANCH   6  19
TORSDOF 3
ENDMDL
MODEL 6
REMARK VINA RESULT:      -7.3      3.690      7.764
REMARK  Name = 
REMARK  4 active torsions:
REMARK  status: ('A' for Active; 'I' for Inactive)
REMARK    1  A    between atoms: C_1  and  O_2
REMARK    2  A    between atoms: O_2  and  C_3
REMARK    3  A    between atoms: C_5  and  N_6
REMARK    4  A    between atoms: C_11  and  C_13
REMARK                            x       y       z     vdW  Elec       q    Type
REMARK                         _______ _______ _______ _____ _____    ______ ____
ROOT
ATOM      1  N   UNL     1       2.860   5.921  19.082  0.00  0.00    +0.000 N 
ATOM      2  C   UNL     1       2.747   5.268  17.791  0.00  0.00    +0.000 C 
ATOM      3  C   UNL     1       3.795   4.161  17.845  0.00  0.00    +0.000 C 
ATOM      4  C   UNL     1       4.621   4.050  16.583  0.00  0.00    +0.000 C 
ATOM      5  N   UNL     1       5.829   4.832  16.805  0.00  0.00    +0.000 N 
ATOM      6  C   UNL     1       6.815   5.171  15.879  0.00  0.00    +0.000 C 
ATOM      7  O   UNL     1       7.737   5.932  16.158  0.00  0.00    +0.000 OA
ATOM      8  C   UNL     1       5.803   5.449  18.128  0.00  0.00    +0.000 C 
ATOM      9  C   UNL     1       4.794   4.609  18.911  0.00  0.00    +0.000 C 
ATOM     10  C   UNL     1       3.940   5.382  19.902  0.00  0.00    +0.000 C 
ENDROOT
BRANCH   1  13
ATOM     11  C   UNL     1       1.442   9.258  18.978  0.00  0.00    +0.000 A 
ATOM     12  C   UNL     1       2.103   8.136  18.536  0.00  0.00    +0.000 A 
ATOM     13  C   UNL     1       2.213   7.079  19.419  0.00  0.00    +0.000 A 
ATOM     14  N   UNL     1       1.680   7.165  20.651  0.00  0.00    +0.000 NA
ATOM     15  C   UNL     1       1.059   8.306  20.980  0.00  0.00    +0.000 A 
ATOM     16  N   UNL     1       0.905   9.376  20.198  0.00  0.00    +0.000 NA
BRANCH  11  18
ATOM     17  C   UNL     1       1.538  11.576  18.710  0.00  0.00    +0.000 C 
ATOM     18  O   UNL     1       1.364  10.310  18.084  0.00  0.00    +0.000 OA
ENDBRANCH  11  18
ENDBRANCH   1  13
BRANCH   6  19
ATOM     19  C   UNL     1       6.732   4.654  14.481  0.00  0.00    +0.000 A 
ATOM     20  C   UNL     1       5.796   3.726  14.021  0.00  0.00    +0.000 A 
ATOM     21  C   UNL     1       5.712   3.418  12.666  0.00  0.00    +0.000 A 
ATOM     22  C   UNL     1       6.639   3.983  11.812  0.00  0.00    +0.000 A 
ATOM     23  N   UNL     1       7.616   4.818  12.223  0.00  0.00    +0.000 NA
ATOM     24  C   UNL     1       7.641   5.134  13.547  0.00  0.00    +0.000 A 
ENDBRANCH   6  19
TORSDOF 3
ENDMDL
MODEL 7
REMARK VINA RESULT:      -7.3      3.700      8.005
REMARK  Name = 
REMARK  4 active torsions:
REMARK  status: ('A' for Active; 'I' for Inactive)
REMARK    1  A    between atoms: C_1  and  O_2
REMARK    2  A    between atoms: O_2  and  C_3
REMARK    3  A    between atoms: C_5  and  N_6
REMARK    4  A    between atoms: C_11  and  C_13
REMARK                            x       y       z     vdW  Elec       q    Type
REMARK                         _______ _______ _______ _____ _____    ______ ____
ROOT
ATOM      1  N   UNL     1       2.895   6.037  19.035  0.00  0.00    +0.000 N 
ATOM      2  C   UNL     1       2.774   5.342  17.768  0.00  0.00    +0.000 C 
ATOM      3  C   UNL     1       3.835   4.249  17.844  0.00  0.00    +0.000 C 
ATOM      4  C   UNL     1       4.646   4.106  16.576  0.00  0.00    +0.000 C 
ATOM      5  N   UNL     1       5.847   4.909  16.757  0.00  0.00    +0.000 N 
ATOM      6  C   UNL     1       6.818   5.229  15.808  0.00  0.00    +0.000 C 
ATOM      7  O   UNL     1       7.734   6.009  16.049  0.00  0.00    +0.000 OA
ATOM      8  C   UNL     1       5.831   5.568  18.059  0.00  0.00    +0.000 C 
ATOM      9  C   UNL     1       4.842   4.742  18.882  0.00  0.00    +0.000 C 
ATOM     10  C   UNL     1       3.991   5.537  19.858  0.00  0.00    +0.000 C 
ENDROOT
BRANCH   1  13
ATOM     11  C   UNL     1       1.068   8.623  20.804  0.00  0.00    +0.000 A 
ATOM     12  C   UNL     1       1.718   7.429  20.603  0.00  0.00    +0.000 A 
ATOM     13  C   UNL     1       2.239   7.199  19.344  0.00  0.00    +0.000 A 
ATOM     14  N   UNL     1       2.109   8.123  18.376  0.00  0.00    +0.000 NA
ATOM     15  C   UNL     1       1.455   9.252  18.680  0.00  0.00    +0.000 A 
ATOM     16  N   UNL     1       0.919   9.561  19.862  0.00  0.00    +0.000 NA
BRANCH  11  18
ATOM     17  C   UNL     1      -0.020  10.121  22.228  0.00  0.00    +0.000 C 
ATOM     18  O   UNL     1       0.536   8.821  22.065  0.00  0.00    +0.000 OA
ENDBRANCH  11  18
ENDBRANCH   1  13
BRANCH   6  19
ATOM     19  C   UNL     1       6.723   4.666  14.428  0.00  0.00    +0.000 A 
ATOM     20  C   UNL     1       5.759   3.753  13.996  0.00  0.00    +0.000 A 
ATOM     21  C   UNL     1       5.671   3.401  12.652  0.00  0.00    +0.000 A 
ATOM     22  C   UNL     1       6.618   3.905  11.783  0.00  0.00    +0.000 A 
ATOM     23  N   UNL     1       7.621   4.722  12.170  0.00  0.00    +0.000 NA
ATOM     24  C   UNL     1       7.651   5.083  13.482  0.00  0.00    +0.000 A 
ENDBRANCH   6  19
TORSDOF 3
ENDMDL
MODEL 8
REMARK VINA RESULT:      -7.1      6.157      7.907
REMARK  Name = 
REMARK  4 active torsions:
REMARK  status: ('A' for Active; 'I' for Inactive)
REMARK    1  A    between atoms: C_1  and  O_2
REMARK    2  A    between atoms: O_2  and  C_3
REMARK    3  A    between atoms: C_5  and  N_6
REMARK    4  A    between atoms: C_11  and  C_13
REMARK                            x       y       z     vdW  Elec       q    Type
REMARK                         _______ _______ _______ _____ _____    ______ ____
ROOT
ATOM      1  N   UNL     1       0.338   9.910  18.817  0.00  0.00    +0.000 N 
ATOM      2  C   UNL     1       0.561   9.063  19.974  0.00  0.00    +0.000 C 
ATOM      3  C   UNL     1       2.009   8.609  19.825  0.00  0.00    +0.000 C 
ATOM      4  C   UNL     1       2.210   7.135  20.098  0.00  0.00    +0.000 C 
ATOM      5  N   UNL     1       2.150   6.461  18.809  0.00  0.00    +0.000 N 
ATOM      6  C   UNL     1       2.113   5.089  18.558  0.00  0.00    +0.000 C 
ATOM      7  O   UNL     1       1.950   4.637  17.428  0.00  0.00    +0.000 OA
ATOM      8  C   UNL     1       1.900   7.422  17.739  0.00  0.00    +0.000 C 
ATOM      9  C   UNL     1       2.325   8.763  18.338  0.00  0.00    +0.000 C 
ATOM     10  C   UNL     1       1.483   9.956  17.914  0.00  0.00    +0.000 C 
ENDROOT
BRANCH   1  13
ATOM     11  C   UNL     1      -2.816  10.474  17.118  0.00  0.00    +0.000 A 
ATOM     12  C   UNL     1      -1.608   9.885  17.406  0.00  0.00    +0.000 A 
ATOM     13  C   UNL     1      -0.882  10.416  18.455  0.00  0.00    +0.000 A 
ATOM     14  N   UNL     1      -1.362  11.459  19.154  0.00  0.00    +0.000 NA
ATOM     15  C   UNL     1      -2.550  11.958  18.788  0.00  0.00    +0.000 A 
ATOM     16  N   UNL     1      -3.320  11.515  17.792  0.00  0.00    +0.000 NA
BRANCH  11  18
ATOM     17  C   UNL     1      -2.910  10.235  14.797  0.00  0.00    +0.000 C 
ATOM     18  O   UNL     1      -3.514   9.939  16.051  0.00  0.00    +0.000 OA
ENDBRANCH  11  18
ENDBRANCH   1  13
BRANCH   6  19
ATOM     19  C   UNL     1       2.209   4.123  19.692  0.00  0.00    +0.000 A 
ATOM     20  C   UNL     1       1.160   3.777  20.545  0.00  0.00    +0.000 A 
ATOM     21  C   UNL     1       1.316   2.757  21.480  0.00  0.00    +0.000 A 
ATOM     22  C   UNL     1       2.560   2.169  21.601  0.00  0.00    +0.000 A 
ATOM     23  N   UNL     1       3.627   2.530  20.859  0.00  0.00    +0.000 NA
ATOM     24  C   UNL     1       3.429   3.498  19.922  0.00  0.00    +0.000 A 
ENDBRANCH   6  19
TORSDOF 3
ENDMDL
MODEL 9
REMARK VINA RESULT:      -6.9      3.214      7.493
REMARK  Name = 
REMARK  4 active torsions:
REMARK  status: ('A' for Active; 'I' for Inactive)
REMARK    1  A    between atoms: C_1  and  O_2
REMARK    2  A    between atoms: O_2  and  C_3
REMARK    3  A    between atoms: C_5  and  N_6
REMARK    4  A    between atoms: C_11  and  C_13
REMARK                            x       y       z     vdW  Elec       q    Type
REMARK                         _______ _______ _______ _____ _____    ______ ____
ROOT
ATOM      1  N   UNL     1       3.977   5.443  18.396  0.00  0.00    +0.000 N 
ATOM      2  C   UNL     1       3.629   4.463  17.385  0.00  0.00    +0.000 C 
ATOM      3  C   UNL     1       4.895   3.628  17.228  0.00  0.00    +0.000 C 
ATOM      4  C   UNL     1       5.258   3.345  15.787  0.00  0.00    +0.000 C 
ATOM      5  N   UNL     1       6.209   4.372  15.388  0.00  0.00    +0.000 N 
ATOM      6  C   UNL     1       6.704   4.633  14.110  0.00  0.00    +0.000 C 
ATOM      7  O   UNL     1       7.422   5.601  13.875  0.00  0.00    +0.000 OA
ATOM      8  C   UNL     1       6.453   5.300  16.487  0.00  0.00    +0.000 C 
ATOM      9  C   UNL     1       6.027   4.522  17.732  0.00  0.00    +0.000 C 
ATOM     10  C   UNL     1       5.370   5.354  18.821  0.00  0.00    +0.000 C 
ENDROOT
BRANCH   1  13
ATOM     11  C   UNL     1       2.209   8.610  18.359  0.00  0.00    +0.000 A 
ATOM     12  C   UNL     1       3.015   7.591  17.908  0.00  0.00    +0.000 A 
ATOM     13  C   UNL     1       3.187   6.506  18.745  0.00  0.00    +0.000 A 
ATOM     14  N   UNL     1       2.576   6.467  19.942  0.00  0.00    +0.000 NA
ATOM     15  C   UNL     1       1.815   7.515  20.283  0.00  0.00    +0.000 A 
ATOM     16  N   UNL     1       1.590   8.604  19.545  0.00  0.00    +0.000 NA
BRANCH  11  18
ATOM     17  C   UNL     1       1.725  10.889  18.204  0.00  0.00    +0.000 C 
ATOM     18  O   UNL     1       2.070   9.694  17.512  0.00  0.00    +0.000 OA
ENDBRANCH  11  18
ENDBRANCH   1  13
BRANCH   6  19
ATOM     19  C   UNL     1       6.310   3.759  12.966  0.00  0.00    +0.000 A 
ATOM     20  C   UNL     1       7.178   2.935  12.248  0.00  0.00    +0.000 A 
ATOM     21  C   UNL     1       6.684   2.050  11.292  0.00  0.00    +0.000 A 
ATOM     22  C   UNL     1       5.332   2.082  11.013  0.00  0.00    +0.000 A 
ATOM     23  N   UNL     1       4.467   2.922  11.619  0.00  0.00    +0.000 NA
ATOM     24  C   UNL     1       4.975   3.741  12.581  0.00  0.00    +0.000 A 
ENDBRANCH   6  19
TORSDOF 3
ENDMDL
