MODEL 1
REMARK VINA RESULT:      -7.4      0.000      0.000
REMARK  Name = 
REMARK  2 active torsions:
REMARK  status: ('A' for Active; 'I' for Inactive)
REMARK    1  A    between atoms: C_1  and  C_2
REMARK    2  A    between atoms: C_5  and  C_6
REMARK                            x       y       z     vdW  Elec       q    Type
REMARK                         _______ _______ _______ _____ _____    ______ ____
ROOT
ATOM      1  C   UNL     1       6.256   4.556  17.760  0.00  0.00    +0.000 C 
ATOM      2  C   UNL     1       7.526   5.149  18.291  0.00  0.00    +0.000 C 
ATOM      3  N   UNL     1       7.285   6.618  18.081  0.00  0.00    +0.000 NA
ATOM      4  N   UNL     1       6.052   6.829  17.857  0.00  0.00    +0.000 NA
ATOM      5  C   UNL     1       5.239   5.684  18.281  0.00  0.00    +0.000 C 
ATOM      6  C   UNL     1       4.068   6.418  19.170  0.00  0.00    +0.000 C 
ATOM      7  C   UNL     1       2.465   6.030  18.962  0.00  0.00    +0.000 C 
ATOM      8  C   UNL     1       2.361   4.527  19.062  0.00  0.00    +0.000 A 
ATOM      9  C   UNL     1       1.399   3.773  19.722  0.00  0.00    +0.000 A 
ATOM     10  C   UNL     1       1.843   2.653  20.424  0.00  0.00    +0.000 A 
ATOM     11  C   UNL     1       3.212   2.436  20.556  0.00  0.00    +0.000 A 
ATOM     12  C   UNL     1       4.096   3.115  19.705  0.00  0.00    +0.000 A 
ATOM     13  C   UNL     1       3.558   3.952  18.731  0.00  0.00    +0.000 A 
ATOM     14  C   UNL     1       4.200   4.841  17.720  0.00  0.00    +0.000 C 
ATOM     15  O   UNL     1       3.673   4.960  16.608  0.00  0.00    +0.000 OA
ENDROOT
BRANCH   1  20
ATOM     16  C   UNL     1       6.795   3.949  11.831  0.00  0.00    +0.000 C 
ATOM     17  C   UNL     1       6.682   4.086  13.322  0.00  0.00    +0.000 A 
ATOM     18  C   UNL     1       7.389   5.067  14.035  0.00  0.00    +0.000 A 
ATOM     19  C   UNL     1       7.222   5.225  15.428  0.00  0.00    +0.000 A 
ATOM     20  C   UNL     1       6.350   4.403  16.160  0.00  0.00    +0.000 A 
ATOM     21  C   UNL     1       5.694   3.388  15.431  0.00  0.00    +0.000 A 
ATOM     22  C   UNL     1       5.847   3.234  14.046  0.00  0.00    +0.000 A 
ENDBRANCH   1  20
TORSDOF 1
ENDMDL
MODEL 2
REMARK VINA RESULT:      -7.4      0.154      1.031
REMARK  Name = 
REMARK  2 active torsions:
REMARK  status: ('A' for Active; 'I' for Inactive)
REMARK    1  A    between atoms: C_1  and  C_2
REMARK    2  A    between atoms: C_5  and  C_6
REMARK                            x       y       z     vdW  Elec       q    Type
REMARK                         _______ _______ _______ _____ _____    ______ ____
ROOT
ATOM      1  C   UNL     1       6.322   4.559  17.770  0.00  0.00    +0.000 C 
ATOM      2  C   UNL     1       7.564   5.149  18.366  0.00  0.00    +0.000 C 
ATOM      3  N   UNL     1       7.350   6.617  18.123  0.00  0.00    +0.000 NA
ATOM      4  N   UNL     1       6.135   6.835  17.822  0.00  0.00    +0.000 NA
ATOM      5  C   UNL     1       5.287   5.703  18.214  0.00  0.00    +0.000 C 
ATOM      6  C   UNL     1       4.072   6.460  19.021  0.00  0.00    +0.000 C 
ATOM      7  C   UNL     1       2.481   6.083  18.725  0.00  0.00    +0.000 C 
ATOM      8  C   UNL     1       2.357   4.583  18.839  0.00  0.00    +0.000 A 
ATOM      9  C   UNL     1       1.351   3.847  19.452  0.00  0.00    +0.000 A 
ATOM     10  C   UNL     1       1.742   2.733  20.194  0.00  0.00    +0.000 A 
ATOM     11  C   UNL     1       3.098   2.507  20.410  0.00  0.00    +0.000 A 
ATOM     12  C   UNL     1       4.038   3.166  19.603  0.00  0.00    +0.000 A 
ATOM     13  C   UNL     1       3.566   3.993  18.588  0.00  0.00    +0.000 A 
ATOM     14  C   UNL     1       4.275   4.862  17.604  0.00  0.00    +0.000 C 
ATOM     15  O   UNL     1       3.815   4.969  16.461  0.00  0.00    +0.000 OA
ENDROOT
BRANCH   1  20
ATOM     16  C   UNL     1       6.833   3.932  11.840  0.00  0.00    +0.000 C 
ATOM     17  C   UNL     1       6.682   4.103  13.325  0.00  0.00    +0.000 A 
ATOM     18  C   UNL     1       5.877   3.248  14.094  0.00  0.00    +0.000 A 
ATOM     19  C   UNL     1       5.798   3.383  15.498  0.00  0.00    +0.000 A 
ATOM     20  C   UNL     1       6.510   4.382  16.181  0.00  0.00    +0.000 A 
ATOM     21  C   UNL     1       7.266   5.264  15.379  0.00  0.00    +0.000 A 
ATOM     22  C   UNL     1       7.359   5.129  13.987  0.00  0.00    +0.000 A 
ENDBRANCH   1  20
TORSDOF 1
ENDMDL
MODEL 3
REMARK VINA RESULT:      -7.1      2.728      6.251
REMARK  Name = 
REMARK  2 active torsions:
REMARK  status: ('A' for Active; 'I' for Inactive)
REMARK    1  A    between atoms: C_1  and  C_2
REMARK    2  A    between atoms: C_5  and  C_6
REMARK                            x       y       z     vdW  Elec       q    Type
REMARK                         _______ _______ _______ _____ _____    ______ ____
ROOT
ATOM      1  C   UNL     1       2.978   5.820  19.958  0.00  0.00    +0.000 C 
ATOM      2  C   UNL     1       2.216   5.041  20.987  0.00  0.00    +0.000 C 
ATOM      3  N   UNL     1       1.203   4.326  20.138  0.00  0.00    +0.000 NA
ATOM      4  N   UNL     1       1.547   4.378  18.915  0.00  0.00    +0.000 NA
ATOM      5  C   UNL     1       2.966   4.725  18.784  0.00  0.00    +0.000 C 
ATOM      6  C   UNL     1       3.497   3.573  17.740  0.00  0.00    +0.000 C 
ATOM      7  C   UNL     1       4.448   3.970  16.437  0.00  0.00    +0.000 C 
ATOM      8  C   UNL     1       5.598   4.793  16.967  0.00  0.00    +0.000 A 
ATOM      9  C   UNL     1       6.941   4.716  16.623  0.00  0.00    +0.000 A 
ATOM     10  C   UNL     1       7.868   4.829  17.659  0.00  0.00    +0.000 A 
ATOM     11  C   UNL     1       7.413   4.855  18.974  0.00  0.00    +0.000 A 
ATOM     12  C   UNL     1       6.060   5.128  19.224  0.00  0.00    +0.000 A 
ATOM     13  C   UNL     1       5.235   5.404  18.137  0.00  0.00    +0.000 A 
ATOM     14  C   UNL     1       3.772   5.679  18.045  0.00  0.00    +0.000 C 
ATOM     15  O   UNL     1       3.369   6.496  17.210  0.00  0.00    +0.000 OA
ENDROOT
BRANCH   1  20
ATOM     16  C   UNL     1       0.202  11.006  18.857  0.00  0.00    +0.000 C 
ATOM     17  C   UNL     1       0.919   9.718  19.143  0.00  0.00    +0.000 A 
ATOM     18  C   UNL     1       0.871   9.105  20.405  0.00  0.00    +0.000 A 
ATOM     19  C   UNL     1       1.498   7.861  20.640  0.00  0.00    +0.000 A 
ATOM     20  C   UNL     1       2.203   7.192  19.626  0.00  0.00    +0.000 A 
ATOM     21  C   UNL     1       2.285   7.856  18.384  0.00  0.00    +0.000 A 
ATOM     22  C   UNL     1       1.655   9.085  18.141  0.00  0.00    +0.000 A 
ENDBRANCH   1  20
TORSDOF 1
ENDMDL
MODEL 4
REMARK VINA RESULT:      -6.8      6.913      9.968
REMARK  Name = 
REMARK  2 active torsions:
REMARK  status: ('A' for Active; 'I' for Inactive)
REMARK    1  A    between atoms: C_1  and  C_2
REMARK    2  A    between atoms: C_5  and  C_6
REMARK                            x       y       z     vdW  Elec       q    Type
REMARK                         _______ _______ _______ _____ _____    ______ ____
ROOT
ATOM      1  C   UNL     1      -0.614  11.982  18.425  0.00  0.00    +0.000 C 
ATOM      2  C   UNL     1      -0.251  13.431  18.312  0.00  0.00    +0.000 C 
ATOM      3  N   UNL     1      -0.416  13.898  19.732  0.00  0.00    +0.000 NA
ATOM      4  N   UNL     1      -0.475  12.897  20.513  0.00  0.00    +0.000 NA
ATOM      5  C   UNL     1       0.045  11.691  19.860  0.00  0.00    +0.000 C 
ATOM      6  C   UNL     1       1.086  11.119  20.996  0.00  0.00    +0.000 C 
ATOM      7  C   UNL     1       1.088   9.513  21.424  0.00  0.00    +0.000 C 
ATOM      8  C   UNL     1       1.190   8.717  20.145  0.00  0.00    +0.000 A 
ATOM      9  C   UNL     1       1.965   7.594  19.890  0.00  0.00    +0.000 A 
ATOM     10  C   UNL     1       2.594   7.527  18.646  0.00  0.00    +0.000 A 
ATOM     11  C   UNL     1       2.543   8.632  17.802  0.00  0.00    +0.000 A 
ATOM     12  C   UNL     1       1.588   9.631  18.041  0.00  0.00    +0.000 A 
ATOM     13  C   UNL     1       0.700   9.450  19.098  0.00  0.00    +0.000 A 
ATOM     14  C   UNL     1      -0.381  10.320  19.648  0.00  0.00    +0.000 C 
ATOM     15  O   UNL     1      -1.412   9.792  20.077  0.00  0.00    +0.000 OA
ENDROOT
BRANCH   1  20
ATOM     16  C   UNL     1      -6.537  11.161  18.188  0.00  0.00    +0.000 C 
ATOM     17  C   UNL     1      -5.048  11.343  18.260  0.00  0.00    +0.000 A 
ATOM     18  C   UNL     1      -4.184  10.794  17.299  0.00  0.00    +0.000 A 
ATOM     19  C   UNL     1      -2.792  11.029  17.345  0.00  0.00    +0.000 A 
ATOM     20  C   UNL     1      -2.213  11.812  18.357  0.00  0.00    +0.000 A 
ATOM     21  C   UNL     1      -3.096  12.305  19.342  0.00  0.00    +0.000 A 
ATOM     22  C   UNL     1      -4.479  12.085  19.296  0.00  0.00    +0.000 A 
ENDBRANCH   1  20
TORSDOF 1
ENDMDL
MODEL 5
REMARK VINA RESULT:      -6.8      1.705      6.072
REMARK  Name = 
REMARK  2 active torsions:
REMARK  status: ('A' for Active; 'I' for Inactive)
REMARK    1  A    between atoms: C_1  and  C_2
REMARK    2  A    between atoms: C_5  and  C_6
REMARK                            x       y       z     vdW  Elec       q    Type
REMARK                         _______ _______ _______ _____ _____    ______ ____
ROOT
ATOM      1  C   UNL     1       2.768   5.546  17.642  0.00  0.00    +0.000 C 
ATOM      2  C   UNL     1       1.810   6.697  17.580  0.00  0.00    +0.000 C 
ATOM      3  N   UNL     1       2.427   7.659  18.557  0.00  0.00    +0.000 NA
ATOM      4  N   UNL     1       3.623   7.312  18.811  0.00  0.00    +0.000 NA
ATOM      5  C   UNL     1       4.128   6.386  17.791  0.00  0.00    +0.000 C 
ATOM      6  C   UNL     1       5.575   7.065  17.411  0.00  0.00    +0.000 C 
ATOM      7  C   UNL     1       6.953   6.142  17.304  0.00  0.00    +0.000 C 
ATOM      8  C   UNL     1       6.637   4.986  16.385  0.00  0.00    +0.000 A 
ATOM      9  C   UNL     1       7.429   4.445  15.380  0.00  0.00    +0.000 A 
ATOM     10  C   UNL     1       6.788   4.085  14.195  0.00  0.00    +0.000 A 
ATOM     11  C   UNL     1       5.449   4.419  14.020  0.00  0.00    +0.000 A 
ATOM     12  C   UNL     1       4.682   4.775  15.140  0.00  0.00    +0.000 A 
ATOM     13  C   UNL     1       5.292   4.738  16.391  0.00  0.00    +0.000 A 
ATOM     14  C   UNL     1       4.792   5.096  17.750  0.00  0.00    +0.000 C 
ATOM     15  O   UNL     1       5.166   4.426  18.720  0.00  0.00    +0.000 OA
ENDROOT
BRANCH   1  20
ATOM     16  C   UNL     1       1.273   2.146  22.335  0.00  0.00    +0.000 C 
ATOM     17  C   UNL     1       1.623   3.009  21.157  0.00  0.00    +0.000 A 
ATOM     18  C   UNL     1       2.028   4.345  21.308  0.00  0.00    +0.000 A 
ATOM     19  C   UNL     1       2.416   5.124  20.195  0.00  0.00    +0.000 A 
ATOM     20  C   UNL     1       2.405   4.599  18.893  0.00  0.00    +0.000 A 
ATOM     21  C   UNL     1       1.940   3.273  18.761  0.00  0.00    +0.000 A 
ATOM     22  C   UNL     1       1.565   2.491  19.862  0.00  0.00    +0.000 A 
ENDBRANCH   1  20
TORSDOF 1
ENDMDL
MODEL 6
REMARK VINA RESULT:      -6.8      1.759      6.118
REMARK  Name = 
REMARK  2 active torsions:
REMARK  status: ('A' for Active; 'I' for Inactive)
REMARK    1  A    between atoms: C_1  and  C_2
REMARK    2  A    between atoms: C_5  and  C_6
REMARK                            x       y       z     vdW  Elec       q    Type
REMARK                         _______ _______ _______ _____ _____    ______ ____
ROOT
ATOM      1  C   UNL     1       2.647   5.638  17.672  0.00  0.00    +0.000 C 
ATOM      2  C   UNL     1       1.708   6.799  17.543  0.00  0.00    +0.000 C 
ATOM      3  N   UNL     1       2.300   7.779  18.517  0.00  0.00    +0.000 NA
ATOM      4  N   UNL     1       3.481   7.424  18.826  0.00  0.00    +0.000 NA
ATOM      5  C   UNL     1       4.012   6.465  17.851  0.00  0.00    +0.000 C 
ATOM      6  C   UNL     1       5.481   7.115  17.509  0.00  0.00    +0.000 C 
ATOM      7  C   UNL     1       6.850   6.172  17.480  0.00  0.00    +0.000 C 
ATOM      8  C   UNL     1       6.553   4.996  16.581  0.00  0.00    +0.000 A 
ATOM      9  C   UNL     1       7.375   4.418  15.622  0.00  0.00    +0.000 A 
ATOM     10  C   UNL     1       6.776   4.034  14.422  0.00  0.00    +0.000 A 
ATOM     11  C   UNL     1       5.449   4.381  14.188  0.00  0.00    +0.000 A 
ATOM     12  C   UNL     1       4.644   4.777  15.267  0.00  0.00    +0.000 A 
ATOM     13  C   UNL     1       5.205   4.765  16.541  0.00  0.00    +0.000 A 
ATOM     14  C   UNL     1       4.658   5.166  17.870  0.00  0.00    +0.000 C 
ATOM     15  O   UNL     1       4.986   4.518  18.871  0.00  0.00    +0.000 OA
ENDROOT
BRANCH   1  20
ATOM     16  C   UNL     1       1.201   2.135  22.303  0.00  0.00    +0.000 C 
ATOM     17  C   UNL     1       1.588   3.002  21.140  0.00  0.00    +0.000 A 
ATOM     18  C   UNL     1       1.443   2.572  19.811  0.00  0.00    +0.000 A 
ATOM     19  C   UNL     1       1.750   3.424  18.727  0.00  0.00    +0.000 A 
ATOM     20  C   UNL     1       2.223   4.730  18.932  0.00  0.00    +0.000 A 
ATOM     21  C   UNL     1       2.414   5.118  20.276  0.00  0.00    +0.000 A 
ATOM     22  C   UNL     1       2.100   4.282  21.356  0.00  0.00    +0.000 A 
ENDBRANCH   1  20
TORSDOF 1
ENDMDL
MODEL 7
REMARK VINA RESULT:      -6.8      6.947      9.996
REMARK  Name = 
REMARK  2 active torsions:
REMARK  status: ('A' for Active; 'I' for Inactive)
REMARK    1  A    between atoms: C_1  and  C_2
REMARK    2  A    between atoms: C_5  and  C_6
REMARK                            x       y       z     vdW  Elec       q    Type
REMARK                         _______ _______ _______ _____ _____    ______ ____
ROOT
ATOM      1  C   UNL     1      -0.705  11.906  18.440  0.00  0.00    +0.000 C 
ATOM      2  C   UNL     1      -0.385  13.367  18.343  0.00  0.00    +0.000 C 
ATOM      3  N   UNL     1      -0.556  13.810  19.769  0.00  0.00    +0.000 NA
ATOM      4  N   UNL     1      -0.581  12.799  20.538  0.00  0.00    +0.000 NA
ATOM      5  C   UNL     1      -0.030  11.617  19.867  0.00  0.00    +0.000 C 
ATOM      6  C   UNL     1       1.034  11.061  20.991  0.00  0.00    +0.000 C 
ATOM      7  C   UNL     1       1.086   9.451  21.399  0.00  0.00    +0.000 C 
ATOM      8  C   UNL     1       1.204   8.675  20.108  0.00  0.00    +0.000 A 
ATOM      9  C   UNL     1       2.011   7.578  19.835  0.00  0.00    +0.000 A 
ATOM     10  C   UNL     1       2.634   7.546  18.588  0.00  0.00    +0.000 A 
ATOM     11  C   UNL     1       2.546   8.659  17.758  0.00  0.00    +0.000 A 
ATOM     12  C   UNL     1       1.563   9.626  18.015  0.00  0.00    +0.000 A 
ATOM     13  C   UNL     1       0.687   9.406  19.074  0.00  0.00    +0.000 A 
ATOM     14  C   UNL     1      -0.416  10.237  19.640  0.00  0.00    +0.000 C 
ATOM     15  O   UNL     1      -1.429   9.673  20.068  0.00  0.00    +0.000 OA
ENDROOT
BRANCH   1  20
ATOM     16  C   UNL     1      -6.653  11.291  18.194  0.00  0.00    +0.000 C 
ATOM     17  C   UNL     1      -5.162  11.470  18.244  0.00  0.00    +0.000 A 
ATOM     18  C   UNL     1      -4.532  12.182  19.276  0.00  0.00    +0.000 A 
ATOM     19  C   UNL     1      -3.125  12.285  19.344  0.00  0.00    +0.000 A 
ATOM     20  C   UNL     1      -2.299  11.689  18.377  0.00  0.00    +0.000 A 
ATOM     21  C   UNL     1      -2.958  11.028  17.319  0.00  0.00    +0.000 A 
ATOM     22  C   UNL     1      -4.354  10.912  17.252  0.00  0.00    +0.000 A 
ENDBRANCH   1  20
TORSDOF 1
ENDMDL
MODEL 8
REMARK VINA RESULT:      -6.6      2.736      6.239
REMARK  Name = 
REMARK  2 active torsions:
REMARK  status: ('A' for Active; 'I' for Inactive)
REMARK    1  A    between atoms: C_1  and  C_2
REMARK    2  A    between atoms: C_5  and  C_6
REMARK                            x       y       z     vdW  Elec       q    Type
REMARK                         _______ _______ _______ _____ _____    ______ ____
ROOT
ATOM      1  C   UNL     1       2.951   5.880  19.870  0.00  0.00    +0.000 C 
ATOM      2  C   UNL     1       2.110   5.058  20.800  0.00  0.00    +0.000 C 
ATOM      3  N   UNL     1       1.125   4.437  19.849  0.00  0.00    +0.000 NA
ATOM      4  N   UNL     1       1.538   4.561  18.653  0.00  0.00    +0.000 NA
ATOM      5  C   UNL     1       2.972   4.869  18.623  0.00  0.00    +0.000 C 
ATOM      6  C   UNL     1       3.526   3.774  17.530  0.00  0.00    +0.000 C 
ATOM      7  C   UNL     1       4.559   4.228  16.311  0.00  0.00    +0.000 C 
ATOM      8  C   UNL     1       5.702   4.974  16.959  0.00  0.00    +0.000 A 
ATOM      9  C   UNL     1       7.059   4.877  16.682  0.00  0.00    +0.000 A 
ATOM     10  C   UNL     1       7.930   4.887  17.772  0.00  0.00    +0.000 A 
ATOM     11  C   UNL     1       7.404   4.838  19.059  0.00  0.00    +0.000 A 
ATOM     12  C   UNL     1       6.047   5.138  19.255  0.00  0.00    +0.000 A 
ATOM     13  C   UNL     1       5.292   5.515  18.148  0.00  0.00    +0.000 A 
ATOM     14  C   UNL     1       3.845   5.844  17.997  0.00  0.00    +0.000 C 
ATOM     15  O   UNL     1       3.513   6.730  17.201  0.00  0.00    +0.000 OA
ENDROOT
BRANCH   1  20
ATOM     16  C   UNL     1       0.167  11.054  18.730  0.00  0.00    +0.000 C 
ATOM     17  C   UNL     1       0.844   9.742  19.009  0.00  0.00    +0.000 A 
ATOM     18  C   UNL     1       1.461   8.993  17.995  0.00  0.00    +0.000 A 
ATOM     19  C   UNL     1       2.148   7.794  18.285  0.00  0.00    +0.000 A 
ATOM     20  C   UNL     1       2.235   7.296  19.595  0.00  0.00    +0.000 A 
ATOM     21  C   UNL     1       1.558   8.037  20.587  0.00  0.00    +0.000 A 
ATOM     22  C   UNL     1       0.884   9.234  20.309  0.00  0.00    +0.000 A 
ENDBRANCH   1  20
TORSDOF 1
ENDMDL
MODEL 9
REMARK VINA RESULT:      -6.3      9.790     11.589
REMARK  Name = 
REMARK  2 active torsions:
REMARK  status: ('A' for Active; 'I' for Inactive)
REMARK    1  A    between atoms: C_1  and  C_2
REMARK    2  A    between atoms: C_5  and  C_6
REMARK                            x       y       z     vdW  Elec       q    Type
REMARK                         _______ _______ _______ _____ _____    ______ ____
ROOT
ATOM      1  C   UNL     1      11.060  14.011  19.744  0.00  0.00    +0.000 C 
ATOM      2  C   UNL     1      12.306  14.232  18.942  0.00  0.00    +0.000 C 
ATOM      3  N   UNL     1      11.757  14.875  17.699  0.00  0.00    +0.000 NA
ATOM      4  N   UNL     1      10.567  15.272  17.905  0.00  0.00    +0.000 NA
ATOM      5  C   UNL     1      10.284  15.358  19.342  0.00  0.00    +0.000 C 
ATOM      6  C   UNL     1       9.630  16.860  19.464  0.00  0.00    +0.000 C 
ATOM      7  C   UNL     1       8.235  17.119  20.328  0.00  0.00    +0.000 C 
ATOM      8  C   UNL     1       8.443  16.505  21.692  0.00  0.00    +0.000 A 
ATOM      9  C   UNL     1       8.091  17.023  22.931  0.00  0.00    +0.000 A 
ATOM     10  C   UNL     1       9.007  16.859  23.970  0.00  0.00    +0.000 A 
ATOM     11  C   UNL     1      10.264  16.334  23.686  0.00  0.00    +0.000 A 
ATOM     12  C   UNL     1      10.466  15.659  22.473  0.00  0.00    +0.000 A 
ATOM     13  C   UNL     1       9.377  15.508  21.618  0.00  0.00    +0.000 A 
ATOM     14  C   UNL     1       9.258  14.902  20.260  0.00  0.00    +0.000 C 
ATOM     15  O   UNL     1       8.225  14.288  19.969  0.00  0.00    +0.000 OA
ENDROOT
BRANCH   1  20
ATOM     16  C   UNL     1       8.280   8.953  18.159  0.00  0.00    +0.000 C 
ATOM     17  C   UNL     1       8.955  10.231  18.568  0.00  0.00    +0.000 A 
ATOM     18  C   UNL     1       9.509  10.403  19.846  0.00  0.00    +0.000 A 
ATOM     19  C   UNL     1      10.197  11.587  20.194  0.00  0.00    +0.000 A 
ATOM     20  C   UNL     1      10.347  12.643  19.281  0.00  0.00    +0.000 A 
ATOM     21  C   UNL     1       9.732  12.469  18.022  0.00  0.00    +0.000 A 
ATOM     22  C   UNL     1       9.058  11.292  17.667  0.00  0.00    +0.000 A 
ENDBRANCH   1  20
TORSDOF 1
ENDMDL
