MODEL 1
REMARK VINA RESULT:      -6.7      0.000      0.000
REMARK  Name = 
REMARK  7 active torsions:
REMARK  status: ('A' for Active; 'I' for Inactive)
REMARK    1  A    between atoms: C_1  and  O_2
REMARK    2  A    between atoms: O_2  and  C_3
REMARK    3  A    between atoms: C_7  and  C_8
REMARK    4  A    between atoms: N_12  and  C_13
REMARK    5  A    between atoms: N_12  and  C_14
REMARK    6  A    between atoms: C_14  and  C_15
REMARK    7  A    between atoms: C_15  and  O_16
REMARK                            x       y       z     vdW  Elec       q    Type
REMARK                         _______ _______ _______ _____ _____    ______ ____
ROOT
ATOM      1  C   UNL     1       2.340   7.448  18.554  0.00  0.00    +0.000 A 
ATOM      2  C   UNL     1       1.870   8.512  17.798  0.00  0.00    +0.000 A 
ATOM      3  C   UNL     1       1.158   9.543  18.406  0.00  0.00    +0.000 A 
ATOM      4  C   UNL     1       0.941   9.534  19.772  0.00  0.00    +0.000 A 
ATOM      5  N   UNL     1       0.382  10.636  20.400  0.00  0.00    +0.000 N 
ATOM      6  C   UNL     1      -0.746  11.339  19.808  0.00  0.00    +0.000 C 
ATOM      7  N   UNL     1       1.411   8.486  20.482  0.00  0.00    +0.000 NA
ATOM      8  N   UNL     1       2.102   7.437  19.880  0.00  0.00    +0.000 NA
ENDROOT
BRANCH   1  13
ATOM      9  C   UNL     1       3.400   3.985  17.371  0.00  0.00    +0.000 A 
ATOM     10  C   UNL     1       4.630   4.271  16.776  0.00  0.00    +0.000 A 
ATOM     11  C   UNL     1       5.141   5.570  16.803  0.00  0.00    +0.000 A 
ATOM     12  C   UNL     1       4.407   6.599  17.403  0.00  0.00    +0.000 A 
ATOM     13  C   UNL     1       3.154   6.354  17.997  0.00  0.00    +0.000 A 
ATOM     14  C   UNL     1       2.695   5.023  17.991  0.00  0.00    +0.000 A 
ATOM     15  F   UNL     1       1.542   4.744  18.621  0.00  0.00    +0.000 F 
BRANCH   9  17
ATOM     16  C   UNL     1       3.316   1.820  18.359  0.00  0.00    +0.000 C 
ATOM     17  O   UNL     1       3.007   2.678  17.268  0.00  0.00    +0.000 OA
ENDBRANCH   9  17
ENDBRANCH   1  13
BRANCH   5  18
ATOM     18  C   UNL     1       0.577  10.764  21.852  0.00  0.00    +0.000 C 
BRANCH  18  19
ATOM     19  C   UNL     1      -0.722  10.412  22.598  0.00  0.00    +0.000 C 
BRANCH  19  20
ATOM     20  O   UNL     1      -0.739   9.018  22.923  0.00  0.00    +0.000 OA
ATOM     21  H   UNL     1      -1.441   8.646  22.355  0.00  0.00    +0.000 HD
ENDBRANCH  19  20
ENDBRANCH  18  19
ENDBRANCH   5  18
TORSDOF 5
ENDMDL
MODEL 2
REMARK VINA RESULT:      -6.6      1.569      2.138
REMARK  Name = 
REMARK  7 active torsions:
REMARK  status: ('A' for Active; 'I' for Inactive)
REMARK    1  A    between atoms: C_1  and  O_2
REMARK    2  A    between atoms: O_2  and  C_3
REMARK    3  A    between atoms: C_7  and  C_8
REMARK    4  A    between atoms: N_12  and  C_13
REMARK    5  A    between atoms: N_12  and  C_14
REMARK    6  A    between atoms: C_14  and  C_15
REMARK    7  A    between atoms: C_15  and  O_16
REMARK                            x       y       z     vdW  Elec       q    Type
REMARK                         _______ _______ _______ _____ _____    ______ ____
ROOT
ATOM      1  C   UNL     1       2.433   7.104  18.477  0.00  0.00    +0.000 A 
ATOM      2  C   UNL     1       2.060   8.226  17.753  0.00  0.00    +0.000 A 
ATOM      3  C   UNL     1       1.418   9.287  18.387  0.00  0.00    +0.000 A 
ATOM      4  C   UNL     1       1.176   9.248  19.748  0.00  0.00    +0.000 A 
ATOM      5  N   UNL     1       0.692  10.368  20.406  0.00  0.00    +0.000 N 
ATOM      6  C   UNL     1      -0.368  11.175  19.822  0.00  0.00    +0.000 C 
ATOM      7  N   UNL     1       1.553   8.143  20.427  0.00  0.00    +0.000 NA
ATOM      8  N   UNL     1       2.172   7.066  19.799  0.00  0.00    +0.000 NA
ENDROOT
BRANCH   1  13
ATOM      9  C   UNL     1       5.269   5.004  17.039  0.00  0.00    +0.000 A 
ATOM     10  C   UNL     1       4.652   3.756  16.940  0.00  0.00    +0.000 A 
ATOM     11  C   UNL     1       3.309   3.603  17.286  0.00  0.00    +0.000 A 
ATOM     12  C   UNL     1       2.580   4.699  17.763  0.00  0.00    +0.000 A 
ATOM     13  C   UNL     1       3.171   5.970  17.895  0.00  0.00    +0.000 A 
ATOM     14  C   UNL     1       4.514   6.093  17.491  0.00  0.00    +0.000 A 
ATOM     15  F   UNL     1       5.082   7.310  17.531  0.00  0.00    +0.000 F 
BRANCH   9  17
ATOM     16  C   UNL     1       7.540   4.705  17.688  0.00  0.00    +0.000 C 
ATOM     17  O   UNL     1       6.589   5.019  16.679  0.00  0.00    +0.000 OA
ENDBRANCH   9  17
ENDBRANCH   1  13
BRANCH   5  18
ATOM     18  C   UNL     1       0.870  10.430  21.864  0.00  0.00    +0.000 C 
BRANCH  18  19
ATOM     19  C   UNL     1      -0.477  10.217  22.576  0.00  0.00    +0.000 C 
BRANCH  19  20
ATOM     20  O   UNL     1      -0.720   8.818  22.756  0.00  0.00    +0.000 OA
ATOM     21  H   UNL     1      -0.065   8.382  22.177  0.00  0.00    +0.000 HD
ENDBRANCH  19  20
ENDBRANCH  18  19
ENDBRANCH   5  18
TORSDOF 5
ENDMDL
MODEL 3
REMARK VINA RESULT:      -6.5      2.251      2.981
REMARK  Name = 
REMARK  7 active torsions:
REMARK  status: ('A' for Active; 'I' for Inactive)
REMARK    1  A    between atoms: C_1  and  O_2
REMARK    2  A    between atoms: O_2  and  C_3
REMARK    3  A    between atoms: C_7  and  C_8
REMARK    4  A    between atoms: N_12  and  C_13
REMARK    5  A    between atoms: N_12  and  C_14
REMARK    6  A    between atoms: C_14  and  C_15
REMARK    7  A    between atoms: C_15  and  O_16
REMARK                            x       y       z     vdW  Elec       q    Type
REMARK                         _______ _______ _______ _____ _____    ______ ____
ROOT
ATOM      1  C   UNL     1       2.496   7.203  18.530  0.00  0.00    +0.000 A 
ATOM      2  C   UNL     1       2.109   7.278  19.859  0.00  0.00    +0.000 A 
ATOM      3  C   UNL     1       1.453   8.411  20.334  0.00  0.00    +0.000 A 
ATOM      4  C   UNL     1       1.151   9.456  19.480  0.00  0.00    +0.000 A 
ATOM      5  N   UNL     1       0.355  10.506  19.912  0.00  0.00    +0.000 N 
ATOM      6  C   UNL     1       0.542  11.091  21.230  0.00  0.00    +0.000 C 
ATOM      7  N   UNL     1       1.539   9.353  18.191  0.00  0.00    +0.000 NA
ATOM      8  N   UNL     1       2.218   8.237  17.712  0.00  0.00    +0.000 NA
ENDROOT
BRANCH   1  13
ATOM      9  C   UNL     1       5.131   4.903  17.018  0.00  0.00    +0.000 A 
ATOM     10  C   UNL     1       4.429   3.698  16.956  0.00  0.00    +0.000 A 
ATOM     11  C   UNL     1       3.092   3.639  17.352  0.00  0.00    +0.000 A 
ATOM     12  C   UNL     1       2.455   4.786  17.840  0.00  0.00    +0.000 A 
ATOM     13  C   UNL     1       3.135   6.016  17.936  0.00  0.00    +0.000 A 
ATOM     14  C   UNL     1       4.468   6.044  17.483  0.00  0.00    +0.000 A 
ATOM     15  F   UNL     1       5.116   7.221  17.487  0.00  0.00    +0.000 F 
BRANCH   9  17
ATOM     16  C   UNL     1       7.422   4.666  17.622  0.00  0.00    +0.000 C 
ATOM     17  O   UNL     1       6.435   4.825  16.611  0.00  0.00    +0.000 OA
ENDBRANCH   9  17
ENDBRANCH   1  13
BRANCH   5  18
ATOM     18  C   UNL     1      -0.293  11.335  18.884  0.00  0.00    +0.000 C 
BRANCH  18  19
ATOM     19  C   UNL     1      -1.571  10.648  18.372  0.00  0.00    +0.000 C 
BRANCH  19  20
ATOM     20  O   UNL     1      -1.343  10.097  17.071  0.00  0.00    +0.000 OA
ATOM     21  H   UNL     1      -0.401   9.836  17.080  0.00  0.00    +0.000 HD
ENDBRANCH  19  20
ENDBRANCH  18  19
ENDBRANCH   5  18
TORSDOF 5
ENDMDL
MODEL 4
REMARK VINA RESULT:      -6.5      1.822      2.258
REMARK  Name = 
REMARK  7 active torsions:
REMARK  status: ('A' for Active; 'I' for Inactive)
REMARK    1  A    between atoms: C_1  and  O_2
REMARK    2  A    between atoms: O_2  and  C_3
REMARK    3  A    between atoms: C_7  and  C_8
REMARK    4  A    between atoms: N_12  and  C_13
REMARK    5  A    between atoms: N_12  and  C_14
REMARK    6  A    between atoms: C_14  and  C_15
REMARK    7  A    between atoms: C_15  and  O_16
REMARK                            x       y       z     vdW  Elec       q    Type
REMARK                         _______ _______ _______ _____ _____    ______ ____
ROOT
ATOM      1  C   UNL     1       2.437   7.360  18.552  0.00  0.00    +0.000 A 
ATOM      2  C   UNL     1       2.147   7.465  19.903  0.00  0.00    +0.000 A 
ATOM      3  C   UNL     1       1.384   8.531  20.374  0.00  0.00    +0.000 A 
ATOM      4  C   UNL     1       0.880   9.474  19.497  0.00  0.00    +0.000 A 
ATOM      5  N   UNL     1      -0.015  10.436  19.941  0.00  0.00    +0.000 N 
ATOM      6  C   UNL     1       0.194  11.120  21.208  0.00  0.00    +0.000 C 
ATOM      7  N   UNL     1       1.178   9.344  18.187  0.00  0.00    +0.000 NA
ATOM      8  N   UNL     1       1.962   8.298  17.709  0.00  0.00    +0.000 NA
ENDROOT
BRANCH   1  13
ATOM      9  C   UNL     1       3.327   3.842  17.389  0.00  0.00    +0.000 A 
ATOM     10  C   UNL     1       4.514   4.083  16.696  0.00  0.00    +0.000 A 
ATOM     11  C   UNL     1       5.055   5.369  16.648  0.00  0.00    +0.000 A 
ATOM     12  C   UNL     1       4.392   6.431  17.273  0.00  0.00    +0.000 A 
ATOM     13  C   UNL     1       3.182   6.232  17.967  0.00  0.00    +0.000 A 
ATOM     14  C   UNL     1       2.694   4.912  18.032  0.00  0.00    +0.000 A 
ATOM     15  F   UNL     1       1.586   4.679  18.754  0.00  0.00    +0.000 F 
BRANCH   9  17
ATOM     16  C   UNL     1       3.226   1.720  18.464  0.00  0.00    +0.000 C 
ATOM     17  O   UNL     1       2.898   2.543  17.352  0.00  0.00    +0.000 OA
ENDBRANCH   9  17
ENDBRANCH   1  13
BRANCH   5  18
ATOM     18  C   UNL     1      -0.844  11.111  18.931  0.00  0.00    +0.000 C 
BRANCH  18  19
ATOM     19  C   UNL     1      -0.357  12.555  18.720  0.00  0.00    +0.000 C 
BRANCH  19  20
ATOM     20  O   UNL     1      -0.942  13.101  17.533  0.00  0.00    +0.000 OA
ATOM     21  H   UNL     1      -1.904  13.081  17.706  0.00  0.00    +0.000 HD
ENDBRANCH  19  20
ENDBRANCH  18  19
ENDBRANCH   5  18
TORSDOF 5
ENDMDL
MODEL 5
REMARK VINA RESULT:      -6.4      2.357      3.077
REMARK  Name = 
REMARK  7 active torsions:
REMARK  status: ('A' for Active; 'I' for Inactive)
REMARK    1  A    between atoms: C_1  and  O_2
REMARK    2  A    between atoms: O_2  and  C_3
REMARK    3  A    between atoms: C_7  and  C_8
REMARK    4  A    between atoms: N_12  and  C_13
REMARK    5  A    between atoms: N_12  and  C_14
REMARK    6  A    between atoms: C_14  and  C_15
REMARK    7  A    between atoms: C_15  and  O_16
REMARK                            x       y       z     vdW  Elec       q    Type
REMARK                         _______ _______ _______ _____ _____    ______ ____
ROOT
ATOM      1  C   UNL     1       2.527   7.174  18.505  0.00  0.00    +0.000 A 
ATOM      2  C   UNL     1       2.158   7.270  19.838  0.00  0.00    +0.000 A 
ATOM      3  C   UNL     1       1.508   8.411  20.303  0.00  0.00    +0.000 A 
ATOM      4  C   UNL     1       1.194   9.442  19.436  0.00  0.00    +0.000 A 
ATOM      5  N   UNL     1       0.403  10.498  19.860  0.00  0.00    +0.000 N 
ATOM      6  C   UNL     1       0.607  11.105  21.167  0.00  0.00    +0.000 C 
ATOM      7  N   UNL     1       1.565   9.319  18.144  0.00  0.00    +0.000 NA
ATOM      8  N   UNL     1       2.239   8.194  17.674  0.00  0.00    +0.000 NA
ENDROOT
BRANCH   1  13
ATOM      9  C   UNL     1       5.155   4.835  17.041  0.00  0.00    +0.000 A 
ATOM     10  C   UNL     1       4.436   3.640  16.965  0.00  0.00    +0.000 A 
ATOM     11  C   UNL     1       3.091   3.602  17.336  0.00  0.00    +0.000 A 
ATOM     12  C   UNL     1       2.463   4.758  17.813  0.00  0.00    +0.000 A 
ATOM     13  C   UNL     1       3.159   5.977  17.922  0.00  0.00    +0.000 A 
ATOM     14  C   UNL     1       4.500   5.986  17.494  0.00  0.00    +0.000 A 
ATOM     15  F   UNL     1       5.166   7.152  17.511  0.00  0.00    +0.000 F 
BRANCH   9  17
ATOM     16  C   UNL     1       7.442   4.708  17.690  0.00  0.00    +0.000 C 
ATOM     17  O   UNL     1       6.465   4.737  16.658  0.00  0.00    +0.000 OA
ENDBRANCH   9  17
ENDBRANCH   1  13
BRANCH   5  18
ATOM     18  C   UNL     1      -0.258  11.311  18.828  0.00  0.00    +0.000 C 
BRANCH  18  19
ATOM     19  C   UNL     1       0.440  12.675  18.695  0.00  0.00    +0.000 C 
BRANCH  19  20
ATOM     20  O   UNL     1       1.602  12.552  17.867  0.00  0.00    +0.000 OA
ATOM     21  H   UNL     1       2.310  12.991  18.378  0.00  0.00    +0.000 HD
ENDBRANCH  19  20
ENDBRANCH  18  19
ENDBRANCH   5  18
TORSDOF 5
ENDMDL
MODEL 6
REMARK VINA RESULT:      -6.1      1.795      2.343
REMARK  Name = 
REMARK  7 active torsions:
REMARK  status: ('A' for Active; 'I' for Inactive)
REMARK    1  A    between atoms: C_1  and  O_2
REMARK    2  A    between atoms: O_2  and  C_3
REMARK    3  A    between atoms: C_7  and  C_8
REMARK    4  A    between atoms: N_12  and  C_13
REMARK    5  A    between atoms: N_12  and  C_14
REMARK    6  A    between atoms: C_14  and  C_15
REMARK    7  A    between atoms: C_15  and  O_16
REMARK                            x       y       z     vdW  Elec       q    Type
REMARK                         _______ _______ _______ _____ _____    ______ ____
ROOT
ATOM      1  C   UNL     1       2.376   7.130  18.379  0.00  0.00    +0.000 A 
ATOM      2  C   UNL     1       2.139   8.181  17.505  0.00  0.00    +0.000 A 
ATOM      3  C   UNL     1       1.553   9.357  17.968  0.00  0.00    +0.000 A 
ATOM      4  C   UNL     1       1.233   9.501  19.306  0.00  0.00    +0.000 A 
ATOM      5  N   UNL     1       0.807  10.727  19.796  0.00  0.00    +0.000 N 
ATOM      6  C   UNL     1      -0.147  11.535  19.054  0.00  0.00    +0.000 C 
ATOM      7  N   UNL     1       1.478   8.462  20.132  0.00  0.00    +0.000 NA
ATOM      8  N   UNL     1       2.039   7.272  19.675  0.00  0.00    +0.000 NA
ENDROOT
BRANCH   1  13
ATOM      9  C   UNL     1       5.115   4.637  17.482  0.00  0.00    +0.000 A 
ATOM     10  C   UNL     1       4.378   3.454  17.392  0.00  0.00    +0.000 A 
ATOM     11  C   UNL     1       2.994   3.469  17.568  0.00  0.00    +0.000 A 
ATOM     12  C   UNL     1       2.339   4.670  17.865  0.00  0.00    +0.000 A 
ATOM     13  C   UNL     1       3.049   5.881  17.982  0.00  0.00    +0.000 A 
ATOM     14  C   UNL     1       4.437   5.831  17.751  0.00  0.00    +0.000 A 
ATOM     15  F   UNL     1       5.128   6.983  17.777  0.00  0.00    +0.000 F 
BRANCH   9  17
ATOM     16  C   UNL     1       6.955   4.615  15.972  0.00  0.00    +0.000 C 
ATOM     17  O   UNL     1       6.462   4.486  17.299  0.00  0.00    +0.000 OA
ENDBRANCH   9  17
ENDBRANCH   1  13
BRANCH   5  18
ATOM     18  C   UNL     1       0.908  10.952  21.246  0.00  0.00    +0.000 C 
BRANCH  18  19
ATOM     19  C   UNL     1      -0.324  11.719  21.753  0.00  0.00    +0.000 C 
BRANCH  19  20
ATOM     20  O   UNL     1       0.065  13.011  22.232  0.00  0.00    +0.000 OA
ATOM     21  H   UNL     1      -0.060  13.601  21.463  0.00  0.00    +0.000 HD
ENDBRANCH  19  20
ENDBRANCH  18  19
ENDBRANCH   5  18
TORSDOF 5
ENDMDL
MODEL 7
REMARK VINA RESULT:      -6.1      2.343      7.309
REMARK  Name = 
REMARK  7 active torsions:
REMARK  status: ('A' for Active; 'I' for Inactive)
REMARK    1  A    between atoms: C_1  and  O_2
REMARK    2  A    between atoms: O_2  and  C_3
REMARK    3  A    between atoms: C_7  and  C_8
REMARK    4  A    between atoms: N_12  and  C_13
REMARK    5  A    between atoms: N_12  and  C_14
REMARK    6  A    between atoms: C_14  and  C_15
REMARK    7  A    between atoms: C_15  and  O_16
REMARK                            x       y       z     vdW  Elec       q    Type
REMARK                         _______ _______ _______ _____ _____    ______ ____
ROOT
ATOM      1  C   UNL     1       2.152   7.682  19.111  0.00  0.00    +0.000 A 
ATOM      2  C   UNL     1       2.191   6.556  19.918  0.00  0.00    +0.000 A 
ATOM      3  C   UNL     1       2.996   5.473  19.571  0.00  0.00    +0.000 A 
ATOM      4  C   UNL     1       3.788   5.523  18.439  0.00  0.00    +0.000 A 
ATOM      5  N   UNL     1       4.711   4.520  18.184  0.00  0.00    +0.000 N 
ATOM      6  C   UNL     1       4.366   3.121  18.385  0.00  0.00    +0.000 C 
ATOM      7  N   UNL     1       3.730   6.634  17.673  0.00  0.00    +0.000 NA
ATOM      8  N   UNL     1       2.909   7.711  17.997  0.00  0.00    +0.000 NA
ENDROOT
BRANCH   1  13
ATOM      9  C   UNL     1       0.475  10.455  21.115  0.00  0.00    +0.000 A 
ATOM     10  C   UNL     1       0.044  11.300  20.091  0.00  0.00    +0.000 A 
ATOM     11  C   UNL     1       0.247  10.951  18.756  0.00  0.00    +0.000 A 
ATOM     12  C   UNL     1       0.911   9.761  18.436  0.00  0.00    +0.000 A 
ATOM     13  C   UNL     1       1.378   8.891  19.440  0.00  0.00    +0.000 A 
ATOM     14  C   UNL     1       1.112   9.256  20.774  0.00  0.00    +0.000 A 
ATOM     15  F   UNL     1       1.474   8.407  21.750  0.00  0.00    +0.000 F 
BRANCH   9  17
ATOM     16  C   UNL     1      -0.857  10.322  23.084  0.00  0.00    +0.000 C 
ATOM     17  O   UNL     1       0.225  10.916  22.379  0.00  0.00    +0.000 OA
ENDBRANCH   9  17
ENDBRANCH   1  13
BRANCH   5  18
ATOM     18  C   UNL     1       5.806   4.824  17.251  0.00  0.00    +0.000 C 
BRANCH  18  19
ATOM     19  C   UNL     1       7.148   4.877  18.002  0.00  0.00    +0.000 C 
BRANCH  19  20
ATOM     20  O   UNL     1       8.130   4.102  17.308  0.00  0.00    +0.000 OA
ATOM     21  H   UNL     1       8.747   3.810  18.007  0.00  0.00    +0.000 HD
ENDBRANCH  19  20
ENDBRANCH  18  19
ENDBRANCH   5  18
TORSDOF 5
ENDMDL
MODEL 8
REMARK VINA RESULT:      -6.1      1.891      7.079
REMARK  Name = 
REMARK  7 active torsions:
REMARK  status: ('A' for Active; 'I' for Inactive)
REMARK    1  A    between atoms: C_1  and  O_2
REMARK    2  A    between atoms: O_2  and  C_3
REMARK    3  A    between atoms: C_7  and  C_8
REMARK    4  A    between atoms: N_12  and  C_13
REMARK    5  A    between atoms: N_12  and  C_14
REMARK    6  A    between atoms: C_14  and  C_15
REMARK    7  A    between atoms: C_15  and  O_16
REMARK                            x       y       z     vdW  Elec       q    Type
REMARK                         _______ _______ _______ _____ _____    ______ ____
ROOT
ATOM      1  C   UNL     1       2.215   7.927  19.041  0.00  0.00    +0.000 A 
ATOM      2  C   UNL     1       2.983   7.896  17.887  0.00  0.00    +0.000 A 
ATOM      3  C   UNL     1       3.808   6.804  17.625  0.00  0.00    +0.000 A 
ATOM      4  C   UNL     1       3.844   5.728  18.493  0.00  0.00    +0.000 A 
ATOM      5  N   UNL     1       4.533   4.575  18.151  0.00  0.00    +0.000 N 
ATOM      6  C   UNL     1       5.846   4.647  17.528  0.00  0.00    +0.000 C 
ATOM      7  N   UNL     1       3.084   5.787  19.608  0.00  0.00    +0.000 NA
ATOM      8  N   UNL     1       2.276   6.885  19.893  0.00  0.00    +0.000 NA
ENDROOT
BRANCH   1  13
ATOM      9  C   UNL     1       0.262  10.549  20.998  0.00  0.00    +0.000 A 
ATOM     10  C   UNL     1      -0.403  11.212  19.964  0.00  0.00    +0.000 A 
ATOM     11  C   UNL     1      -0.263  10.781  18.645  0.00  0.00    +0.000 A 
ATOM     12  C   UNL     1       0.569   9.696  18.347  0.00  0.00    +0.000 A 
ATOM     13  C   UNL     1       1.272   9.013  19.359  0.00  0.00    +0.000 A 
ATOM     14  C   UNL     1       1.067   9.449  20.682  0.00  0.00    +0.000 A 
ATOM     15  F   UNL     1       1.661   8.767  21.675  0.00  0.00    +0.000 F 
BRANCH   9  17
ATOM     16  C   UNL     1      -0.880  10.402  23.082  0.00  0.00    +0.000 C 
ATOM     17  O   UNL     1       0.049  11.076  22.243  0.00  0.00    +0.000 OA
ENDBRANCH   9  17
ENDBRANCH   1  13
BRANCH   5  18
ATOM     18  C   UNL     1       4.186   3.338  18.867  0.00  0.00    +0.000 C 
BRANCH  18  19
ATOM     19  C   UNL     1       3.225   2.484  18.021  0.00  0.00    +0.000 C 
BRANCH  19  20
ATOM     20  O   UNL     1       3.388   1.099  18.343  0.00  0.00    +0.000 OA
ATOM     21  H   UNL     1       3.190   1.048  19.298  0.00  0.00    +0.000 HD
ENDBRANCH  19  20
ENDBRANCH  18  19
ENDBRANCH   5  18
TORSDOF 5
ENDMDL
MODEL 9
REMARK VINA RESULT:      -6.0      1.321      1.354
REMARK  Name = 
REMARK  7 active torsions:
REMARK  status: ('A' for Active; 'I' for Inactive)
REMARK    1  A    between atoms: C_1  and  O_2
REMARK    2  A    between atoms: O_2  and  C_3
REMARK    3  A    between atoms: C_7  and  C_8
REMARK    4  A    between atoms: N_12  and  C_13
REMARK    5  A    between atoms: N_12  and  C_14
REMARK    6  A    between atoms: C_14  and  C_15
REMARK    7  A    between atoms: C_15  and  O_16
REMARK                            x       y       z     vdW  Elec       q    Type
REMARK                         _______ _______ _______ _____ _____    ______ ____
ROOT
ATOM      1  C   UNL     1       2.290   7.722  18.574  0.00  0.00    +0.000 A 
ATOM      2  C   UNL     1       1.788   8.687  17.715  0.00  0.00    +0.000 A 
ATOM      3  C   UNL     1       0.967   9.701  18.204  0.00  0.00    +0.000 A 
ATOM      4  C   UNL     1       0.672   9.774  19.554  0.00  0.00    +0.000 A 
ATOM      5  N   UNL     1      -0.003  10.871  20.065  0.00  0.00    +0.000 N 
ATOM      6  C   UNL     1      -1.144  11.438  19.362  0.00  0.00    +0.000 C 
ATOM      7  N   UNL     1       1.177   8.820  20.365  0.00  0.00    +0.000 NA
ATOM      8  N   UNL     1       1.977   7.788  19.883  0.00  0.00    +0.000 NA
ENDROOT
BRANCH   1  13
ATOM      9  C   UNL     1       3.815   4.271  18.037  0.00  0.00    +0.000 A 
ATOM     10  C   UNL     1       4.881   4.580  17.190  0.00  0.00    +0.000 A 
ATOM     11  C   UNL     1       5.139   5.905  16.835  0.00  0.00    +0.000 A 
ATOM     12  C   UNL     1       4.311   6.930  17.306  0.00  0.00    +0.000 A 
ATOM     13  C   UNL     1       3.215   6.657  18.147  0.00  0.00    +0.000 A 
ATOM     14  C   UNL     1       3.016   5.314  18.519  0.00  0.00    +0.000 A 
ATOM     15  F   UNL     1       2.027   5.034  19.384  0.00  0.00    +0.000 F 
BRANCH   9  17
ATOM     16  C   UNL     1       2.610   2.259  17.628  0.00  0.00    +0.000 C 
ATOM     17  O   UNL     1       3.663   2.937  18.300  0.00  0.00    +0.000 OA
ENDBRANCH   9  17
ENDBRANCH   1  13
BRANCH   5  18
ATOM     18  C   UNL     1       0.097  11.119  21.511  0.00  0.00    +0.000 C 
BRANCH  18  19
ATOM     19  C   UNL     1      -0.176  12.601  21.818  0.00  0.00    +0.000 C 
BRANCH  19  20
ATOM     20  O   UNL     1       1.028  13.362  21.676  0.00  0.00    +0.000 OA
ATOM     21  H   UNL     1       1.634  12.766  21.194  0.00  0.00    +0.000 HD
ENDBRANCH  19  20
ENDBRANCH  18  19
ENDBRANCH   5  18
TORSDOF 5
ENDMDL
