MODEL 1
REMARK VINA RESULT:      -8.3      0.000      0.000
REMARK  Name = 
REMARK  7 active torsions:
REMARK  status: ('A' for Active; 'I' for Inactive)
REMARK    1  A    between atoms: C_1  and  C_2
REMARK    2  A    between atoms: C_5  and  C_6
REMARK    3  A    between atoms: N_13  and  C_14
REMARK    4  A    between atoms: C_14  and  C_15
REMARK    5  A    between atoms: C_15  and  C_16
REMARK    6  A    between atoms: C_16  and  N_17
REMARK    7  A    between atoms: C_18  and  C_19
REMARK                            x       y       z     vdW  Elec       q    Type
REMARK                         _______ _______ _______ _____ _____    ______ ____
ROOT
ATOM      1  C   UNL     1       3.191   5.783  18.694  0.00  0.00    +0.000 A 
ATOM      2  C   UNL     1       2.912   4.840  19.660  0.00  0.00    +0.000 A 
ATOM      3  S   UNL     1       1.834   5.479  20.806  0.00  0.00    +0.000 S 
ATOM      4  C   UNL     1       1.836   7.002  19.971  0.00  0.00    +0.000 A 
ATOM      5  N   UNL     1       1.112   8.068  20.407  0.00  0.00    +0.000 N 
ATOM      6  C   UNL     1       0.800   8.257  21.824  0.00  0.00    +0.000 C 
ATOM      7  C   UNL     1       1.371   9.600  22.319  0.00  0.00    +0.000 C 
ATOM      8  N   UNL     1       0.917  10.772  21.532  0.00  0.00    +0.000 NA
ATOM      9  C   UNL     1       1.346  10.540  20.129  0.00  0.00    +0.000 C 
ATOM     10  C   UNL     1       0.865   9.204  19.510  0.00  0.00    +0.000 C 
ATOM     11  N   UNL     1       2.569   7.007  18.878  0.00  0.00    +0.000 NA
ENDROOT
BRANCH   1  16
ATOM     12  C   UNL     1       6.882   4.808  14.364  0.00  0.00    +0.000 C 
ATOM     13  C   UNL     1       5.909   5.058  15.477  0.00  0.00    +0.000 A 
ATOM     14  C   UNL     1       5.217   3.997  16.066  0.00  0.00    +0.000 A 
ATOM     15  C   UNL     1       4.313   4.235  17.104  0.00  0.00    +0.000 A 
ATOM     16  C   UNL     1       4.092   5.536  17.579  0.00  0.00    +0.000 A 
ATOM     17  C   UNL     1       4.772   6.599  16.975  0.00  0.00    +0.000 A 
ATOM     18  C   UNL     1       5.677   6.361  15.935  0.00  0.00    +0.000 A 
ENDBRANCH   1  16
BRANCH   8  19
ATOM     19  C   UNL     1      -0.538  10.969  21.613  0.00  0.00    +0.000 C 
BRANCH  19  20
ATOM     20  C   UNL     1      -0.902  12.438  21.832  0.00  0.00    +0.000 C 
BRANCH  20  21
ATOM     21  C   UNL     1      -1.179  13.124  20.496  0.00  0.00    +0.000 C 
BRANCH  21  22
ATOM     22  N   UNL     1      -2.452  12.725  19.930  0.00  0.00    +0.000 N 
ATOM     23  C   UNL     1      -3.720  12.989  20.427  0.00  0.00    +0.000 A 
ATOM     24  N   UNL     1      -4.616  12.346  19.688  0.00  0.00    +0.000 NA
ATOM     25  C   UNL     1      -3.925  11.674  18.710  0.00  0.00    +0.000 A 
ATOM     26  C   UNL     1      -4.393  10.833  17.687  0.00  0.00    +0.000 A 
ATOM     27  C   UNL     1      -3.469  10.243  16.813  0.00  0.00    +0.000 A 
ATOM     28  C   UNL     1      -2.103  10.488  16.949  0.00  0.00    +0.000 A 
ATOM     29  C   UNL     1      -1.619  11.323  17.962  0.00  0.00    +0.000 A 
ATOM     30  C   UNL     1      -2.561  11.899  18.829  0.00  0.00    +0.000 A 
BRANCH  23  31
ATOM     31  C   UNL     1      -4.067  13.782  21.627  0.00  0.00    +0.000 A 
ATOM     32  C   UNL     1      -4.016  15.180  21.693  0.00  0.00    +0.000 A 
ATOM     33  C   UNL     1      -4.335  15.832  22.872  0.00  0.00    +0.000 A 
ATOM     34  N   UNL     1      -4.725  15.198  23.991  0.00  0.00    +0.000 NA
ATOM     35  C   UNL     1      -4.810  13.855  23.911  0.00  0.00    +0.000 A 
ATOM     36  C   UNL     1      -4.502  13.118  22.776  0.00  0.00    +0.000 A 
ENDBRANCH  23  31
ENDBRANCH  21  22
ENDBRANCH  20  21
ENDBRANCH  19  20
ENDBRANCH   8  19
TORSDOF 6
ENDMDL
MODEL 2
REMARK VINA RESULT:      -8.1      1.788      3.993
REMARK  Name = 
REMARK  7 active torsions:
REMARK  status: ('A' for Active; 'I' for Inactive)
REMARK    1  A    between atoms: C_1  and  C_2
REMARK    2  A    between atoms: C_5  and  C_6
REMARK    3  A    between atoms: N_13  and  C_14
REMARK    4  A    between atoms: C_14  and  C_15
REMARK    5  A    between atoms: C_15  and  C_16
REMARK    6  A    between atoms: C_16  and  N_17
REMARK    7  A    between atoms: C_18  and  C_19
REMARK                            x       y       z     vdW  Elec       q    Type
REMARK                         _______ _______ _______ _____ _____    ______ ____
ROOT
ATOM      1  C   UNL     1       3.263   5.716  18.702  0.00  0.00    +0.000 A 
ATOM      2  C   UNL     1       2.969   4.742  19.632  0.00  0.00    +0.000 A 
ATOM      3  S   UNL     1       1.877   5.347  20.784  0.00  0.00    +0.000 S 
ATOM      4  C   UNL     1       1.893   6.896  19.999  0.00  0.00    +0.000 A 
ATOM      5  N   UNL     1       1.166   7.949  20.460  0.00  0.00    +0.000 N 
ATOM      6  C   UNL     1       0.835   8.091  21.878  0.00  0.00    +0.000 C 
ATOM      7  C   UNL     1       1.401   9.417  22.425  0.00  0.00    +0.000 C 
ATOM      8  N   UNL     1       0.961  10.615  21.670  0.00  0.00    +0.000 NA
ATOM      9  C   UNL     1       1.408  10.428  20.266  0.00  0.00    +0.000 C 
ATOM     10  C   UNL     1       0.933   9.114  19.598  0.00  0.00    +0.000 C 
ATOM     11  N   UNL     1       2.641   6.934  18.917  0.00  0.00    +0.000 NA
ENDROOT
BRANCH   1  16
ATOM     12  C   UNL     1       6.780   4.829  14.211  0.00  0.00    +0.000 C 
ATOM     13  C   UNL     1       5.880   5.067  15.386  0.00  0.00    +0.000 A 
ATOM     14  C   UNL     1       5.459   6.360  15.708  0.00  0.00    +0.000 A 
ATOM     15  C   UNL     1       4.620   6.575  16.803  0.00  0.00    +0.000 A 
ATOM     16  C   UNL     1       4.179   5.503  17.592  0.00  0.00    +0.000 A 
ATOM     17  C   UNL     1       4.617   4.212  17.279  0.00  0.00    +0.000 A 
ATOM     18  C   UNL     1       5.457   3.995  16.182  0.00  0.00    +0.000 A 
ENDBRANCH   1  16
BRANCH   8  19
ATOM     19  C   UNL     1      -0.496  10.813  21.738  0.00  0.00    +0.000 C 
BRANCH  19  20
ATOM     20  C   UNL     1      -0.860  12.131  22.420  0.00  0.00    +0.000 C 
BRANCH  20  21
ATOM     21  C   UNL     1      -1.657  13.022  21.469  0.00  0.00    +0.000 C 
BRANCH  21  22
ATOM     22  N   UNL     1      -0.899  13.374  20.286  0.00  0.00    +0.000 N 
ATOM     23  C   UNL     1      -1.054  12.875  19.001  0.00  0.00    +0.000 A 
ATOM     24  N   UNL     1      -0.087  13.357  18.230  0.00  0.00    +0.000 NA
ATOM     25  C   UNL     1       0.687  14.173  19.018  0.00  0.00    +0.000 A 
ATOM     26  C   UNL     1       1.841  14.908  18.699  0.00  0.00    +0.000 A 
ATOM     27  C   UNL     1       2.468  15.661  19.701  0.00  0.00    +0.000 A 
ATOM     28  C   UNL     1       1.955  15.689  20.997  0.00  0.00    +0.000 A 
ATOM     29  C   UNL     1       0.806  14.964  21.333  0.00  0.00    +0.000 A 
ATOM     30  C   UNL     1       0.198  14.213  20.315  0.00  0.00    +0.000 A 
BRANCH  23  31
ATOM     31  C   UNL     1      -2.065  11.901  18.532  0.00  0.00    +0.000 A 
ATOM     32  C   UNL     1      -3.445  12.039  18.721  0.00  0.00    +0.000 A 
ATOM     33  C   UNL     1      -4.311  11.058  18.268  0.00  0.00    +0.000 A 
ATOM     34  N   UNL     1      -3.908   9.954  17.618  0.00  0.00    +0.000 NA
ATOM     35  C   UNL     1      -2.582   9.843  17.403  0.00  0.00    +0.000 A 
ATOM     36  C   UNL     1      -1.641  10.770  17.829  0.00  0.00    +0.000 A 
ENDBRANCH  23  31
ENDBRANCH  21  22
ENDBRANCH  20  21
ENDBRANCH  19  20
ENDBRANCH   8  19
TORSDOF 6
ENDMDL
MODEL 3
REMARK VINA RESULT:      -7.9      1.347      3.999
REMARK  Name = 
REMARK  7 active torsions:
REMARK  status: ('A' for Active; 'I' for Inactive)
REMARK    1  A    between atoms: C_1  and  C_2
REMARK    2  A    between atoms: C_5  and  C_6
REMARK    3  A    between atoms: N_13  and  C_14
REMARK    4  A    between atoms: C_14  and  C_15
REMARK    5  A    between atoms: C_15  and  C_16
REMARK    6  A    between atoms: C_16  and  N_17
REMARK    7  A    between atoms: C_18  and  C_19
REMARK                            x       y       z     vdW  Elec       q    Type
REMARK                         _______ _______ _______ _____ _____    ______ ____
ROOT
ATOM      1  C   UNL     1       3.263   6.227  18.965  0.00  0.00    +0.000 A 
ATOM      2  C   UNL     1       2.858   5.312  19.914  0.00  0.00    +0.000 A 
ATOM      3  S   UNL     1       1.613   5.969  20.865  0.00  0.00    +0.000 S 
ATOM      4  C   UNL     1       1.717   7.462  19.983  0.00  0.00    +0.000 A 
ATOM      5  N   UNL     1       0.921   8.528  20.269  0.00  0.00    +0.000 N 
ATOM      6  C   UNL     1       0.401   8.759  21.616  0.00  0.00    +0.000 C 
ATOM      7  C   UNL     1       0.874  10.130  22.140  0.00  0.00    +0.000 C 
ATOM      8  N   UNL     1       0.524  11.265  21.252  0.00  0.00    +0.000 NA
ATOM      9  C   UNL     1       1.158  10.993  19.936  0.00  0.00    +0.000 C 
ATOM     10  C   UNL     1       0.792   9.627  19.304  0.00  0.00    +0.000 C 
ATOM     11  N   UNL     1       2.602   7.443  19.010  0.00  0.00    +0.000 NA
ENDROOT
BRANCH   1  16
ATOM     12  C   UNL     1       7.385   5.045  15.101  0.00  0.00    +0.000 C 
ATOM     13  C   UNL     1       6.323   5.368  16.108  0.00  0.00    +0.000 A 
ATOM     14  C   UNL     1       5.388   6.376  15.858  0.00  0.00    +0.000 A 
ATOM     15  C   UNL     1       4.400   6.671  16.799  0.00  0.00    +0.000 A 
ATOM     16  C   UNL     1       4.321   5.958  18.004  0.00  0.00    +0.000 A 
ATOM     17  C   UNL     1       5.269   4.962  18.261  0.00  0.00    +0.000 A 
ATOM     18  C   UNL     1       6.259   4.666  17.319  0.00  0.00    +0.000 A 
ENDBRANCH   1  16
BRANCH   8  19
ATOM     19  C   UNL     1      -0.931  11.436  21.111  0.00  0.00    +0.000 C 
BRANCH  19  20
ATOM     20  C   UNL     1      -1.351  12.896  21.284  0.00  0.00    +0.000 C 
BRANCH  20  21
ATOM     21  C   UNL     1      -2.263  13.328  20.137  0.00  0.00    +0.000 C 
BRANCH  21  22
ATOM     22  N   UNL     1      -3.588  12.753  20.246  0.00  0.00    +0.000 N 
ATOM     23  C   UNL     1      -4.200  11.863  19.376  0.00  0.00    +0.000 A 
ATOM     24  N   UNL     1      -5.455  11.674  19.763  0.00  0.00    +0.000 NA
ATOM     25  C   UNL     1      -5.650  12.437  20.888  0.00  0.00    +0.000 A 
ATOM     26  C   UNL     1      -6.800  12.611  21.676  0.00  0.00    +0.000 A 
ATOM     27  C   UNL     1      -6.746  13.472  22.781  0.00  0.00    +0.000 A 
ATOM     28  C   UNL     1      -5.568  14.146  23.101  0.00  0.00    +0.000 A 
ATOM     29  C   UNL     1      -4.412  13.984  22.328  0.00  0.00    +0.000 A 
ATOM     30  C   UNL     1      -4.491  13.121  21.224  0.00  0.00    +0.000 A 
BRANCH  23  31
ATOM     31  C   UNL     1      -3.621  11.257  18.156  0.00  0.00    +0.000 A 
ATOM     32  C   UNL     1      -2.578  10.323  18.155  0.00  0.00    +0.000 A 
ATOM     33  C   UNL     1      -2.084   9.833  16.958  0.00  0.00    +0.000 A 
ATOM     34  N   UNL     1      -2.566  10.187  15.755  0.00  0.00    +0.000 NA
ATOM     35  C   UNL     1      -3.596  11.056  15.762  0.00  0.00    +0.000 A 
ATOM     36  C   UNL     1      -4.148  11.606  16.910  0.00  0.00    +0.000 A 
ENDBRANCH  23  31
ENDBRANCH  21  22
ENDBRANCH  20  21
ENDBRANCH  19  20
ENDBRANCH   8  19
TORSDOF 6
ENDMDL
MODEL 4
REMARK VINA RESULT:      -7.9      2.384     11.135
REMARK  Name = 
REMARK  7 active torsions:
REMARK  status: ('A' for Active; 'I' for Inactive)
REMARK    1  A    between atoms: C_1  and  C_2
REMARK    2  A    between atoms: C_5  and  C_6
REMARK    3  A    between atoms: N_13  and  C_14
REMARK    4  A    between atoms: C_14  and  C_15
REMARK    5  A    between atoms: C_15  and  C_16
REMARK    6  A    between atoms: C_16  and  N_17
REMARK    7  A    between atoms: C_18  and  C_19
REMARK                            x       y       z     vdW  Elec       q    Type
REMARK                         _______ _______ _______ _____ _____    ______ ____
ROOT
ATOM      1  C   UNL     1      -1.578  11.567  22.140  0.00  0.00    +0.000 A 
ATOM      2  C   UNL     1      -1.295  10.804  23.253  0.00  0.00    +0.000 A 
ATOM      3  S   UNL     1      -0.013   9.741  22.922  0.00  0.00    +0.000 S 
ATOM      4  C   UNL     1       0.064  10.328  21.289  0.00  0.00    +0.000 A 
ATOM      5  N   UNL     1       0.960   9.845  20.387  0.00  0.00    +0.000 N 
ATOM      6  C   UNL     1       1.468   8.475  20.467  0.00  0.00    +0.000 C 
ATOM      7  C   UNL     1       1.130   7.707  19.174  0.00  0.00    +0.000 C 
ATOM      8  N   UNL     1       1.619   8.366  17.939  0.00  0.00    +0.000 NA
ATOM      9  C   UNL     1       0.993   9.713  17.892  0.00  0.00    +0.000 C 
ATOM     10  C   UNL     1       1.228  10.587  19.149  0.00  0.00    +0.000 C 
ATOM     11  N   UNL     1      -0.794  11.292  21.031  0.00  0.00    +0.000 NA
ENDROOT
BRANCH   1  16
ATOM     12  C   UNL     1      -5.667  15.640  22.027  0.00  0.00    +0.000 C 
ATOM     13  C   UNL     1      -4.618  14.569  22.053  0.00  0.00    +0.000 A 
ATOM     14  C   UNL     1      -4.196  13.959  20.868  0.00  0.00    +0.000 A 
ATOM     15  C   UNL     1      -3.217  12.964  20.898  0.00  0.00    +0.000 A 
ATOM     16  C   UNL     1      -2.634  12.566  22.109  0.00  0.00    +0.000 A 
ATOM     17  C   UNL     1      -3.072  13.164  23.296  0.00  0.00    +0.000 A 
ATOM     18  C   UNL     1      -4.052  14.161  23.268  0.00  0.00    +0.000 A 
ENDBRANCH   1  16
BRANCH   8  19
ATOM     19  C   UNL     1       3.087   8.465  17.903  0.00  0.00    +0.000 C 
BRANCH  19  20
ATOM     20  C   UNL     1       3.734   7.158  17.446  0.00  0.00    +0.000 C 
BRANCH  20  21
ATOM     21  C   UNL     1       4.190   6.338  18.652  0.00  0.00    +0.000 C 
BRANCH  21  22
ATOM     22  N   UNL     1       3.916   4.925  18.487  0.00  0.00    +0.000 N 
ATOM     23  C   UNL     1       4.463   4.059  17.553  0.00  0.00    +0.000 A 
ATOM     24  N   UNL     1       3.861   2.880  17.651  0.00  0.00    +0.000 NA
ATOM     25  C   UNL     1       2.931   2.985  18.656  0.00  0.00    +0.000 A 
ATOM     26  C   UNL     1       2.019   2.036  19.146  0.00  0.00    +0.000 A 
ATOM     27  C   UNL     1       1.147   2.401  20.183  0.00  0.00    +0.000 A 
ATOM     28  C   UNL     1       1.184   3.684  20.726  0.00  0.00    +0.000 A 
ATOM     29  C   UNL     1       2.086   4.642  20.250  0.00  0.00    +0.000 A 
ATOM     30  C   UNL     1       2.946   4.257  19.209  0.00  0.00    +0.000 A 
BRANCH  23  31
ATOM     31  C   UNL     1       5.492   4.369  16.536  0.00  0.00    +0.000 A 
ATOM     32  C   UNL     1       6.804   4.760  16.831  0.00  0.00    +0.000 A 
ATOM     33  C   UNL     1       7.689   5.056  15.808  0.00  0.00    +0.000 A 
ATOM     34  N   UNL     1       7.373   4.970  14.504  0.00  0.00    +0.000 NA
ATOM     35  C   UNL     1       6.122   4.556  14.224  0.00  0.00    +0.000 A 
ATOM     36  C   UNL     1       5.167   4.248  15.182  0.00  0.00    +0.000 A 
ENDBRANCH  23  31
ENDBRANCH  21  22
ENDBRANCH  20  21
ENDBRANCH  19  20
ENDBRANCH   8  19
TORSDOF 6
ENDMDL
MODEL 5
REMARK VINA RESULT:      -7.9      1.749      3.898
REMARK  Name = 
REMARK  7 active torsions:
REMARK  status: ('A' for Active; 'I' for Inactive)
REMARK    1  A    between atoms: C_1  and  C_2
REMARK    2  A    between atoms: C_5  and  C_6
REMARK    3  A    between atoms: N_13  and  C_14
REMARK    4  A    between atoms: C_14  and  C_15
REMARK    5  A    between atoms: C_15  and  C_16
REMARK    6  A    between atoms: C_16  and  N_17
REMARK    7  A    between atoms: C_18  and  C_19
REMARK                            x       y       z     vdW  Elec       q    Type
REMARK                         _______ _______ _______ _____ _____    ______ ____
ROOT
ATOM      1  C   UNL     1       3.275   5.756  18.665  0.00  0.00    +0.000 A 
ATOM      2  C   UNL     1       3.047   4.790  19.622  0.00  0.00    +0.000 A 
ATOM      3  S   UNL     1       1.979   5.381  20.804  0.00  0.00    +0.000 S 
ATOM      4  C   UNL     1       1.917   6.916  19.994  0.00  0.00    +0.000 A 
ATOM      5  N   UNL     1       1.174   7.953  20.465  0.00  0.00    +0.000 N 
ATOM      6  C   UNL     1       0.892   8.111  21.891  0.00  0.00    +0.000 C 
ATOM      7  C   UNL     1       1.436   9.462  22.394  0.00  0.00    +0.000 C 
ATOM      8  N   UNL     1       0.930  10.633  21.638  0.00  0.00    +0.000 NA
ATOM      9  C   UNL     1       1.330  10.435  20.221  0.00  0.00    +0.000 C 
ATOM     10  C   UNL     1       0.873   9.095  19.593  0.00  0.00    +0.000 C 
ATOM     11  N   UNL     1       2.622   6.958  18.884  0.00  0.00    +0.000 NA
ENDROOT
BRANCH   1  16
ATOM     12  C   UNL     1       6.882   4.945  14.232  0.00  0.00    +0.000 C 
ATOM     13  C   UNL     1       5.931   5.153  15.372  0.00  0.00    +0.000 A 
ATOM     14  C   UNL     1       5.218   4.078  15.907  0.00  0.00    +0.000 A 
ATOM     15  C   UNL     1       4.334   4.277  16.970  0.00  0.00    +0.000 A 
ATOM     16  C   UNL     1       4.154   5.552  17.525  0.00  0.00    +0.000 A 
ATOM     17  C   UNL     1       4.856   6.631  16.975  0.00  0.00    +0.000 A 
ATOM     18  C   UNL     1       5.740   6.432  15.911  0.00  0.00    +0.000 A 
ENDBRANCH   1  16
BRANCH   8  19
ATOM     19  C   UNL     1      -0.528  10.786  21.758  0.00  0.00    +0.000 C 
BRANCH  19  20
ATOM     20  C   UNL     1      -0.907  12.090  22.461  0.00  0.00    +0.000 C 
BRANCH  20  21
ATOM     21  C   UNL     1      -1.759  12.964  21.542  0.00  0.00    +0.000 C 
BRANCH  21  22
ATOM     22  N   UNL     1      -1.029  13.394  20.367  0.00  0.00    +0.000 N 
ATOM     23  C   UNL     1      -1.159  12.923  19.069  0.00  0.00    +0.000 A 
ATOM     24  N   UNL     1      -0.227  13.484  18.309  0.00  0.00    +0.000 NA
ATOM     25  C   UNL     1       0.500  14.324  19.118  0.00  0.00    +0.000 A 
ATOM     26  C   UNL     1       1.606  15.137  18.816  0.00  0.00    +0.000 A 
ATOM     27  C   UNL     1       2.189  15.899  19.838  0.00  0.00    +0.000 A 
ATOM     28  C   UNL     1       1.681  15.859  21.136  0.00  0.00    +0.000 A 
ATOM     29  C   UNL     1       0.580  15.056  21.454  0.00  0.00    +0.000 A 
ATOM     30  C   UNL     1       0.015  14.298  20.417  0.00  0.00    +0.000 A 
BRANCH  23  31
ATOM     31  C   UNL     1      -2.110  11.902  18.575  0.00  0.00    +0.000 A 
ATOM     32  C   UNL     1      -1.733  10.698  17.968  0.00  0.00    +0.000 A 
ATOM     33  C   UNL     1      -2.698   9.816  17.512  0.00  0.00    +0.000 A 
ATOM     34  N   UNL     1      -4.019  10.032  17.636  0.00  0.00    +0.000 NA
ATOM     35  C   UNL     1      -4.377  11.174  18.256  0.00  0.00    +0.000 A 
ATOM     36  C   UNL     1      -3.480  12.118  18.734  0.00  0.00    +0.000 A 
ENDBRANCH  23  31
ENDBRANCH  21  22
ENDBRANCH  20  21
ENDBRANCH  19  20
ENDBRANCH   8  19
TORSDOF 6
ENDMDL
MODEL 6
REMARK VINA RESULT:      -7.8      1.651      4.007
REMARK  Name = 
REMARK  7 active torsions:
REMARK  status: ('A' for Active; 'I' for Inactive)
REMARK    1  A    between atoms: C_1  and  C_2
REMARK    2  A    between atoms: C_5  and  C_6
REMARK    3  A    between atoms: N_13  and  C_14
REMARK    4  A    between atoms: C_14  and  C_15
REMARK    5  A    between atoms: C_15  and  C_16
REMARK    6  A    between atoms: C_16  and  N_17
REMARK    7  A    between atoms: C_18  and  C_19
REMARK                            x       y       z     vdW  Elec       q    Type
REMARK                         _______ _______ _______ _____ _____    ______ ____
ROOT
ATOM      1  C   UNL     1       3.044   6.475  18.580  0.00  0.00    +0.000 A 
ATOM      2  C   UNL     1       2.833   5.856  19.794  0.00  0.00    +0.000 A 
ATOM      3  S   UNL     1       1.770   6.781  20.743  0.00  0.00    +0.000 S 
ATOM      4  C   UNL     1       1.688   7.984  19.493  0.00  0.00    +0.000 A 
ATOM      5  N   UNL     1       0.940   9.113  19.623  0.00  0.00    +0.000 N 
ATOM      6  C   UNL     1       0.668   9.708  20.931  0.00  0.00    +0.000 C 
ATOM      7  C   UNL     1       1.204  11.153  20.979  0.00  0.00    +0.000 C 
ATOM      8  N   UNL     1       0.681  12.023  19.899  0.00  0.00    +0.000 NA
ATOM      9  C   UNL     1       1.071  11.394  18.611  0.00  0.00    +0.000 C 
ATOM     10  C   UNL     1       0.620   9.922  18.440  0.00  0.00    +0.000 C 
ATOM     11  N   UNL     1       2.383   7.681  18.418  0.00  0.00    +0.000 NA
ENDROOT
BRANCH   1  16
ATOM     12  C   UNL     1       6.621   4.333  14.587  0.00  0.00    +0.000 C 
ATOM     13  C   UNL     1       5.678   4.883  15.614  0.00  0.00    +0.000 A 
ATOM     14  C   UNL     1       4.960   4.026  16.451  0.00  0.00    +0.000 A 
ATOM     15  C   UNL     1       4.084   4.544  17.407  0.00  0.00    +0.000 A 
ATOM     16  C   UNL     1       3.916   5.929  17.551  0.00  0.00    +0.000 A 
ATOM     17  C   UNL     1       4.622   6.785  16.699  0.00  0.00    +0.000 A 
ATOM     18  C   UNL     1       5.499   6.267  15.742  0.00  0.00    +0.000 A 
ENDBRANCH   1  16
BRANCH   8  19
ATOM     19  C   UNL     1      -0.778  12.198  19.981  0.00  0.00    +0.000 C 
BRANCH  19  20
ATOM     20  C   UNL     1      -1.196  12.891  21.277  0.00  0.00    +0.000 C 
BRANCH  20  21
ATOM     21  C   UNL     1      -2.386  12.169  21.908  0.00  0.00    +0.000 C 
BRANCH  21  22
ATOM     22  N   UNL     1      -3.407  13.092  22.359  0.00  0.00    +0.000 N 
ATOM     23  C   UNL     1      -4.687  13.256  21.849  0.00  0.00    +0.000 A 
ATOM     24  N   UNL     1      -5.266  14.285  22.455  0.00  0.00    +0.000 NA
ATOM     25  C   UNL     1      -4.361  14.779  23.363  0.00  0.00    +0.000 A 
ATOM     26  C   UNL     1      -4.467  15.869  24.243  0.00  0.00    +0.000 A 
ATOM     27  C   UNL     1      -3.379  16.185  25.069  0.00  0.00    +0.000 A 
ATOM     28  C   UNL     1      -2.208  15.430  25.026  0.00  0.00    +0.000 A 
ATOM     29  C   UNL     1      -2.085  14.341  24.155  0.00  0.00    +0.000 A 
ATOM     30  C   UNL     1      -3.185  14.045  23.334  0.00  0.00    +0.000 A 
BRANCH  23  31
ATOM     31  C   UNL     1      -5.321  12.491  20.752  0.00  0.00    +0.000 A 
ATOM     32  C   UNL     1      -6.538  11.809  20.865  0.00  0.00    +0.000 A 
ATOM     33  C   UNL     1      -7.039  11.096  19.788  0.00  0.00    +0.000 A 
ATOM     34  N   UNL     1      -6.428  11.029  18.593  0.00  0.00    +0.000 NA
ATOM     35  C   UNL     1      -5.276  11.719  18.477  0.00  0.00    +0.000 A 
ATOM     36  C   UNL     1      -4.696  12.451  19.504  0.00  0.00    +0.000 A 
ENDBRANCH  23  31
ENDBRANCH  21  22
ENDBRANCH  20  21
ENDBRANCH  19  20
ENDBRANCH   8  19
TORSDOF 6
ENDMDL
MODEL 7
REMARK VINA RESULT:      -7.8      1.268      4.054
REMARK  Name = 
REMARK  7 active torsions:
REMARK  status: ('A' for Active; 'I' for Inactive)
REMARK    1  A    between atoms: C_1  and  C_2
REMARK    2  A    between atoms: C_5  and  C_6
REMARK    3  A    between atoms: N_13  and  C_14
REMARK    4  A    between atoms: C_14  and  C_15
REMARK    5  A    between atoms: C_15  and  C_16
REMARK    6  A    between atoms: C_16  and  N_17
REMARK    7  A    between atoms: C_18  and  C_19
REMARK                            x       y       z     vdW  Elec       q    Type
REMARK                         _______ _______ _______ _____ _____    ______ ____
ROOT
ATOM      1  C   UNL     1       3.187   5.885  18.715  0.00  0.00    +0.000 A 
ATOM      2  C   UNL     1       2.911   4.951  19.691  0.00  0.00    +0.000 A 
ATOM      3  S   UNL     1       1.828   5.598  20.828  0.00  0.00    +0.000 S 
ATOM      4  C   UNL     1       1.823   7.112  19.975  0.00  0.00    +0.000 A 
ATOM      5  N   UNL     1       1.093   8.178  20.398  0.00  0.00    +0.000 N 
ATOM      6  C   UNL     1       0.778   8.381  21.812  0.00  0.00    +0.000 C 
ATOM      7  C   UNL     1       1.341   9.734  22.293  0.00  0.00    +0.000 C 
ATOM      8  N   UNL     1       0.882  10.894  21.492  0.00  0.00    +0.000 NA
ATOM      9  C   UNL     1       1.314  10.648  20.092  0.00  0.00    +0.000 C 
ATOM     10  C   UNL     1       0.841   9.303  19.488  0.00  0.00    +0.000 C 
ATOM     11  N   UNL     1       2.558   7.107  18.884  0.00  0.00    +0.000 NA
ENDROOT
BRANCH   1  16
ATOM     12  C   UNL     1       6.656   4.849  14.218  0.00  0.00    +0.000 C 
ATOM     13  C   UNL     1       5.769   5.124  15.396  0.00  0.00    +0.000 A 
ATOM     14  C   UNL     1       5.500   6.436  15.792  0.00  0.00    +0.000 A 
ATOM     15  C   UNL     1       4.672   6.686  16.888  0.00  0.00    +0.000 A 
ATOM     16  C   UNL     1       4.091   5.630  17.604  0.00  0.00    +0.000 A 
ATOM     17  C   UNL     1       4.378   4.316  17.218  0.00  0.00    +0.000 A 
ATOM     18  C   UNL     1       5.206   4.065  16.120  0.00  0.00    +0.000 A 
ENDBRANCH   1  16
BRANCH   8  19
ATOM     19  C   UNL     1      -0.575  11.084  21.568  0.00  0.00    +0.000 C 
BRANCH  19  20
ATOM     20  C   UNL     1      -0.949  12.255  22.478  0.00  0.00    +0.000 C 
BRANCH  20  21
ATOM     21  C   UNL     1      -2.380  12.098  22.988  0.00  0.00    +0.000 C 
BRANCH  21  22
ATOM     22  N   UNL     1      -3.161  13.305  22.804  0.00  0.00    +0.000 N 
ATOM     23  C   UNL     1      -3.982  13.627  21.733  0.00  0.00    +0.000 A 
ATOM     24  N   UNL     1      -4.420  14.870  21.883  0.00  0.00    +0.000 NA
ATOM     25  C   UNL     1      -3.886  15.347  23.055  0.00  0.00    +0.000 A 
ATOM     26  C   UNL     1      -4.018  16.607  23.663  0.00  0.00    +0.000 A 
ATOM     27  C   UNL     1      -3.347  16.856  24.868  0.00  0.00    +0.000 A 
ATOM     28  C   UNL     1      -2.562  15.870  25.463  0.00  0.00    +0.000 A 
ATOM     29  C   UNL     1      -2.419  14.609  24.873  0.00  0.00    +0.000 A 
ATOM     30  C   UNL     1      -3.096  14.383  23.663  0.00  0.00    +0.000 A 
BRANCH  23  31
ATOM     31  C   UNL     1      -4.289  12.789  20.552  0.00  0.00    +0.000 A 
ATOM     32  C   UNL     1      -3.349  12.409  19.586  0.00  0.00    +0.000 A 
ATOM     33  C   UNL     1      -3.738  11.644  18.500  0.00  0.00    +0.000 A 
ATOM     34  N   UNL     1      -4.995  11.208  18.311  0.00  0.00    +0.000 NA
ATOM     35  C   UNL     1      -5.888  11.543  19.262  0.00  0.00    +0.000 A 
ATOM     36  C   UNL     1      -5.590  12.313  20.378  0.00  0.00    +0.000 A 
ENDBRANCH  23  31
ENDBRANCH  21  22
ENDBRANCH  20  21
ENDBRANCH  19  20
ENDBRANCH   8  19
TORSDOF 6
ENDMDL
MODEL 8
REMARK VINA RESULT:      -7.8      2.509     11.334
REMARK  Name = 
REMARK  7 active torsions:
REMARK  status: ('A' for Active; 'I' for Inactive)
REMARK    1  A    between atoms: C_1  and  C_2
REMARK    2  A    between atoms: C_5  and  C_6
REMARK    3  A    between atoms: N_13  and  C_14
REMARK    4  A    between atoms: C_14  and  C_15
REMARK    5  A    between atoms: C_15  and  C_16
REMARK    6  A    between atoms: C_16  and  N_17
REMARK    7  A    between atoms: C_18  and  C_19
REMARK                            x       y       z     vdW  Elec       q    Type
REMARK                         _______ _______ _______ _____ _____    ______ ____
ROOT
ATOM      1  C   UNL     1      -2.336  12.790  20.807  0.00  0.00    +0.000 A 
ATOM      2  C   UNL     1      -2.884  12.964  19.554  0.00  0.00    +0.000 A 
ATOM      3  S   UNL     1      -2.278  11.791  18.484  0.00  0.00    +0.000 S 
ATOM      4  C   UNL     1      -1.278  11.142  19.748  0.00  0.00    +0.000 A 
ATOM      5  N   UNL     1      -0.449  10.085  19.543  0.00  0.00    +0.000 N 
ATOM      6  C   UNL     1       0.135   9.809  18.230  0.00  0.00    +0.000 C 
ATOM      7  C   UNL     1       1.674   9.832  18.317  0.00  0.00    +0.000 C 
ATOM      8  N   UNL     1       2.232   8.906  19.332  0.00  0.00    +0.000 NA
ATOM      9  C   UNL     1       1.656   9.307  20.642  0.00  0.00    +0.000 C 
ATOM     10  C   UNL     1       0.109   9.356  20.689  0.00  0.00    +0.000 C 
ATOM     11  N   UNL     1      -1.429  11.747  20.907  0.00  0.00    +0.000 NA
ENDROOT
BRANCH   1  16
ATOM     12  C   UNL     1      -3.464  16.157  25.358  0.00  0.00    +0.000 C 
ATOM     13  C   UNL     1      -3.186  15.288  24.168  0.00  0.00    +0.000 A 
ATOM     14  C   UNL     1      -2.743  15.850  22.968  0.00  0.00    +0.000 A 
ATOM     15  C   UNL     1      -2.483  15.036  21.863  0.00  0.00    +0.000 A 
ATOM     16  C   UNL     1      -2.653  13.646  21.939  0.00  0.00    +0.000 A 
ATOM     17  C   UNL     1      -3.116  13.089  23.136  0.00  0.00    +0.000 A 
ATOM     18  C   UNL     1      -3.375  13.902  24.243  0.00  0.00    +0.000 A 
ENDBRANCH   1  16
BRANCH   8  19
ATOM     19  C   UNL     1       1.928   7.499  19.031  0.00  0.00    +0.000 C 
BRANCH  19  20
ATOM     20  C   UNL     1       2.755   6.977  17.856  0.00  0.00    +0.000 C 
BRANCH  20  21
ATOM     21  C   UNL     1       2.473   5.494  17.621  0.00  0.00    +0.000 C 
BRANCH  21  22
ATOM     22  N   UNL     1       3.205   4.647  18.540  0.00  0.00    +0.000 N 
ATOM     23  C   UNL     1       4.543   4.284  18.474  0.00  0.00    +0.000 A 
ATOM     24  N   UNL     1       4.798   3.399  19.430  0.00  0.00    +0.000 NA
ATOM     25  C   UNL     1       3.626   3.198  20.117  0.00  0.00    +0.000 A 
ATOM     26  C   UNL     1       3.347   2.351  21.202  0.00  0.00    +0.000 A 
ATOM     27  C   UNL     1       2.045   2.313  21.720  0.00  0.00    +0.000 A 
ATOM     28  C   UNL     1       1.037   3.106  21.173  0.00  0.00    +0.000 A 
ATOM     29  C   UNL     1       1.297   3.957  20.093  0.00  0.00    +0.000 A 
ATOM     30  C   UNL     1       2.606   3.975  19.587  0.00  0.00    +0.000 A 
BRANCH  23  31
ATOM     31  C   UNL     1       5.544   4.719  17.475  0.00  0.00    +0.000 A 
ATOM     32  C   UNL     1       6.421   5.795  17.650  0.00  0.00    +0.000 A 
ATOM     33  C   UNL     1       7.306   6.143  16.643  0.00  0.00    +0.000 A 
ATOM     34  N   UNL     1       7.400   5.484  15.476  0.00  0.00    +0.000 NA
ATOM     35  C   UNL     1       6.581   4.424  15.327  0.00  0.00    +0.000 A 
ATOM     36  C   UNL     1       5.658   4.010  16.276  0.00  0.00    +0.000 A 
ENDBRANCH  23  31
ENDBRANCH  21  22
ENDBRANCH  20  21
ENDBRANCH  19  20
ENDBRANCH   8  19
TORSDOF 6
ENDMDL
MODEL 9
REMARK VINA RESULT:      -7.8      2.651     11.100
REMARK  Name = 
REMARK  7 active torsions:
REMARK  status: ('A' for Active; 'I' for Inactive)
REMARK    1  A    between atoms: C_1  and  C_2
REMARK    2  A    between atoms: C_5  and  C_6
REMARK    3  A    between atoms: N_13  and  C_14
REMARK    4  A    between atoms: C_14  and  C_15
REMARK    5  A    between atoms: C_15  and  C_16
REMARK    6  A    between atoms: C_16  and  N_17
REMARK    7  A    between atoms: C_18  and  C_19
REMARK                            x       y       z     vdW  Elec       q    Type
REMARK                         _______ _______ _______ _____ _____    ______ ____
ROOT
ATOM      1  C   UNL     1      -3.907  11.392  17.999  0.00  0.00    +0.000 A 
ATOM      2  C   UNL     1      -3.863  11.148  16.643  0.00  0.00    +0.000 A 
ATOM      3  S   UNL     1      -2.531  10.163  16.270  0.00  0.00    +0.000 S 
ATOM      4  C   UNL     1      -2.058  10.154  17.941  0.00  0.00    +0.000 A 
ATOM      5  N   UNL     1      -0.954   9.490  18.378  0.00  0.00    +0.000 N 
ATOM      6  C   UNL     1       0.205   9.273  17.512  0.00  0.00    +0.000 C 
ATOM      7  C   UNL     1       1.461   9.911  18.137  0.00  0.00    +0.000 C 
ATOM      8  N   UNL     1       1.752   9.442  19.513  0.00  0.00    +0.000 NA
ATOM      9  C   UNL     1       0.564   9.774  20.341  0.00  0.00    +0.000 C 
ATOM     10  C   UNL     1      -0.780   9.218  19.810  0.00  0.00    +0.000 C 
ATOM     11  N   UNL     1      -2.879  10.816  18.728  0.00  0.00    +0.000 NA
ENDROOT
BRANCH   1  16
ATOM     12  C   UNL     1      -7.916  14.769  20.416  0.00  0.00    +0.000 C 
ATOM     13  C   UNL     1      -6.883  13.878  19.795  0.00  0.00    +0.000 A 
ATOM     14  C   UNL     1      -7.197  13.098  18.679  0.00  0.00    +0.000 A 
ATOM     15  C   UNL     1      -6.230  12.270  18.104  0.00  0.00    +0.000 A 
ATOM     16  C   UNL     1      -4.931  12.213  18.626  0.00  0.00    +0.000 A 
ATOM     17  C   UNL     1      -4.624  12.980  19.756  0.00  0.00    +0.000 A 
ATOM     18  C   UNL     1      -5.591  13.809  20.332  0.00  0.00    +0.000 A 
ENDBRANCH   1  16
BRANCH   8  19
ATOM     19  C   UNL     1       2.042   8.000  19.561  0.00  0.00    +0.000 C 
BRANCH  19  20
ATOM     20  C   UNL     1       2.908   7.554  18.383  0.00  0.00    +0.000 C 
BRANCH  20  21
ATOM     21  C   UNL     1       2.520   6.145  17.938  0.00  0.00    +0.000 C 
BRANCH  21  22
ATOM     22  N   UNL     1       3.183   5.123  18.721  0.00  0.00    +0.000 N 
ATOM     23  C   UNL     1       4.485   4.665  18.588  0.00  0.00    +0.000 A 
ATOM     24  N   UNL     1       4.670   3.640  19.410  0.00  0.00    +0.000 NA
ATOM     25  C   UNL     1       3.487   3.442  20.079  0.00  0.00    +0.000 A 
ATOM     26  C   UNL     1       3.142   2.479  21.042  0.00  0.00    +0.000 A 
ATOM     27  C   UNL     1       1.843   2.476  21.569  0.00  0.00    +0.000 A 
ATOM     28  C   UNL     1       0.903   3.417  21.151  0.00  0.00    +0.000 A 
ATOM     29  C   UNL     1       1.228   4.384  20.193  0.00  0.00    +0.000 A 
ATOM     30  C   UNL     1       2.533   4.365  19.675  0.00  0.00    +0.000 A 
BRANCH  23  31
ATOM     31  C   UNL     1       5.516   5.150  17.642  0.00  0.00    +0.000 A 
ATOM     32  C   UNL     1       5.700   4.650  16.348  0.00  0.00    +0.000 A 
ATOM     33  C   UNL     1       6.711   5.151  15.545  0.00  0.00    +0.000 A 
ATOM     34  N   UNL     1       7.545   6.133  15.928  0.00  0.00    +0.000 NA
ATOM     35  C   UNL     1       7.340   6.638  17.160  0.00  0.00    +0.000 A 
ATOM     36  C   UNL     1       6.359   6.192  18.035  0.00  0.00    +0.000 A 
ENDBRANCH  23  31
ENDBRANCH  21  22
ENDBRANCH  20  21
ENDBRANCH  19  20
ENDBRANCH   8  19
TORSDOF 6
ENDMDL
