MODEL 1
REMARK VINA RESULT:      -8.5      0.000      0.000
REMARK  Name = 
REMARK  5 active torsions:
REMARK  status: ('A' for Active; 'I' for Inactive)
REMARK    1  A    between atoms: C_1  and  C_2
REMARK    2  A    between atoms: C_2  and  C_3
REMARK    3  A    between atoms: C_2  and  C_4
REMARK    4  A    between atoms: N_12  and  C_13
REMARK    5  A    between atoms: C_13  and  C_14
REMARK                            x       y       z     vdW  Elec       q    Type
REMARK                         _______ _______ _______ _____ _____    ______ ____
ROOT
ATOM      1  C   UNL     1       6.682   5.367  16.228  0.00  0.00    +0.000 A 
ATOM      2  N   UNL     1       7.599   5.675  15.325  0.00  0.00    +0.000 NA
ATOM      3  C   UNL     1       7.299   5.041  14.183  0.00  0.00    +0.000 A 
ATOM      4  C   UNL     1       7.906   5.178  12.933  0.00  0.00    +0.000 A 
ATOM      5  C   UNL     1       7.359   4.522  11.830  0.00  0.00    +0.000 A 
ATOM      6  C   UNL     1       6.291   3.651  12.013  0.00  0.00    +0.000 A 
ATOM      7  C   UNL     1       5.755   3.406  13.289  0.00  0.00    +0.000 A 
ATOM      8  C   UNL     1       6.179   4.213  14.363  0.00  0.00    +0.000 A 
ATOM      9  N   UNL     1       5.705   4.514  15.686  0.00  0.00    +0.000 N 
ENDROOT
BRANCH   1  11
ATOM     10  C   UNL     1       7.644   5.283  18.621  0.00  0.00    +0.000 C 
ATOM     11  C   UNL     1       6.853   6.017  17.577  0.00  0.00    +0.000 C 
ATOM     12  C   UNL     1       7.245   7.494  17.440  0.00  0.00    +0.000 C 
ENDBRANCH   1  11
BRANCH   9  13
ATOM     13  C   UNL     1       4.422   3.999  16.345  0.00  0.00    +0.000 C 
BRANCH  13  14
ATOM     14  C   UNL     1       3.932   4.745  17.605  0.00  0.00    +0.000 A 
ATOM     15  C   UNL     1       4.011   3.905  18.728  0.00  0.00    +0.000 A 
ATOM     16  C   UNL     1       4.181   4.433  19.956  0.00  0.00    +0.000 A 
ATOM     17  C   UNL     1       3.088   5.192  20.216  0.00  0.00    +0.000 A 
ATOM     18  C   UNL     1       2.792   6.137  19.247  0.00  0.00    +0.000 A 
ATOM     19  C   UNL     1       1.963   7.157  19.699  0.00  0.00    +0.000 A 
ATOM     20  C   UNL     1       1.935   8.359  19.031  0.00  0.00    +0.000 A 
ATOM     21  C   UNL     1       2.712   8.488  17.879  0.00  0.00    +0.000 A 
ATOM     22  C   UNL     1       3.385   7.367  17.304  0.00  0.00    +0.000 A 
ATOM     23  C   UNL     1       3.414   6.080  17.952  0.00  0.00    +0.000 A 
ENDBRANCH  13  14
ENDBRANCH   9  13
TORSDOF 3
ENDMDL
MODEL 2
REMARK VINA RESULT:      -8.3      1.513      2.600
REMARK  Name = 
REMARK  5 active torsions:
REMARK  status: ('A' for Active; 'I' for Inactive)
REMARK    1  A    between atoms: C_1  and  C_2
REMARK    2  A    between atoms: C_2  and  C_3
REMARK    3  A    between atoms: C_2  and  C_4
REMARK    4  A    between atoms: N_12  and  C_13
REMARK    5  A    between atoms: C_13  and  C_14
REMARK                            x       y       z     vdW  Elec       q    Type
REMARK                         _______ _______ _______ _____ _____    ______ ____
ROOT
ATOM      1  C   UNL     1       6.622   5.896  16.646  0.00  0.00    +0.000 A 
ATOM      2  N   UNL     1       7.577   5.684  15.754  0.00  0.00    +0.000 NA
ATOM      3  C   UNL     1       7.044   5.036  14.709  0.00  0.00    +0.000 A 
ATOM      4  C   UNL     1       7.642   4.730  13.485  0.00  0.00    +0.000 A 
ATOM      5  C   UNL     1       6.874   4.161  12.470  0.00  0.00    +0.000 A 
ATOM      6  C   UNL     1       5.557   3.801  12.730  0.00  0.00    +0.000 A 
ATOM      7  C   UNL     1       4.983   3.985  14.000  0.00  0.00    +0.000 A 
ATOM      8  C   UNL     1       5.696   4.733  14.957  0.00  0.00    +0.000 A 
ATOM      9  N   UNL     1       5.388   5.400  16.193  0.00  0.00    +0.000 N 
ENDROOT
BRANCH   1  11
ATOM     10  C   UNL     1       7.731   5.869  18.976  0.00  0.00    +0.000 C 
ATOM     11  C   UNL     1       7.045   6.641  17.886  0.00  0.00    +0.000 C 
ATOM     12  C   UNL     1       7.749   7.958  17.534  0.00  0.00    +0.000 C 
ENDBRANCH   1  11
BRANCH   9  13
ATOM     13  C   UNL     1       4.013   5.522  16.857  0.00  0.00    +0.000 C 
BRANCH  13  14
ATOM     14  C   UNL     1       3.552   4.338  17.736  0.00  0.00    +0.000 A 
ATOM     15  C   UNL     1       3.744   3.125  17.056  0.00  0.00    +0.000 A 
ATOM     16  C   UNL     1       3.951   1.987  17.749  0.00  0.00    +0.000 A 
ATOM     17  C   UNL     1       2.831   1.759  18.478  0.00  0.00    +0.000 A 
ATOM     18  C   UNL     1       2.426   2.820  19.271  0.00  0.00    +0.000 A 
ATOM     19  C   UNL     1       1.564   2.450  20.297  0.00  0.00    +0.000 A 
ATOM     20  C   UNL     1       1.427   3.263  21.398  0.00  0.00    +0.000 A 
ATOM     21  C   UNL     1       2.128   4.470  21.415  0.00  0.00    +0.000 A 
ATOM     22  C   UNL     1       2.834   4.938  20.265  0.00  0.00    +0.000 A 
ATOM     23  C   UNL     1       2.976   4.133  19.077  0.00  0.00    +0.000 A 
ENDBRANCH  13  14
ENDBRANCH   9  13
TORSDOF 3
ENDMDL
MODEL 3
REMARK VINA RESULT:      -8.2      1.033      2.140
REMARK  Name = 
REMARK  5 active torsions:
REMARK  status: ('A' for Active; 'I' for Inactive)
REMARK    1  A    between atoms: C_1  and  C_2
REMARK    2  A    between atoms: C_2  and  C_3
REMARK    3  A    between atoms: C_2  and  C_4
REMARK    4  A    between atoms: N_12  and  C_13
REMARK    5  A    between atoms: C_13  and  C_14
REMARK                            x       y       z     vdW  Elec       q    Type
REMARK                         _______ _______ _______ _____ _____    ______ ____
ROOT
ATOM      1  C   UNL     1       6.864   5.313  16.310  0.00  0.00    +0.000 A 
ATOM      2  N   UNL     1       7.648   5.764  15.343  0.00  0.00    +0.000 NA
ATOM      3  C   UNL     1       7.343   5.111  14.213  0.00  0.00    +0.000 A 
ATOM      4  C   UNL     1       7.814   5.354  12.922  0.00  0.00    +0.000 A 
ATOM      5  C   UNL     1       7.273   4.644  11.850  0.00  0.00    +0.000 A 
ATOM      6  C   UNL     1       6.359   3.626  12.097  0.00  0.00    +0.000 A 
ATOM      7  C   UNL     1       5.975   3.286  13.405  0.00  0.00    +0.000 A 
ATOM      8  C   UNL     1       6.371   4.129  14.463  0.00  0.00    +0.000 A 
ATOM      9  N   UNL     1       5.975   4.337  15.828  0.00  0.00    +0.000 N 
ENDROOT
BRANCH   1  11
ATOM     10  C   UNL     1       7.774   5.178  18.722  0.00  0.00    +0.000 C 
ATOM     11  C   UNL     1       7.058   5.960  17.658  0.00  0.00    +0.000 C 
ATOM     12  C   UNL     1       7.559   7.403  17.520  0.00  0.00    +0.000 C 
ENDBRANCH   1  11
BRANCH   9  13
ATOM     13  C   UNL     1       4.840   3.633  16.576  0.00  0.00    +0.000 C 
BRANCH  13  14
ATOM     14  C   UNL     1       3.920   4.517  17.447  0.00  0.00    +0.000 A 
ATOM     15  C   UNL     1       4.208   5.874  17.235  0.00  0.00    +0.000 A 
ATOM     16  C   UNL     1       3.249   6.804  17.413  0.00  0.00    +0.000 A 
ATOM     17  C   UNL     1       2.896   6.765  18.722  0.00  0.00    +0.000 A 
ATOM     18  C   UNL     1       2.541   5.511  19.191  0.00  0.00    +0.000 A 
ATOM     19  C   UNL     1       1.800   5.547  20.367  0.00  0.00    +0.000 A 
ATOM     20  C   UNL     1       1.018   4.469  20.712  0.00  0.00    +0.000 A 
ATOM     21  C   UNL     1       1.043   3.347  19.883  0.00  0.00    +0.000 A 
ATOM     22  C   UNL     1       1.971   3.238  18.803  0.00  0.00    +0.000 A 
ATOM     23  C   UNL     1       2.833   4.331  18.426  0.00  0.00    +0.000 A 
ENDBRANCH  13  14
ENDBRANCH   9  13
TORSDOF 3
ENDMDL
MODEL 4
REMARK VINA RESULT:      -8.1      1.425      2.769
REMARK  Name = 
REMARK  5 active torsions:
REMARK  status: ('A' for Active; 'I' for Inactive)
REMARK    1  A    between atoms: C_1  and  C_2
REMARK    2  A    between atoms: C_2  and  C_3
REMARK    3  A    between atoms: C_2  and  C_4
REMARK    4  A    between atoms: N_12  and  C_13
REMARK    5  A    between atoms: C_13  and  C_14
REMARK                            x       y       z     vdW  Elec       q    Type
REMARK                         _______ _______ _______ _____ _____    ______ ____
ROOT
ATOM      1  C   UNL     1       6.728   6.276  16.948  0.00  0.00    +0.000 A 
ATOM      2  N   UNL     1       7.604   5.666  16.164  0.00  0.00    +0.000 NA
ATOM      3  C   UNL     1       6.933   5.051  15.180  0.00  0.00    +0.000 A 
ATOM      4  C   UNL     1       7.450   4.406  14.055  0.00  0.00    +0.000 A 
ATOM      5  C   UNL     1       6.578   3.939  13.072  0.00  0.00    +0.000 A 
ATOM      6  C   UNL     1       5.206   4.019  13.282  0.00  0.00    +0.000 A 
ATOM      7  C   UNL     1       4.675   4.549  14.470  0.00  0.00    +0.000 A 
ATOM      8  C   UNL     1       5.549   5.193  15.368  0.00  0.00    +0.000 A 
ATOM      9  N   UNL     1       5.417   6.097  16.477  0.00  0.00    +0.000 N 
ENDROOT
BRANCH   1  11
ATOM     10  C   UNL     1       8.122   6.286  19.120  0.00  0.00    +0.000 C 
ATOM     11  C   UNL     1       7.316   7.044  18.105  0.00  0.00    +0.000 C 
ATOM     12  C   UNL     1       7.991   8.338  17.632  0.00  0.00    +0.000 C 
ENDBRANCH   1  11
BRANCH   9  13
ATOM     13  C   UNL     1       4.121   6.710  17.018  0.00  0.00    +0.000 C 
BRANCH  13  14
ATOM     14  C   UNL     1       3.355   5.900  18.086  0.00  0.00    +0.000 A 
ATOM     15  C   UNL     1       3.079   6.706  19.202  0.00  0.00    +0.000 A 
ATOM     16  C   UNL     1       2.006   6.447  19.975  0.00  0.00    +0.000 A 
ATOM     17  C   UNL     1       2.200   5.221  20.522  0.00  0.00    +0.000 A 
ATOM     18  C   UNL     1       2.479   4.215  19.611  0.00  0.00    +0.000 A 
ATOM     19  C   UNL     1       2.261   2.936  20.111  0.00  0.00    +0.000 A 
ATOM     20  C   UNL     1       2.065   1.889  19.241  0.00  0.00    +0.000 A 
ATOM     21  C   UNL     1       2.148   2.148  17.872  0.00  0.00    +0.000 A 
ATOM     22  C   UNL     1       2.588   3.414  17.378  0.00  0.00    +0.000 A 
ATOM     23  C   UNL     1       2.836   4.530  18.256  0.00  0.00    +0.000 A 
ENDBRANCH  13  14
ENDBRANCH   9  13
TORSDOF 3
ENDMDL
MODEL 5
REMARK VINA RESULT:      -8.0      1.869      6.482
REMARK  Name = 
REMARK  5 active torsions:
REMARK  status: ('A' for Active; 'I' for Inactive)
REMARK    1  A    between atoms: C_1  and  C_2
REMARK    2  A    between atoms: C_2  and  C_3
REMARK    3  A    between atoms: C_2  and  C_4
REMARK    4  A    between atoms: N_12  and  C_13
REMARK    5  A    between atoms: C_13  and  C_14
REMARK                            x       y       z     vdW  Elec       q    Type
REMARK                         _______ _______ _______ _____ _____    ______ ____
ROOT
ATOM      1  C   UNL     1       2.827   4.361  19.652  0.00  0.00    +0.000 A 
ATOM      2  N   UNL     1       2.406   5.309  20.474  0.00  0.00    +0.000 NA
ATOM      3  C   UNL     1       2.338   6.461  19.791  0.00  0.00    +0.000 A 
ATOM      4  C   UNL     1       1.818   7.685  20.213  0.00  0.00    +0.000 A 
ATOM      5  C   UNL     1       1.718   8.738  19.303  0.00  0.00    +0.000 A 
ATOM      6  C   UNL     1       2.244   8.588  18.025  0.00  0.00    +0.000 A 
ATOM      7  C   UNL     1       2.887   7.402  17.631  0.00  0.00    +0.000 A 
ATOM      8  C   UNL     1       2.812   6.282  18.482  0.00  0.00    +0.000 A 
ATOM      9  N   UNL     1       3.032   4.867  18.357  0.00  0.00    +0.000 N 
ENDROOT
BRANCH   1  11
ATOM     10  C   UNL     1       4.280   2.306  20.223  0.00  0.00    +0.000 C 
ATOM     11  C   UNL     1       2.940   2.982  20.253  0.00  0.00    +0.000 C 
ATOM     12  C   UNL     1       2.251   2.911  21.621  0.00  0.00    +0.000 C 
ENDBRANCH   1  11
BRANCH   9  13
ATOM     13  C   UNL     1       3.415   4.102  17.087  0.00  0.00    +0.000 C 
BRANCH  13  14
ATOM     14  C   UNL     1       4.831   4.347  16.521  0.00  0.00    +0.000 A 
ATOM     15  C   UNL     1       5.688   4.800  17.536  0.00  0.00    +0.000 A 
ATOM     16  C   UNL     1       7.012   4.559  17.460  0.00  0.00    +0.000 A 
ATOM     17  C   UNL     1       7.469   5.207  16.360  0.00  0.00    +0.000 A 
ATOM     18  C   UNL     1       6.789   4.917  15.189  0.00  0.00    +0.000 A 
ATOM     19  C   UNL     1       7.500   5.237  14.039  0.00  0.00    +0.000 A 
ATOM     20  C   UNL     1       7.177   4.630  12.847  0.00  0.00    +0.000 A 
ATOM     21  C   UNL     1       6.098   3.745  12.832  0.00  0.00    +0.000 A 
ATOM     22  C   UNL     1       5.242   3.594  13.965  0.00  0.00    +0.000 A 
ATOM     23  C   UNL     1       5.524   4.236  15.225  0.00  0.00    +0.000 A 
ENDBRANCH  13  14
ENDBRANCH   9  13
TORSDOF 3
ENDMDL
MODEL 6
REMARK VINA RESULT:      -7.9      2.263      4.849
REMARK  Name = 
REMARK  5 active torsions:
REMARK  status: ('A' for Active; 'I' for Inactive)
REMARK    1  A    between atoms: C_1  and  C_2
REMARK    2  A    between atoms: C_2  and  C_3
REMARK    3  A    between atoms: C_2  and  C_4
REMARK    4  A    between atoms: N_12  and  C_13
REMARK    5  A    between atoms: C_13  and  C_14
REMARK                            x       y       z     vdW  Elec       q    Type
REMARK                         _______ _______ _______ _____ _____    ______ ____
ROOT
ATOM      1  C   UNL     1       2.690   4.218  18.193  0.00  0.00    +0.000 A 
ATOM      2  N   UNL     1       3.246   3.575  17.177  0.00  0.00    +0.000 NA
ATOM      3  C   UNL     1       4.379   4.209  16.844  0.00  0.00    +0.000 A 
ATOM      4  C   UNL     1       5.354   3.812  15.928  0.00  0.00    +0.000 A 
ATOM      5  C   UNL     1       6.532   4.549  15.818  0.00  0.00    +0.000 A 
ATOM      6  C   UNL     1       6.668   5.732  16.536  0.00  0.00    +0.000 A 
ATOM      7  C   UNL     1       5.637   6.210  17.362  0.00  0.00    +0.000 A 
ATOM      8  C   UNL     1       4.537   5.369  17.621  0.00  0.00    +0.000 A 
ATOM      9  N   UNL     1       3.476   5.314  18.588  0.00  0.00    +0.000 N 
ENDROOT
BRANCH   1  11
ATOM     10  C   UNL     1       1.184   2.150  18.528  0.00  0.00    +0.000 C 
ATOM     11  C   UNL     1       1.408   3.623  18.716  0.00  0.00    +0.000 C 
ATOM     12  C   UNL     1       1.104   4.110  20.138  0.00  0.00    +0.000 C 
ENDBRANCH   1  11
BRANCH   9  13
ATOM     13  C   UNL     1       3.260   6.259  19.774  0.00  0.00    +0.000 C 
BRANCH  13  14
ATOM     14  C   UNL     1       2.357   7.489  19.536  0.00  0.00    +0.000 A 
ATOM     15  C   UNL     1       2.541   7.982  18.235  0.00  0.00    +0.000 A 
ATOM     16  C   UNL     1       1.542   8.640  17.613  0.00  0.00    +0.000 A 
ATOM     17  C   UNL     1       1.296   9.760  18.336  0.00  0.00    +0.000 A 
ATOM     18  C   UNL     1       1.058   9.544  19.683  0.00  0.00    +0.000 A 
ATOM     19  C   UNL     1       0.410  10.601  20.311  0.00  0.00    +0.000 A 
ATOM     20  C   UNL     1      -0.274  10.382  21.484  0.00  0.00    +0.000 A 
ATOM     21  C   UNL     1      -0.243   9.099  22.032  0.00  0.00    +0.000 A 
ATOM     22  C   UNL     1       0.604   8.080  21.498  0.00  0.00    +0.000 A 
ATOM     23  C   UNL     1       1.363   8.276  20.288  0.00  0.00    +0.000 A 
ENDBRANCH  13  14
ENDBRANCH   9  13
TORSDOF 3
ENDMDL
MODEL 7
REMARK VINA RESULT:      -7.8      3.176      4.512
REMARK  Name = 
REMARK  5 active torsions:
REMARK  status: ('A' for Active; 'I' for Inactive)
REMARK    1  A    between atoms: C_1  and  C_2
REMARK    2  A    between atoms: C_2  and  C_3
REMARK    3  A    between atoms: C_2  and  C_4
REMARK    4  A    between atoms: N_12  and  C_13
REMARK    5  A    between atoms: C_13  and  C_14
REMARK                            x       y       z     vdW  Elec       q    Type
REMARK                         _______ _______ _______ _____ _____    ______ ____
ROOT
ATOM      1  C   UNL     1       4.310   3.958  19.126  0.00  0.00    +0.000 A 
ATOM      2  N   UNL     1       5.629   3.903  19.221  0.00  0.00    +0.000 NA
ATOM      3  C   UNL     1       6.140   4.999  18.644  0.00  0.00    +0.000 A 
ATOM      4  C   UNL     1       7.469   5.428  18.629  0.00  0.00    +0.000 A 
ATOM      5  C   UNL     1       7.782   6.673  18.084  0.00  0.00    +0.000 A 
ATOM      6  C   UNL     1       6.786   7.414  17.459  0.00  0.00    +0.000 A 
ATOM      7  C   UNL     1       5.470   6.933  17.352  0.00  0.00    +0.000 A 
ATOM      8  C   UNL     1       5.118   5.773  18.071  0.00  0.00    +0.000 A 
ATOM      9  N   UNL     1       3.897   5.140  18.487  0.00  0.00    +0.000 N 
ENDROOT
BRANCH   1  11
ATOM     10  C   UNL     1       2.694   3.087  20.940  0.00  0.00    +0.000 C 
ATOM     11  C   UNL     1       3.564   2.805  19.750  0.00  0.00    +0.000 C 
ATOM     12  C   UNL     1       2.880   1.940  18.684  0.00  0.00    +0.000 C 
ENDBRANCH   1  11
BRANCH   9  13
ATOM     13  C   UNL     1       2.471   5.651  18.263  0.00  0.00    +0.000 C 
BRANCH  13  14
ATOM     14  C   UNL     1       2.040   6.901  19.060  0.00  0.00    +0.000 A 
ATOM     15  C   UNL     1       1.703   6.545  20.376  0.00  0.00    +0.000 A 
ATOM     16  C   UNL     1       1.836   7.441  21.374  0.00  0.00    +0.000 A 
ATOM     17  C   UNL     1       0.987   8.463  21.104  0.00  0.00    +0.000 A 
ATOM     18  C   UNL     1       1.127   9.019  19.843  0.00  0.00    +0.000 A 
ATOM     19  C   UNL     1       0.575  10.289  19.730  0.00  0.00    +0.000 A 
ATOM     20  C   UNL     1       0.999  11.130  18.728  0.00  0.00    +0.000 A 
ATOM     21  C   UNL     1       1.941  10.646  17.819  0.00  0.00    +0.000 A 
ATOM     22  C   UNL     1       2.334   9.273  17.813  0.00  0.00    +0.000 A 
ATOM     23  C   UNL     1       1.889   8.348  18.826  0.00  0.00    +0.000 A 
ENDBRANCH  13  14
ENDBRANCH   9  13
TORSDOF 3
ENDMDL
MODEL 8
REMARK VINA RESULT:      -7.8      2.319      5.635
REMARK  Name = 
REMARK  5 active torsions:
REMARK  status: ('A' for Active; 'I' for Inactive)
REMARK    1  A    between atoms: C_1  and  C_2
REMARK    2  A    between atoms: C_2  and  C_3
REMARK    3  A    between atoms: C_2  and  C_4
REMARK    4  A    between atoms: N_12  and  C_13
REMARK    5  A    between atoms: C_13  and  C_14
REMARK                            x       y       z     vdW  Elec       q    Type
REMARK                         _______ _______ _______ _____ _____    ______ ____
ROOT
ATOM      1  C   UNL     1       3.919   5.005  17.385  0.00  0.00    +0.000 A 
ATOM      2  N   UNL     1       3.399   3.814  17.134  0.00  0.00    +0.000 NA
ATOM      3  C   UNL     1       2.525   3.521  18.107  0.00  0.00    +0.000 A 
ATOM      4  C   UNL     1       1.646   2.438  18.182  0.00  0.00    +0.000 A 
ATOM      5  C   UNL     1       0.718   2.380  19.220  0.00  0.00    +0.000 A 
ATOM      6  C   UNL     1       0.759   3.337  20.228  0.00  0.00    +0.000 A 
ATOM      7  C   UNL     1       1.724   4.357  20.232  0.00  0.00    +0.000 A 
ATOM      8  C   UNL     1       2.529   4.526  19.087  0.00  0.00    +0.000 A 
ATOM      9  N   UNL     1       3.370   5.561  18.553  0.00  0.00    +0.000 N 
ENDROOT
BRANCH   1  11
ATOM     10  C   UNL     1       6.075   6.322  16.860  0.00  0.00    +0.000 C 
ATOM     11  C   UNL     1       4.914   5.507  16.369  0.00  0.00    +0.000 C 
ATOM     12  C   UNL     1       5.317   4.400  15.387  0.00  0.00    +0.000 C 
ENDBRANCH   1  11
BRANCH   9  13
ATOM     13  C   UNL     1       3.612   6.952  19.148  0.00  0.00    +0.000 C 
BRANCH  13  14
ATOM     14  C   UNL     1       2.421   7.935  19.137  0.00  0.00    +0.000 A 
ATOM     15  C   UNL     1       2.241   8.466  17.850  0.00  0.00    +0.000 A 
ATOM     16  C   UNL     1       1.020   8.873  17.451  0.00  0.00    +0.000 A 
ATOM     17  C   UNL     1       0.661   9.900  18.260  0.00  0.00    +0.000 A 
ATOM     18  C   UNL     1       0.735   9.626  19.616  0.00  0.00    +0.000 A 
ATOM     19  C   UNL     1      -0.011  10.497  20.401  0.00  0.00    +0.000 A 
ATOM     20  C   UNL     1      -0.395  10.116  21.666  0.00  0.00    +0.000 A 
ATOM     21  C   UNL     1       0.032   8.873  22.136  0.00  0.00    +0.000 A 
ATOM     22  C   UNL     1       0.976   8.086  21.409  0.00  0.00    +0.000 A 
ATOM     23  C   UNL     1       1.431   8.462  20.093  0.00  0.00    +0.000 A 
ENDBRANCH  13  14
ENDBRANCH   9  13
TORSDOF 3
ENDMDL
MODEL 9
REMARK VINA RESULT:      -7.6      2.068      6.575
REMARK  Name = 
REMARK  5 active torsions:
REMARK  status: ('A' for Active; 'I' for Inactive)
REMARK    1  A    between atoms: C_1  and  C_2
REMARK    2  A    between atoms: C_2  and  C_3
REMARK    3  A    between atoms: C_2  and  C_4
REMARK    4  A    between atoms: N_12  and  C_13
REMARK    5  A    between atoms: C_13  and  C_14
REMARK                            x       y       z     vdW  Elec       q    Type
REMARK                         _______ _______ _______ _____ _____    ______ ____
ROOT
ATOM      1  C   UNL     1       2.127   5.146  20.075  0.00  0.00    +0.000 A 
ATOM      2  N   UNL     1       1.693   6.206  20.739  0.00  0.00    +0.000 NA
ATOM      3  C   UNL     1       1.808   7.279  19.944  0.00  0.00    +0.000 A 
ATOM      4  C   UNL     1       1.349   8.577  20.173  0.00  0.00    +0.000 A 
ATOM      5  C   UNL     1       1.452   9.529  19.159  0.00  0.00    +0.000 A 
ATOM      6  C   UNL     1       2.114   9.204  17.981  0.00  0.00    +0.000 A 
ATOM      7  C   UNL     1       2.696   7.939  17.792  0.00  0.00    +0.000 A 
ATOM      8  C   UNL     1       2.421   6.925  18.731  0.00  0.00    +0.000 A 
ATOM      9  N   UNL     1       2.531   5.493  18.775  0.00  0.00    +0.000 N 
ENDROOT
BRANCH   1  11
ATOM     10  C   UNL     1       0.884   2.931  20.532  0.00  0.00    +0.000 C 
ATOM     11  C   UNL     1       2.047   3.836  20.818  0.00  0.00    +0.000 C 
ATOM     12  C   UNL     1       3.399   3.111  20.821  0.00  0.00    +0.000 C 
ENDBRANCH   1  11
BRANCH   9  13
ATOM     13  C   UNL     1       2.998   4.569  17.646  0.00  0.00    +0.000 C 
BRANCH  13  14
ATOM     14  C   UNL     1       4.476   4.686  17.211  0.00  0.00    +0.000 A 
ATOM     15  C   UNL     1       5.275   5.065  18.301  0.00  0.00    +0.000 A 
ATOM     16  C   UNL     1       6.574   4.708  18.343  0.00  0.00    +0.000 A 
ATOM     17  C   UNL     1       7.183   5.308  17.291  0.00  0.00    +0.000 A 
ATOM     18  C   UNL     1       6.588   5.075  16.063  0.00  0.00    +0.000 A 
ATOM     19  C   UNL     1       7.425   5.326  14.982  0.00  0.00    +0.000 A 
ATOM     20  C   UNL     1       7.158   4.746  13.764  0.00  0.00    +0.000 A 
ATOM     21  C   UNL     1       6.011   3.960  13.648  0.00  0.00    +0.000 A 
ATOM     22  C   UNL     1       5.046   3.889  14.699  0.00  0.00    +0.000 A 
ATOM     23  C   UNL     1       5.269   4.509  15.982  0.00  0.00    +0.000 A 
ENDBRANCH  13  14
ENDBRANCH   9  13
TORSDOF 3
ENDMDL
