MODEL 1
REMARK VINA RESULT:      -9.2      0.000      0.000
REMARK  Name = 
REMARK  6 active torsions:
REMARK  status: ('A' for Active; 'I' for Inactive)
REMARK    1  A    between atoms: C_2  and  C_10
REMARK    2  A    between atoms: N_3  and  C_4
REMARK    3  A    between atoms: C_14  and  C_15
REMARK    4  A    between atoms: C_15  and  O_16
REMARK    5  A    between atoms: O_16  and  C_17
REMARK    6  A    between atoms: C_20  and  C_21
REMARK                            x       y       z     vdW  Elec       q    Type
REMARK                         _______ _______ _______ _____ _____    ______ ____
ROOT
ATOM      1  C   UNL     1       7.894   7.771  18.090  0.00  0.00    +0.000 A 
ATOM      2  C   UNL     1       8.347   6.752  18.931  0.00  0.00    +0.000 A 
ATOM      3  C   UNL     1       7.903   5.443  18.730  0.00  0.00    +0.000 A 
ATOM      4  C   UNL     1       6.998   5.150  17.702  0.00  0.00    +0.000 A 
ATOM      5  C   UNL     1       6.513   6.170  16.878  0.00  0.00    +0.000 A 
ATOM      6  C   UNL     1       6.978   7.478  17.073  0.00  0.00    +0.000 A 
ENDROOT
BRANCH   1   8
ATOM      7  O   UNL     1       7.871  10.014  17.473  0.00  0.00    +0.000 OA
ATOM      8  C   UNL     1       8.307   9.188  18.268  0.00  0.00    +0.000 C 
ATOM      9  N   UNL     1       9.204   9.416  19.295  0.00  0.00    +0.000 N 
ATOM     10  H   UNL     1       9.613   8.605  19.741  0.00  0.00    +0.000 HD
BRANCH   9  11
ATOM     11  C   UNL     1       9.751  10.666  19.657  0.00  0.00    +0.000 A 
ATOM     12  C   UNL     1      10.697  11.343  18.883  0.00  0.00    +0.000 A 
ATOM     13  C   UNL     1      11.226  12.562  19.309  0.00  0.00    +0.000 A 
ATOM     14  C   UNL     1      10.809  13.122  20.513  0.00  0.00    +0.000 A 
ATOM     15  C   UNL     1       9.851  12.466  21.284  0.00  0.00    +0.000 A 
ATOM     16  C   UNL     1       9.316  11.249  20.852  0.00  0.00    +0.000 A 
ENDBRANCH   9  11
ENDBRANCH   1   8
BRANCH   5  17
ATOM     17  C   UNL     1       5.478   5.905  15.807  0.00  0.00    +0.000 C 
BRANCH  17  18
ATOM     18  O   UNL     1       4.826   4.666  16.083  0.00  0.00    +0.000 OA
BRANCH  18  19
ATOM     19  C   UNL     1       4.070   4.583  17.225  0.00  0.00    +0.000 A 
ATOM     20  C   UNL     1       3.916   3.264  17.688  0.00  0.00    +0.000 A 
ATOM     21  C   UNL     1       3.109   2.965  18.793  0.00  0.00    +0.000 A 
ATOM     22  C   UNL     1       2.422   3.983  19.461  0.00  0.00    +0.000 A 
ATOM     23  C   UNL     1       2.573   5.299  19.002  0.00  0.00    +0.000 A 
ATOM     24  C   UNL     1       3.375   5.602  17.891  0.00  0.00    +0.000 A 
ATOM     25 CL   UNL     1       3.329   7.259  17.406  0.00  0.00    +0.000 Cl
BRANCH  22  26
ATOM     26  C   UNL     1       1.509   3.705  20.629  0.00  0.00    +0.000 C 
ATOM     27  F   UNL     1       2.037   4.058  21.832  0.00  0.00    +0.000 F 
ATOM     28  F   UNL     1       0.325   4.370  20.528  0.00  0.00    +0.000 F 
ATOM     29  F   UNL     1       1.188   2.386  20.731  0.00  0.00    +0.000 F 
ENDBRANCH  22  26
ENDBRANCH  18  19
ENDBRANCH  17  18
ENDBRANCH   5  17
TORSDOF 6
ENDMDL
MODEL 2
REMARK VINA RESULT:      -9.1      0.775      1.146
REMARK  Name = 
REMARK  6 active torsions:
REMARK  status: ('A' for Active; 'I' for Inactive)
REMARK    1  A    between atoms: C_2  and  C_10
REMARK    2  A    between atoms: N_3  and  C_4
REMARK    3  A    between atoms: C_14  and  C_15
REMARK    4  A    between atoms: C_15  and  O_16
REMARK    5  A    between atoms: O_16  and  C_17
REMARK    6  A    between atoms: C_20  and  C_21
REMARK                            x       y       z     vdW  Elec       q    Type
REMARK                         _______ _______ _______ _____ _____    ______ ____
ROOT
ATOM      1  C   UNL     1       8.061   8.281  18.254  0.00  0.00    +0.000 A 
ATOM      2  C   UNL     1       8.520   7.261  19.091  0.00  0.00    +0.000 A 
ATOM      3  C   UNL     1       8.001   5.971  18.956  0.00  0.00    +0.000 A 
ATOM      4  C   UNL     1       7.014   5.699  18.000  0.00  0.00    +0.000 A 
ATOM      5  C   UNL     1       6.524   6.721  17.182  0.00  0.00    +0.000 A 
ATOM      6  C   UNL     1       7.064   8.008  17.309  0.00  0.00    +0.000 A 
ENDROOT
BRANCH   1   8
ATOM      7  O   UNL     1       8.214  10.474  17.494  0.00  0.00    +0.000 OA
ATOM      8  C   UNL     1       8.553   9.679  18.364  0.00  0.00    +0.000 C 
ATOM      9  N   UNL     1       9.405   9.922  19.425  0.00  0.00    +0.000 N 
ATOM     10  H   UNL     1       9.737   9.120  19.945  0.00  0.00    +0.000 HD
BRANCH   9  11
ATOM     11  C   UNL     1      10.011  11.159  19.737  0.00  0.00    +0.000 A 
ATOM     12  C   UNL     1      11.253  11.554  19.233  0.00  0.00    +0.000 A 
ATOM     13  C   UNL     1      11.815  12.776  19.603  0.00  0.00    +0.000 A 
ATOM     14  C   UNL     1      11.138  13.621  20.477  0.00  0.00    +0.000 A 
ATOM     15  C   UNL     1       9.889  13.247  20.970  0.00  0.00    +0.000 A 
ATOM     16  C   UNL     1       9.323  12.026  20.593  0.00  0.00    +0.000 A 
ENDBRANCH   9  11
ENDBRANCH   1   8
BRANCH   5  17
ATOM     17  C   UNL     1       5.406   6.482  16.191  0.00  0.00    +0.000 C 
BRANCH  17  18
ATOM     18  O   UNL     1       5.045   5.102  16.218  0.00  0.00    +0.000 OA
BRANCH  18  19
ATOM     19  C   UNL     1       4.090   4.709  17.123  0.00  0.00    +0.000 A 
ATOM     20  C   UNL     1       3.979   3.313  17.233  0.00  0.00    +0.000 A 
ATOM     21  C   UNL     1       3.003   2.716  18.043  0.00  0.00    +0.000 A 
ATOM     22  C   UNL     1       2.102   3.509  18.759  0.00  0.00    +0.000 A 
ATOM     23  C   UNL     1       2.210   4.903  18.652  0.00  0.00    +0.000 A 
ATOM     24  C   UNL     1       3.181   5.503  17.836  0.00  0.00    +0.000 A 
ATOM     25 CL   UNL     1       3.069   7.224  17.739  0.00  0.00    +0.000 Cl
BRANCH  22  26
ATOM     26  C   UNL     1       1.008   2.914  19.611  0.00  0.00    +0.000 C 
ATOM     27  F   UNL     1       0.066   2.239  18.898  0.00  0.00    +0.000 F 
ATOM     28  F   UNL     1       1.490   2.030  20.527  0.00  0.00    +0.000 F 
ATOM     29  F   UNL     1       0.335   3.860  20.322  0.00  0.00    +0.000 F 
ENDBRANCH  22  26
ENDBRANCH  18  19
ENDBRANCH  17  18
ENDBRANCH   5  17
TORSDOF 6
ENDMDL
MODEL 3
REMARK VINA RESULT:      -9.1      1.197      1.715
REMARK  Name = 
REMARK  6 active torsions:
REMARK  status: ('A' for Active; 'I' for Inactive)
REMARK    1  A    between atoms: C_2  and  C_10
REMARK    2  A    between atoms: N_3  and  C_4
REMARK    3  A    between atoms: C_14  and  C_15
REMARK    4  A    between atoms: C_15  and  O_16
REMARK    5  A    between atoms: O_16  and  C_17
REMARK    6  A    between atoms: C_20  and  C_21
REMARK                            x       y       z     vdW  Elec       q    Type
REMARK                         _______ _______ _______ _____ _____    ______ ____
ROOT
ATOM      1  C   UNL     1       7.868   7.652  18.091  0.00  0.00    +0.000 A 
ATOM      2  C   UNL     1       8.305   6.648  18.958  0.00  0.00    +0.000 A 
ATOM      3  C   UNL     1       7.891   5.330  18.752  0.00  0.00    +0.000 A 
ATOM      4  C   UNL     1       7.031   5.013  17.692  0.00  0.00    +0.000 A 
ATOM      5  C   UNL     1       6.562   6.017  16.840  0.00  0.00    +0.000 A 
ATOM      6  C   UNL     1       6.997   7.334  17.041  0.00  0.00    +0.000 A 
ENDROOT
BRANCH   1   8
ATOM      7  O   UNL     1       7.772   9.899  17.497  0.00  0.00    +0.000 OA
ATOM      8  C   UNL     1       8.251   9.077  18.271  0.00  0.00    +0.000 C 
ATOM      9  N   UNL     1       9.170   9.318  19.275  0.00  0.00    +0.000 N 
ATOM     10  H   UNL     1       9.612   8.513  19.700  0.00  0.00    +0.000 HD
BRANCH   9  11
ATOM     11  C   UNL     1       9.697  10.578  19.633  0.00  0.00    +0.000 A 
ATOM     12  C   UNL     1      10.585  11.296  18.829  0.00  0.00    +0.000 A 
ATOM     13  C   UNL     1      11.096  12.524  19.252  0.00  0.00    +0.000 A 
ATOM     14  C   UNL     1      10.720  13.050  20.484  0.00  0.00    +0.000 A 
ATOM     15  C   UNL     1       9.819  12.353  21.286  0.00  0.00    +0.000 A 
ATOM     16  C   UNL     1       9.301  11.127  20.858  0.00  0.00    +0.000 A 
ENDBRANCH   9  11
ENDBRANCH   1   8
BRANCH   5  17
ATOM     17  C   UNL     1       5.574   5.726  15.733  0.00  0.00    +0.000 C 
BRANCH  17  18
ATOM     18  O   UNL     1       4.899   4.501  16.018  0.00  0.00    +0.000 OA
BRANCH  18  19
ATOM     19  C   UNL     1       4.042   4.479  17.090  0.00  0.00    +0.000 A 
ATOM     20  C   UNL     1       3.615   5.761  17.479  0.00  0.00    +0.000 A 
ATOM     21  C   UNL     1       2.803   5.953  18.604  0.00  0.00    +0.000 A 
ATOM     22  C   UNL     1       2.403   4.860  19.379  0.00  0.00    +0.000 A 
ATOM     23  C   UNL     1       2.827   3.580  18.994  0.00  0.00    +0.000 A 
ATOM     24  C   UNL     1       3.647   3.385  17.872  0.00  0.00    +0.000 A 
ATOM     25 CL   UNL     1       4.164   1.754  17.639  0.00  0.00    +0.000 Cl
BRANCH  22  26
ATOM     26  C   UNL     1       1.564   5.020  20.623  0.00  0.00    +0.000 C 
ATOM     27  F   UNL     1       0.381   4.351  20.574  0.00  0.00    +0.000 F 
ATOM     28  F   UNL     1       2.204   4.573  21.738  0.00  0.00    +0.000 F 
ATOM     29  F   UNL     1       1.250   6.322  20.869  0.00  0.00    +0.000 F 
ENDBRANCH  22  26
ENDBRANCH  18  19
ENDBRANCH  17  18
ENDBRANCH   5  17
TORSDOF 6
ENDMDL
MODEL 4
REMARK VINA RESULT:      -9.1      0.434      1.028
REMARK  Name = 
REMARK  6 active torsions:
REMARK  status: ('A' for Active; 'I' for Inactive)
REMARK    1  A    between atoms: C_2  and  C_10
REMARK    2  A    between atoms: N_3  and  C_4
REMARK    3  A    between atoms: C_14  and  C_15
REMARK    4  A    between atoms: C_15  and  O_16
REMARK    5  A    between atoms: O_16  and  C_17
REMARK    6  A    between atoms: C_20  and  C_21
REMARK                            x       y       z     vdW  Elec       q    Type
REMARK                         _______ _______ _______ _____ _____    ______ ____
ROOT
ATOM      1  C   UNL     1       7.943   7.684  18.157  0.00  0.00    +0.000 A 
ATOM      2  C   UNL     1       8.347   6.704  19.066  0.00  0.00    +0.000 A 
ATOM      3  C   UNL     1       7.953   5.378  18.873  0.00  0.00    +0.000 A 
ATOM      4  C   UNL     1       7.144   5.030  17.783  0.00  0.00    +0.000 A 
ATOM      5  C   UNL     1       6.707   6.010  16.888  0.00  0.00    +0.000 A 
ATOM      6  C   UNL     1       7.122   7.335  17.077  0.00  0.00    +0.000 A 
ENDROOT
BRANCH   1   8
ATOM      7  O   UNL     1       7.802   9.925  17.549  0.00  0.00    +0.000 OA
ATOM      8  C   UNL     1       8.305   9.116  18.321  0.00  0.00    +0.000 C 
ATOM      9  N   UNL     1       9.237   9.379  19.309  0.00  0.00    +0.000 N 
ATOM     10  H   UNL     1       9.697   8.584  19.733  0.00  0.00    +0.000 HD
BRANCH   9  11
ATOM     11  C   UNL     1       9.749  10.650  19.650  0.00  0.00    +0.000 A 
ATOM     12  C   UNL     1       9.429  11.313  20.838  0.00  0.00    +0.000 A 
ATOM     13  C   UNL     1       9.943  12.582  21.105  0.00  0.00    +0.000 A 
ATOM     14  C   UNL     1      10.788  13.202  20.189  0.00  0.00    +0.000 A 
ATOM     15  C   UNL     1      11.130  12.542  19.010  0.00  0.00    +0.000 A 
ATOM     16  C   UNL     1      10.621  11.267  18.747  0.00  0.00    +0.000 A 
ENDBRANCH   9  11
ENDBRANCH   1   8
BRANCH   5  17
ATOM     17  C   UNL     1       5.772   5.684  15.744  0.00  0.00    +0.000 C 
BRANCH  17  18
ATOM     18  O   UNL     1       4.957   4.572  16.108  0.00  0.00    +0.000 OA
BRANCH  18  19
ATOM     19  C   UNL     1       4.182   4.689  17.235  0.00  0.00    +0.000 A 
ATOM     20  C   UNL     1       3.975   3.463  17.890  0.00  0.00    +0.000 A 
ATOM     21  C   UNL     1       3.143   3.363  19.013  0.00  0.00    +0.000 A 
ATOM     22  C   UNL     1       2.483   4.494  19.504  0.00  0.00    +0.000 A 
ATOM     23  C   UNL     1       2.687   5.719  18.852  0.00  0.00    +0.000 A 
ATOM     24  C   UNL     1       3.515   5.821  17.724  0.00  0.00    +0.000 A 
ATOM     25 CL   UNL     1       3.535   7.385  16.991  0.00  0.00    +0.000 Cl
BRANCH  22  26
ATOM     26  C   UNL     1       1.544   4.429  20.682  0.00  0.00    +0.000 C 
ATOM     27  F   UNL     1       2.141   4.023  21.836  0.00  0.00    +0.000 F 
ATOM     28  F   UNL     1       0.976   5.635  20.957  0.00  0.00    +0.000 F 
ATOM     29  F   UNL     1       0.510   3.569  20.471  0.00  0.00    +0.000 F 
ENDBRANCH  22  26
ENDBRANCH  18  19
ENDBRANCH  17  18
ENDBRANCH   5  17
TORSDOF 6
ENDMDL
MODEL 5
REMARK VINA RESULT:      -9.0      2.111      2.894
REMARK  Name = 
REMARK  6 active torsions:
REMARK  status: ('A' for Active; 'I' for Inactive)
REMARK    1  A    between atoms: C_2  and  C_10
REMARK    2  A    between atoms: N_3  and  C_4
REMARK    3  A    between atoms: C_14  and  C_15
REMARK    4  A    between atoms: C_15  and  O_16
REMARK    5  A    between atoms: O_16  and  C_17
REMARK    6  A    between atoms: C_20  and  C_21
REMARK                            x       y       z     vdW  Elec       q    Type
REMARK                         _______ _______ _______ _____ _____    ______ ____
ROOT
ATOM      1  C   UNL     1       7.864   7.958  18.178  0.00  0.00    +0.000 A 
ATOM      2  C   UNL     1       8.412   6.900  18.906  0.00  0.00    +0.000 A 
ATOM      3  C   UNL     1       7.881   5.616  18.766  0.00  0.00    +0.000 A 
ATOM      4  C   UNL     1       6.795   5.387  17.912  0.00  0.00    +0.000 A 
ATOM      5  C   UNL     1       6.218   6.445  17.205  0.00  0.00    +0.000 A 
ATOM      6  C   UNL     1       6.769   7.728  17.336  0.00  0.00    +0.000 A 
ENDROOT
BRANCH   1   8
ATOM      7  O   UNL     1       7.997  10.168  17.466  0.00  0.00    +0.000 OA
ATOM      8  C   UNL     1       8.365   9.351  18.302  0.00  0.00    +0.000 C 
ATOM      9  N   UNL     1       9.260   9.566  19.335  0.00  0.00    +0.000 N 
ATOM     10  H   UNL     1       9.608   8.750  19.821  0.00  0.00    +0.000 HD
BRANCH   9  11
ATOM     11  C   UNL     1       9.882  10.792  19.653  0.00  0.00    +0.000 A 
ATOM     12  C   UNL     1       9.478  11.606  20.714  0.00  0.00    +0.000 A 
ATOM     13  C   UNL     1      10.113  12.824  20.960  0.00  0.00    +0.000 A 
ATOM     14  C   UNL     1      11.165  13.240  20.149  0.00  0.00    +0.000 A 
ATOM     15  C   UNL     1      11.591  12.427  19.100  0.00  0.00    +0.000 A 
ATOM     16  C   UNL     1      10.959  11.204  18.859  0.00  0.00    +0.000 A 
ENDBRANCH   9  11
ENDBRANCH   1   8
BRANCH   5  17
ATOM     17  C   UNL     1       4.998   6.251  16.332  0.00  0.00    +0.000 C 
BRANCH  17  18
ATOM     18  O   UNL     1       4.047   5.447  17.030  0.00  0.00    +0.000 OA
BRANCH  18  19
ATOM     19  C   UNL     1       3.290   6.053  18.002  0.00  0.00    +0.000 A 
ATOM     20  C   UNL     1       2.937   7.374  17.679  0.00  0.00    +0.000 A 
ATOM     21  C   UNL     1       2.236   8.187  18.580  0.00  0.00    +0.000 A 
ATOM     22  C   UNL     1       1.877   7.696  19.838  0.00  0.00    +0.000 A 
ATOM     23  C   UNL     1       2.227   6.378  20.164  0.00  0.00    +0.000 A 
ATOM     24  C   UNL     1       2.936   5.564  19.267  0.00  0.00    +0.000 A 
ATOM     25 CL   UNL     1       3.383   4.021  19.901  0.00  0.00    +0.000 Cl
BRANCH  22  26
ATOM     26  C   UNL     1       1.159   8.545  20.858  0.00  0.00    +0.000 C 
ATOM     27  F   UNL     1       0.019   7.977  21.338  0.00  0.00    +0.000 F 
ATOM     28  F   UNL     1       1.933   8.811  21.946  0.00  0.00    +0.000 F 
ATOM     29  F   UNL     1       0.792   9.756  20.355  0.00  0.00    +0.000 F 
ENDBRANCH  22  26
ENDBRANCH  18  19
ENDBRANCH  17  18
ENDBRANCH   5  17
TORSDOF 6
ENDMDL
MODEL 6
REMARK VINA RESULT:      -8.7      6.952      8.744
REMARK  Name = 
REMARK  6 active torsions:
REMARK  status: ('A' for Active; 'I' for Inactive)
REMARK    1  A    between atoms: C_2  and  C_10
REMARK    2  A    between atoms: N_3  and  C_4
REMARK    3  A    between atoms: C_14  and  C_15
REMARK    4  A    between atoms: C_15  and  O_16
REMARK    5  A    between atoms: O_16  and  C_17
REMARK    6  A    between atoms: C_20  and  C_21
REMARK                            x       y       z     vdW  Elec       q    Type
REMARK                         _______ _______ _______ _____ _____    ______ ____
ROOT
ATOM      1  C   UNL     1       0.314  10.396  20.701  0.00  0.00    +0.000 A 
ATOM      2  C   UNL     1       0.301  11.083  19.485  0.00  0.00    +0.000 A 
ATOM      3  C   UNL     1       0.876  10.498  18.355  0.00  0.00    +0.000 A 
ATOM      4  C   UNL     1       1.478   9.236  18.437  0.00  0.00    +0.000 A 
ATOM      5  C   UNL     1       1.526   8.556  19.657  0.00  0.00    +0.000 A 
ATOM      6  C   UNL     1       0.930   9.140  20.783  0.00  0.00    +0.000 A 
ENDROOT
BRANCH   1   8
ATOM      7  O   UNL     1       0.039  10.443  23.010  0.00  0.00    +0.000 OA
ATOM      8  C   UNL     1      -0.257  10.973  21.945  0.00  0.00    +0.000 C 
ATOM      9  N   UNL     1      -1.127  12.032  21.759  0.00  0.00    +0.000 N 
ATOM     10  H   UNL     1      -1.415  12.232  20.809  0.00  0.00    +0.000 HD
BRANCH   9  11
ATOM     11  C   UNL     1      -1.804  12.740  22.775  0.00  0.00    +0.000 A 
ATOM     12  C   UNL     1      -1.298  13.899  23.370  0.00  0.00    +0.000 A 
ATOM     13  C   UNL     1      -1.999  14.538  24.394  0.00  0.00    +0.000 A 
ATOM     14  C   UNL     1      -3.218  14.028  24.830  0.00  0.00    +0.000 A 
ATOM     15  C   UNL     1      -3.742  12.884  24.231  0.00  0.00    +0.000 A 
ATOM     16  C   UNL     1      -3.042  12.248  23.201  0.00  0.00    +0.000 A 
ENDBRANCH   9  11
ENDBRANCH   1   8
BRANCH   5  17
ATOM     17  C   UNL     1       2.234   7.227  19.802  0.00  0.00    +0.000 C 
BRANCH  17  18
ATOM     18  O   UNL     1       2.014   6.450  18.625  0.00  0.00    +0.000 OA
BRANCH  18  19
ATOM     19  C   UNL     1       3.102   5.845  18.047  0.00  0.00    +0.000 A 
ATOM     20  C   UNL     1       4.040   6.763  17.546  0.00  0.00    +0.000 A 
ATOM     21  C   UNL     1       5.178   6.341  16.846  0.00  0.00    +0.000 A 
ATOM     22  C   UNL     1       5.401   4.980  16.620  0.00  0.00    +0.000 A 
ATOM     23  C   UNL     1       4.466   4.060  17.118  0.00  0.00    +0.000 A 
ATOM     24  C   UNL     1       3.322   4.480  17.813  0.00  0.00    +0.000 A 
ATOM     25 CL   UNL     1       2.232   3.208  18.232  0.00  0.00    +0.000 Cl
BRANCH  22  26
ATOM     26  C   UNL     1       6.589   4.478  15.836  0.00  0.00    +0.000 C 
ATOM     27  F   UNL     1       7.660   4.158  16.611  0.00  0.00    +0.000 F 
ATOM     28  F   UNL     1       6.297   3.360  15.116  0.00  0.00    +0.000 F 
ATOM     29  F   UNL     1       7.037   5.396  14.936  0.00  0.00    +0.000 F 
ENDBRANCH  22  26
ENDBRANCH  18  19
ENDBRANCH  17  18
ENDBRANCH   5  17
TORSDOF 6
ENDMDL
MODEL 7
REMARK VINA RESULT:      -8.7      6.990      8.809
REMARK  Name = 
REMARK  6 active torsions:
REMARK  status: ('A' for Active; 'I' for Inactive)
REMARK    1  A    between atoms: C_2  and  C_10
REMARK    2  A    between atoms: N_3  and  C_4
REMARK    3  A    between atoms: C_14  and  C_15
REMARK    4  A    between atoms: C_15  and  O_16
REMARK    5  A    between atoms: O_16  and  C_17
REMARK    6  A    between atoms: C_20  and  C_21
REMARK                            x       y       z     vdW  Elec       q    Type
REMARK                         _______ _______ _______ _____ _____    ______ ____
ROOT
ATOM      1  C   UNL     1       0.149  10.309  20.773  0.00  0.00    +0.000 A 
ATOM      2  C   UNL     1      -0.051  10.891  19.519  0.00  0.00    +0.000 A 
ATOM      3  C   UNL     1       0.499  10.291  18.384  0.00  0.00    +0.000 A 
ATOM      4  C   UNL     1       1.261   9.121  18.498  0.00  0.00    +0.000 A 
ATOM      5  C   UNL     1       1.494   8.551  19.752  0.00  0.00    +0.000 A 
ATOM      6  C   UNL     1       0.923   9.147  20.885  0.00  0.00    +0.000 A 
ENDROOT
BRANCH   1   8
ATOM      7  O   UNL     1      -0.031  10.425  23.089  0.00  0.00    +0.000 OA
ATOM      8  C   UNL     1      -0.387  10.911  22.021  0.00  0.00    +0.000 C 
ATOM      9  N   UNL     1      -1.296  11.937  21.838  0.00  0.00    +0.000 N 
ATOM     10  H   UNL     1      -1.629  12.097  20.896  0.00  0.00    +0.000 HD
BRANCH   9  11
ATOM     11  C   UNL     1      -1.950  12.659  22.860  0.00  0.00    +0.000 A 
ATOM     12  C   UNL     1      -3.195  12.295  23.380  0.00  0.00    +0.000 A 
ATOM     13  C   UNL     1      -3.807  13.068  24.368  0.00  0.00    +0.000 A 
ATOM     14  C   UNL     1      -3.177  14.210  24.853  0.00  0.00    +0.000 A 
ATOM     15  C   UNL     1      -1.926  14.572  24.356  0.00  0.00    +0.000 A 
ATOM     16  C   UNL     1      -1.311  13.794  23.371  0.00  0.00    +0.000 A 
ENDBRANCH   9  11
ENDBRANCH   1   8
BRANCH   5  17
ATOM     17  C   UNL     1       2.374   7.332  19.923  0.00  0.00    +0.000 C 
BRANCH  17  18
ATOM     18  O   UNL     1       1.932   6.309  19.032  0.00  0.00    +0.000 OA
BRANCH  18  19
ATOM     19  C   UNL     1       2.872   5.709  18.231  0.00  0.00    +0.000 A 
ATOM     20  C   UNL     1       3.830   6.612  17.739  0.00  0.00    +0.000 A 
ATOM     21  C   UNL     1       4.823   6.207  16.837  0.00  0.00    +0.000 A 
ATOM     22  C   UNL     1       4.876   4.882  16.395  0.00  0.00    +0.000 A 
ATOM     23  C   UNL     1       3.921   3.979  16.884  0.00  0.00    +0.000 A 
ATOM     24  C   UNL     1       2.921   4.382  17.782  0.00  0.00    +0.000 A 
ATOM     25 CL   UNL     1       1.766   3.156  18.165  0.00  0.00    +0.000 Cl
BRANCH  22  26
ATOM     26  C   UNL     1       5.899   4.408  15.393  0.00  0.00    +0.000 C 
ATOM     27  F   UNL     1       6.133   3.068  15.442  0.00  0.00    +0.000 F 
ATOM     28  F   UNL     1       5.531   4.679  14.111  0.00  0.00    +0.000 F 
ATOM     29  F   UNL     1       7.109   5.007  15.569  0.00  0.00    +0.000 F 
ENDBRANCH  22  26
ENDBRANCH  18  19
ENDBRANCH  17  18
ENDBRANCH   5  17
TORSDOF 6
ENDMDL
MODEL 8
REMARK VINA RESULT:      -8.7      6.058      9.004
REMARK  Name = 
REMARK  6 active torsions:
REMARK  status: ('A' for Active; 'I' for Inactive)
REMARK    1  A    between atoms: C_2  and  C_10
REMARK    2  A    between atoms: N_3  and  C_4
REMARK    3  A    between atoms: C_14  and  C_15
REMARK    4  A    between atoms: C_15  and  O_16
REMARK    5  A    between atoms: O_16  and  C_17
REMARK    6  A    between atoms: C_20  and  C_21
REMARK                            x       y       z     vdW  Elec       q    Type
REMARK                         _______ _______ _______ _____ _____    ______ ____
ROOT
ATOM      1  C   UNL     1      -0.744  10.590  20.736  0.00  0.00    +0.000 A 
ATOM      2  C   UNL     1      -1.119  11.032  22.007  0.00  0.00    +0.000 A 
ATOM      3  C   UNL     1      -0.521  10.472  23.138  0.00  0.00    +0.000 A 
ATOM      4  C   UNL     1       0.440   9.460  23.005  0.00  0.00    +0.000 A 
ATOM      5  C   UNL     1       0.796   8.989  21.738  0.00  0.00    +0.000 A 
ATOM      6  C   UNL     1       0.206   9.569  20.607  0.00  0.00    +0.000 A 
ENDROOT
BRANCH   1   8
ATOM      7  O   UNL     1      -1.294  12.336  19.301  0.00  0.00    +0.000 OA
ATOM      8  C   UNL     1      -1.361  11.127  19.495  0.00  0.00    +0.000 C 
ATOM      9  N   UNL     1      -2.010  10.194  18.708  0.00  0.00    +0.000 N 
ATOM     10  H   UNL     1      -2.138   9.269  19.098  0.00  0.00    +0.000 HD
BRANCH   9  11
ATOM     11  C   UNL     1      -2.679  10.454  17.493  0.00  0.00    +0.000 A 
ATOM     12  C   UNL     1      -3.813  11.266  17.399  0.00  0.00    +0.000 A 
ATOM     13  C   UNL     1      -4.450  11.460  16.173  0.00  0.00    +0.000 A 
ATOM     14  C   UNL     1      -3.957  10.849  15.024  0.00  0.00    +0.000 A 
ATOM     15  C   UNL     1      -2.815  10.054  15.101  0.00  0.00    +0.000 A 
ATOM     16  C   UNL     1      -2.173   9.865  16.329  0.00  0.00    +0.000 A 
ENDBRANCH   9  11
ENDBRANCH   1   8
BRANCH   5  17
ATOM     17  C   UNL     1       1.773   7.847  21.558  0.00  0.00    +0.000 C 
BRANCH  17  18
ATOM     18  O   UNL     1       2.094   7.721  20.174  0.00  0.00    +0.000 OA
BRANCH  18  19
ATOM     19  C   UNL     1       2.209   6.454  19.658  0.00  0.00    +0.000 A 
ATOM     20  C   UNL     1       1.606   5.475  20.466  0.00  0.00    +0.000 A 
ATOM     21  C   UNL     1       1.689   4.112  20.151  0.00  0.00    +0.000 A 
ATOM     22  C   UNL     1       2.392   3.692  19.018  0.00  0.00    +0.000 A 
ATOM     23  C   UNL     1       2.995   4.667  18.210  0.00  0.00    +0.000 A 
ATOM     24  C   UNL     1       2.919   6.032  18.526  0.00  0.00    +0.000 A 
ATOM     25 CL   UNL     1       3.833   7.059  17.480  0.00  0.00    +0.000 Cl
BRANCH  22  26
ATOM     26  C   UNL     1       2.545   2.234  18.661  0.00  0.00    +0.000 C 
ATOM     27  F   UNL     1       3.772   1.725  18.956  0.00  0.00    +0.000 F 
ATOM     28  F   UNL     1       1.644   1.446  19.309  0.00  0.00    +0.000 F 
ATOM     29  F   UNL     1       2.354   2.006  17.332  0.00  0.00    +0.000 F 
ENDBRANCH  22  26
ENDBRANCH  18  19
ENDBRANCH  17  18
ENDBRANCH   5  17
TORSDOF 6
ENDMDL
MODEL 9
REMARK VINA RESULT:      -8.7      5.860      7.772
REMARK  Name = 
REMARK  6 active torsions:
REMARK  status: ('A' for Active; 'I' for Inactive)
REMARK    1  A    between atoms: C_2  and  C_10
REMARK    2  A    between atoms: N_3  and  C_4
REMARK    3  A    between atoms: C_14  and  C_15
REMARK    4  A    between atoms: C_15  and  O_16
REMARK    5  A    between atoms: O_16  and  C_17
REMARK    6  A    between atoms: C_20  and  C_21
REMARK                            x       y       z     vdW  Elec       q    Type
REMARK                         _______ _______ _______ _____ _____    ______ ____
ROOT
ATOM      1  C   UNL     1       2.293   6.013  20.159  0.00  0.00    +0.000 A 
ATOM      2  C   UNL     1       1.532   4.912  20.556  0.00  0.00    +0.000 A 
ATOM      3  C   UNL     1       2.084   3.630  20.491  0.00  0.00    +0.000 A 
ATOM      4  C   UNL     1       3.388   3.443  20.016  0.00  0.00    +0.000 A 
ATOM      5  C   UNL     1       4.145   4.535  19.584  0.00  0.00    +0.000 A 
ATOM      6  C   UNL     1       3.592   5.820  19.670  0.00  0.00    +0.000 A 
ENDROOT
BRANCH   1   8
ATOM      7  O   UNL     1       2.145   8.175  19.314  0.00  0.00    +0.000 OA
ATOM      8  C   UNL     1       1.755   7.398  20.179  0.00  0.00    +0.000 C 
ATOM      9  N   UNL     1       0.901   7.684  21.228  0.00  0.00    +0.000 N 
ATOM     10  H   UNL     1       0.826   6.993  21.964  0.00  0.00    +0.000 HD
BRANCH   9  11
ATOM     11  C   UNL     1       0.272   8.924  21.472  0.00  0.00    +0.000 A 
ATOM     12  C   UNL     1      -0.011   9.401  22.754  0.00  0.00    +0.000 A 
ATOM     13  C   UNL     1      -0.665  10.622  22.931  0.00  0.00    +0.000 A 
ATOM     14  C   UNL     1      -1.037  11.382  21.827  0.00  0.00    +0.000 A 
ATOM     15  C   UNL     1      -0.743  10.925  20.544  0.00  0.00    +0.000 A 
ATOM     16  C   UNL     1      -0.081   9.706  20.367  0.00  0.00    +0.000 A 
ENDBRANCH   9  11
ENDBRANCH   1   8
BRANCH   5  17
ATOM     17  C   UNL     1       5.528   4.364  18.994  0.00  0.00    +0.000 C 
BRANCH  17  18
ATOM     18  O   UNL     1       5.695   5.289  17.920  0.00  0.00    +0.000 OA
BRANCH  18  19
ATOM     19  C   UNL     1       5.768   4.783  16.647  0.00  0.00    +0.000 A 
ATOM     20  C   UNL     1       6.935   5.170  15.967  0.00  0.00    +0.000 A 
ATOM     21  C   UNL     1       7.152   4.824  14.627  0.00  0.00    +0.000 A 
ATOM     22  C   UNL     1       6.195   4.085  13.926  0.00  0.00    +0.000 A 
ATOM     23  C   UNL     1       5.029   3.697  14.601  0.00  0.00    +0.000 A 
ATOM     24  C   UNL     1       4.805   4.048  15.941  0.00  0.00    +0.000 A 
ATOM     25 CL   UNL     1       3.257   3.587  16.553  0.00  0.00    +0.000 Cl
BRANCH  22  26
ATOM     26  C   UNL     1       6.364   3.723  12.471  0.00  0.00    +0.000 C 
ATOM     27  F   UNL     1       7.269   4.500  11.816  0.00  0.00    +0.000 F 
ATOM     28  F   UNL     1       6.780   2.438  12.304  0.00  0.00    +0.000 F 
ATOM     29  F   UNL     1       5.200   3.833  11.774  0.00  0.00    +0.000 F 
ENDBRANCH  22  26
ENDBRANCH  18  19
ENDBRANCH  17  18
ENDBRANCH   5  17
TORSDOF 6
ENDMDL
