MODEL 1
REMARK VINA RESULT:      -8.5      0.000      0.000
REMARK  Name = 
REMARK  7 active torsions:
REMARK  status: ('A' for Active; 'I' for Inactive)
REMARK    1  A    between atoms: C_1  and  C_2
REMARK    2  A    between atoms: C_2  and  C_3
REMARK    3  A    between atoms: C_2  and  S_4
REMARK    4  A    between atoms: S_4  and  C_7
REMARK    5  A    between atoms: C_12  and  N_13
REMARK    6  A    between atoms: C_17  and  C_18
REMARK    7  A    between atoms: C_25  and  O_26
REMARK                            x       y       z     vdW  Elec       q    Type
REMARK                         _______ _______ _______ _____ _____    ______ ____
ROOT
ATOM      1  C   UNL     1       3.716   4.754  17.473  0.00  0.00    +0.000 A 
ATOM      2  C   UNL     1       4.274   3.493  17.232  0.00  0.00    +0.000 A 
ATOM      3 CL   UNL     1       3.452   1.988  17.440  0.00  0.00    +0.000 Cl
ATOM      4  C   UNL     1       5.568   3.390  16.714  0.00  0.00    +0.000 A 
ATOM      5  C   UNL     1       6.327   4.528  16.434  0.00  0.00    +0.000 A 
ATOM      6  C   UNL     1       5.785   5.796  16.632  0.00  0.00    +0.000 A 
ATOM      7  C   UNL     1       4.468   5.891  17.132  0.00  0.00    +0.000 A 
ENDROOT
BRANCH   6   8
ATOM      8  N   UNL     1       6.554   6.977  16.431  0.00  0.00    +0.000 N 
ATOM      9  C   UNL     1       7.348   7.504  17.397  0.00  0.00    +0.000 A 
ATOM     10  N   UNL     1       7.964   6.925  18.403  0.00  0.00    +0.000 NA
ATOM     11  N   UNL     1       8.687   7.883  19.077  0.00  0.00    +0.000 NA
ATOM     12  C   UNL     1       8.516   9.043  18.470  0.00  0.00    +0.000 A 
ATOM     13  N   UNL     1       7.653   8.838  17.420  0.00  0.00    +0.000 N 
ATOM     14  H   UNL     1       6.037   7.605  15.818  0.00  0.00    +0.000 HD
ATOM     15  H   UNL     1       7.322   9.536  16.776  0.00  0.00    +0.000 HD
BRANCH  12  16
ATOM     16  C   UNL     1       9.147  10.319  18.822  0.00  0.00    +0.000 A 
ATOM     17  C   UNL     1       9.578  10.537  20.141  0.00  0.00    +0.000 A 
ATOM     18  C   UNL     1      10.196  11.737  20.508  0.00  0.00    +0.000 A 
ATOM     19  C   UNL     1      10.390  12.739  19.561  0.00  0.00    +0.000 A 
ATOM     20  C   UNL     1       9.969  12.540  18.250  0.00  0.00    +0.000 A 
ATOM     21  C   UNL     1       9.351  11.340  17.883  0.00  0.00    +0.000 A 
ENDBRANCH  12  16
ENDBRANCH   6   8
BRANCH   1  22
ATOM     22  S   UNL     1       2.139   4.940  18.289  0.00  0.00    +0.000 S 
ATOM     23  O   UNL     1       1.096   4.441  17.404  0.00  0.00    +0.000 OA
ATOM     24  O   UNL     1       2.024   6.311  18.749  0.00  0.00    +0.000 OA
BRANCH  22  26
ATOM     25  C   UNL     1       2.279   4.737  21.004  0.00  0.00    +0.000 C 
ATOM     26  C   UNL     1       2.200   3.878  19.739  0.00  0.00    +0.000 C 
ATOM     27  C   UNL     1       1.008   2.937  19.832  0.00  0.00    +0.000 C 
ENDBRANCH  22  26
ENDBRANCH   1  22
BRANCH   7  28
ATOM     28  O   UNL     1       3.905   7.142  17.173  0.00  0.00    +0.000 OA
ATOM     29  H   UNL     1       4.639   7.780  17.252  0.00  0.00    +0.000 HD
ENDBRANCH   7  28
TORSDOF 5
ENDMDL
MODEL 2
REMARK VINA RESULT:      -7.8      0.729      1.309
REMARK  Name = 
REMARK  7 active torsions:
REMARK  status: ('A' for Active; 'I' for Inactive)
REMARK    1  A    between atoms: C_1  and  C_2
REMARK    2  A    between atoms: C_2  and  C_3
REMARK    3  A    between atoms: C_2  and  S_4
REMARK    4  A    between atoms: S_4  and  C_7
REMARK    5  A    between atoms: C_12  and  N_13
REMARK    6  A    between atoms: C_17  and  C_18
REMARK    7  A    between atoms: C_25  and  O_26
REMARK                            x       y       z     vdW  Elec       q    Type
REMARK                         _______ _______ _______ _____ _____    ______ ____
ROOT
ATOM      1  C   UNL     1       3.553   4.793  17.750  0.00  0.00    +0.000 A 
ATOM      2  C   UNL     1       3.875   3.594  17.104  0.00  0.00    +0.000 A 
ATOM      3 CL   UNL     1       2.978   2.124  17.236  0.00  0.00    +0.000 Cl
ATOM      4  C   UNL     1       4.953   3.548  16.215  0.00  0.00    +0.000 A 
ATOM      5  C   UNL     1       5.728   4.681  15.960  0.00  0.00    +0.000 A 
ATOM      6  C   UNL     1       5.411   5.896  16.564  0.00  0.00    +0.000 A 
ATOM      7  C   UNL     1       4.305   5.940  17.441  0.00  0.00    +0.000 A 
ENDROOT
BRANCH   6   8
ATOM      8  N   UNL     1       6.223   7.052  16.389  0.00  0.00    +0.000 N 
ATOM      9  C   UNL     1       7.110   7.470  17.326  0.00  0.00    +0.000 A 
ATOM     10  N   UNL     1       7.766   6.792  18.240  0.00  0.00    +0.000 NA
ATOM     11  N   UNL     1       8.583   7.663  18.923  0.00  0.00    +0.000 NA
ATOM     12  C   UNL     1       8.429   8.871  18.413  0.00  0.00    +0.000 A 
ATOM     13  N   UNL     1       7.483   8.784  17.420  0.00  0.00    +0.000 N 
ATOM     14  H   UNL     1       5.696   7.747  15.861  0.00  0.00    +0.000 HD
ATOM     15  H   UNL     1       7.143   9.541  16.853  0.00  0.00    +0.000 HD
BRANCH  12  16
ATOM     16  C   UNL     1       9.147  10.088  18.806  0.00  0.00    +0.000 A 
ATOM     17  C   UNL     1       9.663  10.937  17.814  0.00  0.00    +0.000 A 
ATOM     18  C   UNL     1      10.341  12.113  18.152  0.00  0.00    +0.000 A 
ATOM     19  C   UNL     1      10.515  12.456  19.490  0.00  0.00    +0.000 A 
ATOM     20  C   UNL     1      10.010  11.626  20.487  0.00  0.00    +0.000 A 
ATOM     21  C   UNL     1       9.332  10.450  20.148  0.00  0.00    +0.000 A 
ENDBRANCH  12  16
ENDBRANCH   6   8
BRANCH   1  22
ATOM     22  S   UNL     1       2.297   4.866  19.017  0.00  0.00    +0.000 S 
ATOM     23  O   UNL     1       1.093   4.220  18.515  0.00  0.00    +0.000 OA
ATOM     24  O   UNL     1       2.180   6.242  19.461  0.00  0.00    +0.000 OA
BRANCH  22  26
ATOM     25  C   UNL     1       1.925   2.788  20.742  0.00  0.00    +0.000 C 
ATOM     26  C   UNL     1       2.924   3.896  20.395  0.00  0.00    +0.000 C 
ATOM     27  C   UNL     1       4.290   3.286  20.115  0.00  0.00    +0.000 C 
ENDBRANCH  22  26
ENDBRANCH   1  22
BRANCH   7  28
ATOM     28  O   UNL     1       3.921   7.175  17.899  0.00  0.00    +0.000 OA
ATOM     29  H   UNL     1       4.688   7.553  18.369  0.00  0.00    +0.000 HD
ENDBRANCH   7  28
TORSDOF 5
ENDMDL
MODEL 3
REMARK VINA RESULT:      -7.8      1.149      1.414
REMARK  Name = 
REMARK  7 active torsions:
REMARK  status: ('A' for Active; 'I' for Inactive)
REMARK    1  A    between atoms: C_1  and  C_2
REMARK    2  A    between atoms: C_2  and  C_3
REMARK    3  A    between atoms: C_2  and  S_4
REMARK    4  A    between atoms: S_4  and  C_7
REMARK    5  A    between atoms: C_12  and  N_13
REMARK    6  A    between atoms: C_17  and  C_18
REMARK    7  A    between atoms: C_25  and  O_26
REMARK                            x       y       z     vdW  Elec       q    Type
REMARK                         _______ _______ _______ _____ _____    ______ ____
ROOT
ATOM      1  C   UNL     1       4.134   4.458  18.164  0.00  0.00    +0.000 A 
ATOM      2  C   UNL     1       4.474   3.319  17.426  0.00  0.00    +0.000 A 
ATOM      3 CL   UNL     1       3.773   1.754  17.638  0.00  0.00    +0.000 Cl
ATOM      4  C   UNL     1       5.394   3.415  16.378  0.00  0.00    +0.000 A 
ATOM      5  C   UNL     1       5.991   4.634  16.051  0.00  0.00    +0.000 A 
ATOM      6  C   UNL     1       5.647   5.791  16.747  0.00  0.00    +0.000 A 
ATOM      7  C   UNL     1       4.698   5.690  17.788  0.00  0.00    +0.000 A 
ENDROOT
BRANCH   6   8
ATOM      8  N   UNL     1       6.290   7.035  16.493  0.00  0.00    +0.000 N 
ATOM      9  C   UNL     1       7.184   7.583  17.354  0.00  0.00    +0.000 A 
ATOM     10  N   UNL     1       7.987   7.014  18.225  0.00  0.00    +0.000 NA
ATOM     11  N   UNL     1       8.735   7.997  18.831  0.00  0.00    +0.000 NA
ATOM     12  C   UNL     1       8.392   9.164  18.317  0.00  0.00    +0.000 A 
ATOM     13  N   UNL     1       7.394   8.935  17.400  0.00  0.00    +0.000 N 
ATOM     14  H   UNL     1       5.642   7.646  15.998  0.00  0.00    +0.000 HD
ATOM     15  H   UNL     1       6.919   9.630  16.849  0.00  0.00    +0.000 HD
BRANCH  12  16
ATOM     16  C   UNL     1       8.977  10.470  18.636  0.00  0.00    +0.000 A 
ATOM     17  C   UNL     1       9.724  10.624  19.815  0.00  0.00    +0.000 A 
ATOM     18  C   UNL     1      10.309  11.852  20.143  0.00  0.00    +0.000 A 
ATOM     19  C   UNL     1      10.152  12.946  19.296  0.00  0.00    +0.000 A 
ATOM     20  C   UNL     1       9.414  12.812  18.123  0.00  0.00    +0.000 A 
ATOM     21  C   UNL     1       8.830  11.583  17.795  0.00  0.00    +0.000 A 
ENDBRANCH  12  16
ENDBRANCH   6   8
BRANCH   1  22
ATOM     22  S   UNL     1       3.098   4.360  19.615  0.00  0.00    +0.000 S 
ATOM     23  O   UNL     1       3.203   5.613  20.347  0.00  0.00    +0.000 OA
ATOM     24  O   UNL     1       3.429   3.141  20.328  0.00  0.00    +0.000 OA
BRANCH  22  26
ATOM     25  C   UNL     1       1.378   4.444  17.501  0.00  0.00    +0.000 C 
ATOM     26  C   UNL     1       1.411   4.200  19.012  0.00  0.00    +0.000 C 
ATOM     27  C   UNL     1       0.798   2.843  19.326  0.00  0.00    +0.000 C 
ENDBRANCH  22  26
ENDBRANCH   1  22
BRANCH   7  28
ATOM     28  O   UNL     1       4.263   6.862  18.352  0.00  0.00    +0.000 OA
ATOM     29  H   UNL     1       4.678   7.588  17.850  0.00  0.00    +0.000 HD
ENDBRANCH   7  28
TORSDOF 5
ENDMDL
MODEL 4
REMARK VINA RESULT:      -7.6      4.535      6.959
REMARK  Name = 
REMARK  7 active torsions:
REMARK  status: ('A' for Active; 'I' for Inactive)
REMARK    1  A    between atoms: C_1  and  C_2
REMARK    2  A    between atoms: C_2  and  C_3
REMARK    3  A    between atoms: C_2  and  S_4
REMARK    4  A    between atoms: S_4  and  C_7
REMARK    5  A    between atoms: C_12  and  N_13
REMARK    6  A    between atoms: C_17  and  C_18
REMARK    7  A    between atoms: C_25  and  O_26
REMARK                            x       y       z     vdW  Elec       q    Type
REMARK                         _______ _______ _______ _____ _____    ______ ____
ROOT
ATOM      1  C   UNL     1       5.700   4.735  17.891  0.00  0.00    +0.000 A 
ATOM      2  C   UNL     1       5.253   4.082  16.737  0.00  0.00    +0.000 A 
ATOM      3 CL   UNL     1       6.277   3.407  15.519  0.00  0.00    +0.000 Cl
ATOM      4  C   UNL     1       3.886   3.869  16.540  0.00  0.00    +0.000 A 
ATOM      5  C   UNL     1       2.945   4.303  17.476  0.00  0.00    +0.000 A 
ATOM      6  C   UNL     1       3.363   4.927  18.650  0.00  0.00    +0.000 A 
ATOM      7  C   UNL     1       4.748   5.115  18.852  0.00  0.00    +0.000 A 
ENDROOT
BRANCH   6   8
ATOM      8  N   UNL     1       2.432   5.450  19.590  0.00  0.00    +0.000 N 
ATOM      9  C   UNL     1       1.989   6.733  19.543  0.00  0.00    +0.000 A 
ATOM     10  N   UNL     1       1.866   7.554  18.525  0.00  0.00    +0.000 NA
ATOM     11  N   UNL     1       1.328   8.734  18.983  0.00  0.00    +0.000 NA
ATOM     12  C   UNL     1       1.115   8.623  20.281  0.00  0.00    +0.000 A 
ATOM     13  N   UNL     1       1.549   7.377  20.667  0.00  0.00    +0.000 N 
ATOM     14  H   UNL     1       2.602   5.019  20.497  0.00  0.00    +0.000 HD
ATOM     15  H   UNL     1       1.528   7.001  21.599  0.00  0.00    +0.000 HD
BRANCH  12  16
ATOM     16  C   UNL     1       0.503   9.625  21.160  0.00  0.00    +0.000 A 
ATOM     17  C   UNL     1       0.551  10.982  20.800  0.00  0.00    +0.000 A 
ATOM     18  C   UNL     1      -0.035  11.963  21.607  0.00  0.00    +0.000 A 
ATOM     19  C   UNL     1      -0.676  11.601  22.789  0.00  0.00    +0.000 A 
ATOM     20  C   UNL     1      -0.733  10.261  23.161  0.00  0.00    +0.000 A 
ATOM     21  C   UNL     1      -0.147   9.280  22.353  0.00  0.00    +0.000 A 
ENDBRANCH  12  16
ENDBRANCH   6   8
BRANCH   1  22
ATOM     22  S   UNL     1       7.415   5.181  18.110  0.00  0.00    +0.000 S 
ATOM     23  O   UNL     1       8.235   4.275  17.321  0.00  0.00    +0.000 OA
ATOM     24  O   UNL     1       7.685   5.258  19.533  0.00  0.00    +0.000 OA
BRANCH  22  26
ATOM     25  C   UNL     1       6.217   7.366  17.002  0.00  0.00    +0.000 C 
ATOM     26  C   UNL     1       7.589   6.836  17.428  0.00  0.00    +0.000 C 
ATOM     27  C   UNL     1       8.235   7.811  18.403  0.00  0.00    +0.000 C 
ENDBRANCH  22  26
ENDBRANCH   1  22
BRANCH   7  28
ATOM     28  O   UNL     1       5.140   5.589  20.079  0.00  0.00    +0.000 OA
ATOM     29  H   UNL     1       5.605   6.432  19.920  0.00  0.00    +0.000 HD
ENDBRANCH   7  28
TORSDOF 5
ENDMDL
MODEL 5
REMARK VINA RESULT:      -7.6      1.451      1.710
REMARK  Name = 
REMARK  7 active torsions:
REMARK  status: ('A' for Active; 'I' for Inactive)
REMARK    1  A    between atoms: C_1  and  C_2
REMARK    2  A    between atoms: C_2  and  C_3
REMARK    3  A    between atoms: C_2  and  S_4
REMARK    4  A    between atoms: S_4  and  C_7
REMARK    5  A    between atoms: C_12  and  N_13
REMARK    6  A    between atoms: C_17  and  C_18
REMARK    7  A    between atoms: C_25  and  O_26
REMARK                            x       y       z     vdW  Elec       q    Type
REMARK                         _______ _______ _______ _____ _____    ______ ____
ROOT
ATOM      1  C   UNL     1       4.352   5.208  18.242  0.00  0.00    +0.000 A 
ATOM      2  C   UNL     1       5.105   4.266  18.952  0.00  0.00    +0.000 A 
ATOM      3 CL   UNL     1       4.461   2.874  19.747  0.00  0.00    +0.000 Cl
ATOM      4  C   UNL     1       6.499   4.374  18.993  0.00  0.00    +0.000 A 
ATOM      5  C   UNL     1       7.162   5.414  18.338  0.00  0.00    +0.000 A 
ATOM      6  C   UNL     1       6.440   6.347  17.597  0.00  0.00    +0.000 A 
ATOM      7  C   UNL     1       5.035   6.216  17.540  0.00  0.00    +0.000 A 
ENDROOT
BRANCH   6   8
ATOM      8  N   UNL     1       7.073   7.463  16.980  0.00  0.00    +0.000 N 
ATOM      9  C   UNL     1       7.837   8.344  17.675  0.00  0.00    +0.000 A 
ATOM     10  N   UNL     1       8.542   8.180  18.771  0.00  0.00    +0.000 NA
ATOM     11  N   UNL     1       9.179   9.365  19.057  0.00  0.00    +0.000 NA
ATOM     12  C   UNL     1       8.869  10.246  18.123  0.00  0.00    +0.000 A 
ATOM     13  N   UNL     1       8.000   9.635  17.251  0.00  0.00    +0.000 N 
ATOM     14  H   UNL     1       6.474   7.809  16.233  0.00  0.00    +0.000 HD
ATOM     15  H   UNL     1       7.577  10.054  16.440  0.00  0.00    +0.000 HD
BRANCH  12  16
ATOM     16  C   UNL     1       9.371  11.619  18.009  0.00  0.00    +0.000 A 
ATOM     17  C   UNL     1      10.746  11.840  17.830  0.00  0.00    +0.000 A 
ATOM     18  C   UNL     1      11.258  13.136  17.703  0.00  0.00    +0.000 A 
ATOM     19  C   UNL     1      10.401  14.231  17.756  0.00  0.00    +0.000 A 
ATOM     20  C   UNL     1       9.035  14.031  17.933  0.00  0.00    +0.000 A 
ATOM     21  C   UNL     1       8.523  12.735  18.059  0.00  0.00    +0.000 A 
ENDBRANCH  12  16
ENDBRANCH   6   8
BRANCH   1  22
ATOM     22  S   UNL     1       2.568   5.214  18.298  0.00  0.00    +0.000 S 
ATOM     23  O   UNL     1       2.073   4.111  17.488  0.00  0.00    +0.000 OA
ATOM     24  O   UNL     1       2.107   6.548  17.961  0.00  0.00    +0.000 OA
BRANCH  22  26
ATOM     25  C   UNL     1       1.771   6.216  20.706  0.00  0.00    +0.000 C 
ATOM     26  C   UNL     1       2.122   4.897  20.012  0.00  0.00    +0.000 C 
ATOM     27  C   UNL     1       0.963   3.920  20.149  0.00  0.00    +0.000 C 
ENDBRANCH  22  26
ENDBRANCH   1  22
BRANCH   7  28
ATOM     28  O   UNL     1       4.365   7.050  16.682  0.00  0.00    +0.000 OA
ATOM     29  H   UNL     1       5.010   7.343  16.011  0.00  0.00    +0.000 HD
ENDBRANCH   7  28
TORSDOF 5
ENDMDL
MODEL 6
REMARK VINA RESULT:      -7.5      5.698      7.747
REMARK  Name = 
REMARK  7 active torsions:
REMARK  status: ('A' for Active; 'I' for Inactive)
REMARK    1  A    between atoms: C_1  and  C_2
REMARK    2  A    between atoms: C_2  and  C_3
REMARK    3  A    between atoms: C_2  and  S_4
REMARK    4  A    between atoms: S_4  and  C_7
REMARK    5  A    between atoms: C_12  and  N_13
REMARK    6  A    between atoms: C_17  and  C_18
REMARK    7  A    between atoms: C_25  and  O_26
REMARK                            x       y       z     vdW  Elec       q    Type
REMARK                         _______ _______ _______ _____ _____    ______ ____
ROOT
ATOM      1  C   UNL     1       3.697   5.208  18.731  0.00  0.00    +0.000 A 
ATOM      2  C   UNL     1       3.300   4.336  19.750  0.00  0.00    +0.000 A 
ATOM      3 CL   UNL     1       3.939   2.750  20.005  0.00  0.00    +0.000 Cl
ATOM      4  C   UNL     1       2.370   4.755  20.706  0.00  0.00    +0.000 A 
ATOM      5  C   UNL     1       1.819   6.037  20.663  0.00  0.00    +0.000 A 
ATOM      6  C   UNL     1       2.220   6.939  19.679  0.00  0.00    +0.000 A 
ATOM      7  C   UNL     1       3.179   6.515  18.733  0.00  0.00    +0.000 A 
ENDROOT
BRANCH   6   8
ATOM      8  N   UNL     1       1.625   8.226  19.557  0.00  0.00    +0.000 N 
ATOM      9  C   UNL     1       1.114   8.898  20.620  0.00  0.00    +0.000 A 
ATOM     10  N   UNL     1       1.432   8.845  21.893  0.00  0.00    +0.000 NA
ATOM     11  N   UNL     1       0.654   9.754  22.572  0.00  0.00    +0.000 NA
ATOM     12  C   UNL     1      -0.131  10.367  21.705  0.00  0.00    +0.000 A 
ATOM     13  N   UNL     1       0.120   9.826  20.466  0.00  0.00    +0.000 N 
ATOM     14  H   UNL     1       1.147   8.284  18.659  0.00  0.00    +0.000 HD
ATOM     15  H   UNL     1      -0.329  10.079  19.603  0.00  0.00    +0.000 HD
BRANCH  12  16
ATOM     16  C   UNL     1      -1.081  11.447  21.990  0.00  0.00    +0.000 A 
ATOM     17  C   UNL     1      -1.270  12.469  21.046  0.00  0.00    +0.000 A 
ATOM     18  C   UNL     1      -2.178  13.507  21.280  0.00  0.00    +0.000 A 
ATOM     19  C   UNL     1      -2.910  13.538  22.463  0.00  0.00    +0.000 A 
ATOM     20  C   UNL     1      -2.735  12.533  23.411  0.00  0.00    +0.000 A 
ATOM     21  C   UNL     1      -1.827  11.495  23.176  0.00  0.00    +0.000 A 
ENDBRANCH  12  16
ENDBRANCH   6   8
BRANCH   1  22
ATOM     22  S   UNL     1       4.749   4.669  17.393  0.00  0.00    +0.000 S 
ATOM     23  O   UNL     1       4.782   5.712  16.379  0.00  0.00    +0.000 OA
ATOM     24  O   UNL     1       4.315   3.348  16.978  0.00  0.00    +0.000 OA
BRANCH  22  26
ATOM     25  C   UNL     1       7.442   4.586  16.971  0.00  0.00    +0.000 C 
ATOM     26  C   UNL     1       6.399   4.510  18.090  0.00  0.00    +0.000 C 
ATOM     27  C   UNL     1       6.699   5.567  19.143  0.00  0.00    +0.000 C 
ENDBRANCH  22  26
ENDBRANCH   1  22
BRANCH   7  28
ATOM     28  O   UNL     1       3.670   7.465  17.874  0.00  0.00    +0.000 OA
ATOM     29  H   UNL     1       4.236   8.059  18.402  0.00  0.00    +0.000 HD
ENDBRANCH   7  28
TORSDOF 5
ENDMDL
MODEL 7
REMARK VINA RESULT:      -7.4      6.040      7.599
REMARK  Name = 
REMARK  7 active torsions:
REMARK  status: ('A' for Active; 'I' for Inactive)
REMARK    1  A    between atoms: C_1  and  C_2
REMARK    2  A    between atoms: C_2  and  C_3
REMARK    3  A    between atoms: C_2  and  S_4
REMARK    4  A    between atoms: S_4  and  C_7
REMARK    5  A    between atoms: C_12  and  N_13
REMARK    6  A    between atoms: C_17  and  C_18
REMARK    7  A    between atoms: C_25  and  O_26
REMARK                            x       y       z     vdW  Elec       q    Type
REMARK                         _______ _______ _______ _____ _____    ______ ____
ROOT
ATOM      1  C   UNL     1       3.537   5.467  18.902  0.00  0.00    +0.000 A 
ATOM      2  C   UNL     1       3.848   6.220  17.765  0.00  0.00    +0.000 A 
ATOM      3 CL   UNL     1       4.744   5.642  16.406  0.00  0.00    +0.000 Cl
ATOM      4  C   UNL     1       3.358   7.523  17.636  0.00  0.00    +0.000 A 
ATOM      5  C   UNL     1       2.562   8.097  18.629  0.00  0.00    +0.000 A 
ATOM      6  C   UNL     1       2.210   7.360  19.757  0.00  0.00    +0.000 A 
ATOM      7  C   UNL     1       2.688   6.036  19.868  0.00  0.00    +0.000 A 
ENDROOT
BRANCH   6   8
ATOM      8  N   UNL     1       1.466   7.936  20.824  0.00  0.00    +0.000 N 
ATOM      9  C   UNL     1       0.762   9.088  20.685  0.00  0.00    +0.000 A 
ATOM     10  N   UNL     1       0.205   9.622  19.622  0.00  0.00    +0.000 NA
ATOM     11  N   UNL     1      -0.436  10.778  20.004  0.00  0.00    +0.000 NA
ATOM     12  C   UNL     1      -0.275  10.938  21.305  0.00  0.00    +0.000 A 
ATOM     13  N   UNL     1       0.501   9.898  21.757  0.00  0.00    +0.000 N 
ATOM     14  H   UNL     1       1.955   7.758  21.700  0.00  0.00    +0.000 HD
ATOM     15  H   UNL     1       0.805   9.749  22.704  0.00  0.00    +0.000 HD
BRANCH  12  16
ATOM     16  C   UNL     1      -0.838  12.009  22.134  0.00  0.00    +0.000 A 
ATOM     17  C   UNL     1      -0.237  13.279  22.126  0.00  0.00    +0.000 A 
ATOM     18  C   UNL     1      -0.756  14.327  22.893  0.00  0.00    +0.000 A 
ATOM     19  C   UNL     1      -1.883  14.119  23.683  0.00  0.00    +0.000 A 
ATOM     20  C   UNL     1      -2.492  12.867  23.704  0.00  0.00    +0.000 A 
ATOM     21  C   UNL     1      -1.972  11.819  22.935  0.00  0.00    +0.000 A 
ENDBRANCH  12  16
ENDBRANCH   6   8
BRANCH   1  22
ATOM     22  S   UNL     1       4.273   3.866  19.195  0.00  0.00    +0.000 S 
ATOM     23  O   UNL     1       3.790   3.360  20.471  0.00  0.00    +0.000 OA
ATOM     24  O   UNL     1       5.708   3.988  19.025  0.00  0.00    +0.000 OA
BRANCH  22  26
ATOM     25  C   UNL     1       3.706   1.333  18.362  0.00  0.00    +0.000 C 
ATOM     26  C   UNL     1       3.656   2.790  17.893  0.00  0.00    +0.000 C 
ATOM     27  C   UNL     1       2.240   3.141  17.458  0.00  0.00    +0.000 C 
ENDBRANCH  22  26
ENDBRANCH   1  22
BRANCH   7  28
ATOM     28  O   UNL     1       2.203   5.282  20.906  0.00  0.00    +0.000 OA
ATOM     29  H   UNL     1       1.279   5.059  20.687  0.00  0.00    +0.000 HD
ENDBRANCH   7  28
TORSDOF 5
ENDMDL
MODEL 8
REMARK VINA RESULT:      -7.4      1.664      2.013
REMARK  Name = 
REMARK  7 active torsions:
REMARK  status: ('A' for Active; 'I' for Inactive)
REMARK    1  A    between atoms: C_1  and  C_2
REMARK    2  A    between atoms: C_2  and  C_3
REMARK    3  A    between atoms: C_2  and  S_4
REMARK    4  A    between atoms: S_4  and  C_7
REMARK    5  A    between atoms: C_12  and  N_13
REMARK    6  A    between atoms: C_17  and  C_18
REMARK    7  A    between atoms: C_25  and  O_26
REMARK                            x       y       z     vdW  Elec       q    Type
REMARK                         _______ _______ _______ _____ _____    ______ ____
ROOT
ATOM      1  C   UNL     1       4.338   5.327  18.560  0.00  0.00    +0.000 A 
ATOM      2  C   UNL     1       5.092   4.255  19.050  0.00  0.00    +0.000 A 
ATOM      3 CL   UNL     1       4.442   2.861  19.837  0.00  0.00    +0.000 Cl
ATOM      4  C   UNL     1       6.476   4.226  18.850  0.00  0.00    +0.000 A 
ATOM      5  C   UNL     1       7.129   5.255  18.169  0.00  0.00    +0.000 A 
ATOM      6  C   UNL     1       6.400   6.319  17.642  0.00  0.00    +0.000 A 
ATOM      7  C   UNL     1       5.000   6.328  17.827  0.00  0.00    +0.000 A 
ENDROOT
BRANCH   6   8
ATOM      8  N   UNL     1       7.038   7.423  17.011  0.00  0.00    +0.000 N 
ATOM      9  C   UNL     1       7.810   8.307  17.692  0.00  0.00    +0.000 A 
ATOM     10  N   UNL     1       8.516   8.152  18.789  0.00  0.00    +0.000 NA
ATOM     11  N   UNL     1       9.163   9.336  19.058  0.00  0.00    +0.000 NA
ATOM     12  C   UNL     1       8.855  10.208  18.115  0.00  0.00    +0.000 A 
ATOM     13  N   UNL     1       7.980   9.592  17.253  0.00  0.00    +0.000 N 
ATOM     14  H   UNL     1       6.439   7.765  16.261  0.00  0.00    +0.000 HD
ATOM     15  H   UNL     1       7.557  10.004  16.438  0.00  0.00    +0.000 HD
BRANCH  12  16
ATOM     16  C   UNL     1       9.367  11.576  17.983  0.00  0.00    +0.000 A 
ATOM     17  C   UNL     1      10.728  11.782  17.709  0.00  0.00    +0.000 A 
ATOM     18  C   UNL     1      11.247  13.073  17.563  0.00  0.00    +0.000 A 
ATOM     19  C   UNL     1      10.410  14.178  17.691  0.00  0.00    +0.000 A 
ATOM     20  C   UNL     1       9.057  13.993  17.963  0.00  0.00    +0.000 A 
ATOM     21  C   UNL     1       8.539  12.701  18.108  0.00  0.00    +0.000 A 
ENDBRANCH  12  16
ENDBRANCH   6   8
BRANCH   1  22
ATOM     22  S   UNL     1       2.600   5.497  18.933  0.00  0.00    +0.000 S 
ATOM     23  O   UNL     1       2.167   6.827  18.530  0.00  0.00    +0.000 OA
ATOM     24  O   UNL     1       2.394   5.120  20.318  0.00  0.00    +0.000 OA
BRANCH  22  26
ATOM     25  C   UNL     1       2.739   3.668  16.916  0.00  0.00    +0.000 C 
ATOM     26  C   UNL     1       1.750   4.292  17.904  0.00  0.00    +0.000 C 
ATOM     27  C   UNL     1       1.074   3.196  18.715  0.00  0.00    +0.000 C 
ENDBRANCH  22  26
ENDBRANCH   1  22
BRANCH   7  28
ATOM     28  O   UNL     1       4.289   7.300  17.168  0.00  0.00    +0.000 OA
ATOM     29  H   UNL     1       3.345   7.073  17.263  0.00  0.00    +0.000 HD
ENDBRANCH   7  28
TORSDOF 5
ENDMDL
MODEL 9
REMARK VINA RESULT:      -7.3      6.260      7.910
REMARK  Name = 
REMARK  7 active torsions:
REMARK  status: ('A' for Active; 'I' for Inactive)
REMARK    1  A    between atoms: C_1  and  C_2
REMARK    2  A    between atoms: C_2  and  C_3
REMARK    3  A    between atoms: C_2  and  S_4
REMARK    4  A    between atoms: S_4  and  C_7
REMARK    5  A    between atoms: C_12  and  N_13
REMARK    6  A    between atoms: C_17  and  C_18
REMARK    7  A    between atoms: C_25  and  O_26
REMARK                            x       y       z     vdW  Elec       q    Type
REMARK                         _______ _______ _______ _____ _____    ______ ____
ROOT
ATOM      1  C   UNL     1       3.267   5.721  19.040  0.00  0.00    +0.000 A 
ATOM      2  C   UNL     1       3.595   6.513  17.934  0.00  0.00    +0.000 A 
ATOM      3 CL   UNL     1       4.506   5.980  16.566  0.00  0.00    +0.000 Cl
ATOM      4  C   UNL     1       3.112   7.822  17.846  0.00  0.00    +0.000 A 
ATOM      5  C   UNL     1       2.307   8.364  18.849  0.00  0.00    +0.000 A 
ATOM      6  C   UNL     1       1.938   7.589  19.945  0.00  0.00    +0.000 A 
ATOM      7  C   UNL     1       2.409   6.259  20.015  0.00  0.00    +0.000 A 
ENDROOT
BRANCH   6   8
ATOM      8  N   UNL     1       1.183   8.130  21.024  0.00  0.00    +0.000 N 
ATOM      9  C   UNL     1       0.441   9.260  20.901  0.00  0.00    +0.000 A 
ATOM     10  N   UNL     1      -0.140   9.786  19.847  0.00  0.00    +0.000 NA
ATOM     11  N   UNL     1      -0.815  10.917  20.245  0.00  0.00    +0.000 NA
ATOM     12  C   UNL     1      -0.650  11.070  21.546  0.00  0.00    +0.000 A 
ATOM     13  N   UNL     1       0.162  10.051  21.983  0.00  0.00    +0.000 N 
ATOM     14  H   UNL     1       1.684   7.959  21.894  0.00  0.00    +0.000 HD
ATOM     15  H   UNL     1       0.477   9.902  22.926  0.00  0.00    +0.000 HD
BRANCH  12  16
ATOM     16  C   UNL     1      -1.241  12.114  22.390  0.00  0.00    +0.000 A 
ATOM     17  C   UNL     1      -2.478  11.882  23.012  0.00  0.00    +0.000 A 
ATOM     18  C   UNL     1      -3.064  12.851  23.835  0.00  0.00    +0.000 A 
ATOM     19  C   UNL     1      -2.420  14.067  24.045  0.00  0.00    +0.000 A 
ATOM     20  C   UNL     1      -1.193  14.314  23.436  0.00  0.00    +0.000 A 
ATOM     21  C   UNL     1      -0.608  13.345  22.613  0.00  0.00    +0.000 A 
ENDBRANCH  12  16
ENDBRANCH   6   8
BRANCH   1  22
ATOM     22  S   UNL     1       3.992   4.108  19.285  0.00  0.00    +0.000 S 
ATOM     23  O   UNL     1       3.495   3.560  20.538  0.00  0.00    +0.000 OA
ATOM     24  O   UNL     1       5.429   4.227  19.132  0.00  0.00    +0.000 OA
BRANCH  22  26
ATOM     25  C   UNL     1       3.532   1.602  18.313  0.00  0.00    +0.000 C 
ATOM     26  C   UNL     1       3.382   3.079  17.941  0.00  0.00    +0.000 C 
ATOM     27  C   UNL     1       1.931   3.374  17.584  0.00  0.00    +0.000 C 
ENDBRANCH  22  26
ENDBRANCH   1  22
BRANCH   7  28
ATOM     28  O   UNL     1       1.907   5.471  21.020  0.00  0.00    +0.000 OA
ATOM     29  H   UNL     1       2.436   4.651  21.026  0.00  0.00    +0.000 HD
ENDBRANCH   7  28
TORSDOF 5
ENDMDL
