MODEL 1
REMARK VINA RESULT:      -7.5      0.000      0.000
REMARK  Name = 
REMARK  12 active torsions:
REMARK  status: ('A' for Active; 'I' for Inactive)
REMARK    1  A    between atoms: C_1  and  C_2
REMARK    2  A    between atoms: C_2  and  C_3
REMARK    3  A    between atoms: C_3  and  N_4
REMARK    4  A    between atoms: N_4  and  C_5
REMARK    5  A    between atoms: N_4  and  C_8
REMARK    6  A    between atoms: C_5  and  C_6
REMARK    7  A    between atoms: C_6  and  C_7
REMARK    8  A    between atoms: C_8  and  C_9
REMARK    9  A    between atoms: C_9  and  O_10
REMARK   10  A    between atoms: C_9  and  C_11
REMARK   11  A    between atoms: C_13  and  C_14
REMARK   12  A    between atoms: C_20  and  C_21
REMARK                            x       y       z     vdW  Elec       q    Type
REMARK                         _______ _______ _______ _____ _____    ______ ____
ROOT
ATOM      1  C   UNL     1       3.497   5.269  18.375  0.00  0.00    +0.000 A 
ATOM      2  C   UNL     1       3.217   4.284  19.342  0.00  0.00    +0.000 A 
ATOM      3  C   UNL     1       2.445   4.589  20.441  0.00  0.00    +0.000 A 
ATOM      4  N   UNL     1       1.929   5.832  20.604  0.00  0.00    +0.000 NA
ATOM      5  C   UNL     1       2.148   6.796  19.697  0.00  0.00    +0.000 A 
ATOM      6  C   UNL     1       1.572   8.049  19.901  0.00  0.00    +0.000 A 
ATOM      7  C   UNL     1       1.771   9.089  18.975  0.00  0.00    +0.000 A 
ATOM      8  C   UNL     1       2.544   8.886  17.842  0.00  0.00    +0.000 A 
ATOM      9  C   UNL     1       3.126   7.641  17.632  0.00  0.00    +0.000 A 
ATOM     10  C   UNL     1       2.944   6.569  18.543  0.00  0.00    +0.000 A 
ENDROOT
BRANCH   3  11
ATOM     11  C   UNL     1       2.162   3.525  21.495  0.00  0.00    +0.000 C 
ATOM     12  F   UNL     1       2.962   2.422  21.364  0.00  0.00    +0.000 F 
ATOM     13  F   UNL     1       2.368   3.965  22.769  0.00  0.00    +0.000 F 
ATOM     14  F   UNL     1       0.886   3.052  21.454  0.00  0.00    +0.000 F 
ENDBRANCH   3  11
BRANCH   6  15
ATOM     15  C   UNL     1       0.703   8.330  21.104  0.00  0.00    +0.000 C 
ATOM     16  F   UNL     1      -0.317   7.470  21.362  0.00  0.00    +0.000 F 
ATOM     17  F   UNL     1       1.441   8.361  22.255  0.00  0.00    +0.000 F 
ATOM     18  F   UNL     1       0.121   9.565  21.024  0.00  0.00    +0.000 F 
ENDBRANCH   6  15
BRANCH   1  19
ATOM     19  C   UNL     1       4.354   4.852  17.191  0.00  0.00    +0.000 C 
BRANCH  19  20
ATOM     20  O   UNL     1       3.563   3.945  16.422  0.00  0.00    +0.000 OA
ATOM     21  H   UNL     1       2.717   4.382  16.227  0.00  0.00    +0.000 HD
ENDBRANCH  19  20
BRANCH  19  22
ATOM     22  C   UNL     1       5.711   4.227  17.654  0.00  0.00    +0.000 C 
BRANCH  22  23
ATOM     23  N   UNL     1       6.962   4.908  17.216  0.00  0.00    +0.000 NA
BRANCH  23  24
ATOM     24  C   UNL     1       7.329   4.425  15.862  0.00  0.00    +0.000 C 
BRANCH  24  26
ATOM     25  C   UNL     1       5.949   3.938  13.764  0.00  0.00    +0.000 C 
ATOM     26  C   UNL     1       6.567   4.999  14.660  0.00  0.00    +0.000 C 
ENDBRANCH  24  26
ENDBRANCH  23  24
BRANCH  23  27
ATOM     27  C   UNL     1       6.763   6.381  17.223  0.00  0.00    +0.000 C 
BRANCH  27  28
ATOM     28  C   UNL     1       7.756   7.198  18.073  0.00  0.00    +0.000 C 
ATOM     29  C   UNL     1       7.871   8.657  17.656  0.00  0.00    +0.000 C 
ENDBRANCH  27  28
ENDBRANCH  23  27
ENDBRANCH  22  23
ENDBRANCH  19  22
ENDBRANCH   1  19
TORSDOF 10
ENDMDL
MODEL 2
REMARK VINA RESULT:      -7.4      0.706      1.299
REMARK  Name = 
REMARK  12 active torsions:
REMARK  status: ('A' for Active; 'I' for Inactive)
REMARK    1  A    between atoms: C_1  and  C_2
REMARK    2  A    between atoms: C_2  and  C_3
REMARK    3  A    between atoms: C_3  and  N_4
REMARK    4  A    between atoms: N_4  and  C_5
REMARK    5  A    between atoms: N_4  and  C_8
REMARK    6  A    between atoms: C_5  and  C_6
REMARK    7  A    between atoms: C_6  and  C_7
REMARK    8  A    between atoms: C_8  and  C_9
REMARK    9  A    between atoms: C_9  and  O_10
REMARK   10  A    between atoms: C_9  and  C_11
REMARK   11  A    between atoms: C_13  and  C_14
REMARK   12  A    between atoms: C_20  and  C_21
REMARK                            x       y       z     vdW  Elec       q    Type
REMARK                         _______ _______ _______ _____ _____    ______ ____
ROOT
ATOM      1  C   UNL     1       3.296   4.824  18.255  0.00  0.00    +0.000 A 
ATOM      2  C   UNL     1       3.050   3.907  19.295  0.00  0.00    +0.000 A 
ATOM      3  C   UNL     1       2.427   4.318  20.451  0.00  0.00    +0.000 A 
ATOM      4  N   UNL     1       2.025   5.603  20.605  0.00  0.00    +0.000 NA
ATOM      5  C   UNL     1       2.214   6.508  19.632  0.00  0.00    +0.000 A 
ATOM      6  C   UNL     1       1.757   7.809  19.831  0.00  0.00    +0.000 A 
ATOM      7  C   UNL     1       1.931   8.790  18.838  0.00  0.00    +0.000 A 
ATOM      8  C   UNL     1       2.560   8.479  17.642  0.00  0.00    +0.000 A 
ATOM      9  C   UNL     1       3.023   7.184  17.435  0.00  0.00    +0.000 A 
ATOM     10  C   UNL     1       2.862   6.170  18.413  0.00  0.00    +0.000 A 
ENDROOT
BRANCH   3  11
ATOM     11  C   UNL     1       2.181   3.325  21.581  0.00  0.00    +0.000 C 
ATOM     12  F   UNL     1       0.932   2.767  21.537  0.00  0.00    +0.000 F 
ATOM     13  F   UNL     1       3.043   2.269  21.562  0.00  0.00    +0.000 F 
ATOM     14  F   UNL     1       2.283   3.881  22.820  0.00  0.00    +0.000 F 
ENDBRANCH   3  11
BRANCH   6  15
ATOM     15  C   UNL     1       1.046   8.208  21.103  0.00  0.00    +0.000 C 
ATOM     16  F   UNL     1       1.771   8.233  22.252  0.00  0.00    +0.000 F 
ATOM     17  F   UNL     1       0.502   9.459  20.997  0.00  0.00    +0.000 F 
ATOM     18  F   UNL     1      -0.014   7.384  21.363  0.00  0.00    +0.000 F 
ENDBRANCH   6  15
BRANCH   1  19
ATOM     19  C   UNL     1       3.987   4.292  17.010  0.00  0.00    +0.000 C 
BRANCH  19  20
ATOM     20  O   UNL     1       4.272   2.916  17.267  0.00  0.00    +0.000 OA
ATOM     21  H   UNL     1       5.160   2.865  17.658  0.00  0.00    +0.000 HD
ENDBRANCH  19  20
BRANCH  19  22
ATOM     22  C   UNL     1       5.268   5.120  16.664  0.00  0.00    +0.000 C 
BRANCH  22  23
ATOM     23  N   UNL     1       6.522   4.359  16.398  0.00  0.00    +0.000 NA
BRANCH  23  24
ATOM     24  C   UNL     1       6.922   4.562  14.984  0.00  0.00    +0.000 C 
BRANCH  24  26
ATOM     25  C   UNL     1       6.746   3.893  12.522  0.00  0.00    +0.000 C 
ATOM     26  C   UNL     1       6.092   3.871  13.893  0.00  0.00    +0.000 C 
ENDBRANCH  24  26
ENDBRANCH  23  24
BRANCH  23  27
ATOM     27  C   UNL     1       7.590   4.810  17.327  0.00  0.00    +0.000 C 
BRANCH  27  28
ATOM     28  C   UNL     1       7.251   6.021  18.219  0.00  0.00    +0.000 C 
ATOM     29  C   UNL     1       7.676   7.360  17.633  0.00  0.00    +0.000 C 
ENDBRANCH  27  28
ENDBRANCH  23  27
ENDBRANCH  22  23
ENDBRANCH  19  22
ENDBRANCH   1  19
TORSDOF 10
ENDMDL
MODEL 3
REMARK VINA RESULT:      -7.4      0.464      2.407
REMARK  Name = 
REMARK  12 active torsions:
REMARK  status: ('A' for Active; 'I' for Inactive)
REMARK    1  A    between atoms: C_1  and  C_2
REMARK    2  A    between atoms: C_2  and  C_3
REMARK    3  A    between atoms: C_3  and  N_4
REMARK    4  A    between atoms: N_4  and  C_5
REMARK    5  A    between atoms: N_4  and  C_8
REMARK    6  A    between atoms: C_5  and  C_6
REMARK    7  A    between atoms: C_6  and  C_7
REMARK    8  A    between atoms: C_8  and  C_9
REMARK    9  A    between atoms: C_9  and  O_10
REMARK   10  A    between atoms: C_9  and  C_11
REMARK   11  A    between atoms: C_13  and  C_14
REMARK   12  A    between atoms: C_20  and  C_21
REMARK                            x       y       z     vdW  Elec       q    Type
REMARK                         _______ _______ _______ _____ _____    ______ ____
ROOT
ATOM      1  C   UNL     1       3.375   5.482  18.268  0.00  0.00    +0.000 A 
ATOM      2  C   UNL     1       3.135   4.463  19.210  0.00  0.00    +0.000 A 
ATOM      3  C   UNL     1       2.396   4.723  20.342  0.00  0.00    +0.000 A 
ATOM      4  N   UNL     1       1.873   5.954  20.563  0.00  0.00    +0.000 NA
ATOM      5  C   UNL     1       2.054   6.950  19.683  0.00  0.00    +0.000 A 
ATOM      6  C   UNL     1       1.473   8.189  19.946  0.00  0.00    +0.000 A 
ATOM      7  C   UNL     1       1.633   9.261  19.050  0.00  0.00    +0.000 A 
ATOM      8  C   UNL     1       2.372   9.104  17.887  0.00  0.00    +0.000 A 
ATOM      9  C   UNL     1       2.959   7.873  17.617  0.00  0.00    +0.000 A 
ATOM     10  C   UNL     1       2.816   6.770  18.497  0.00  0.00    +0.000 A 
ENDROOT
BRANCH   3  11
ATOM     11  C   UNL     1       2.156   3.621  21.367  0.00  0.00    +0.000 C 
ATOM     12  F   UNL     1       0.872   3.146  21.346  0.00  0.00    +0.000 F 
ATOM     13  F   UNL     1       2.943   2.526  21.170  0.00  0.00    +0.000 F 
ATOM     14  F   UNL     1       2.370   4.022  22.651  0.00  0.00    +0.000 F 
ENDBRANCH   3  11
BRANCH   6  15
ATOM     15  C   UNL     1       0.639   8.420  21.185  0.00  0.00    +0.000 C 
ATOM     16  F   UNL     1      -0.367   7.543  21.443  0.00  0.00    +0.000 F 
ATOM     17  F   UNL     1       1.412   8.417  22.313  0.00  0.00    +0.000 F 
ATOM     18  F   UNL     1       0.046   9.653  21.166  0.00  0.00    +0.000 F 
ENDBRANCH   6  15
BRANCH   1  19
ATOM     19  C   UNL     1       4.199   5.114  17.045  0.00  0.00    +0.000 C 
BRANCH  19  20
ATOM     20  O   UNL     1       3.691   3.863  16.580  0.00  0.00    +0.000 OA
ATOM     21  H   UNL     1       3.727   3.235  17.320  0.00  0.00    +0.000 HD
ENDBRANCH  19  20
BRANCH  19  22
ATOM     22  C   UNL     1       5.728   5.061  17.374  0.00  0.00    +0.000 C 
BRANCH  22  23
ATOM     23  N   UNL     1       6.637   5.894  16.537  0.00  0.00    +0.000 NA
BRANCH  23  24
ATOM     24  C   UNL     1       7.546   6.661  17.423  0.00  0.00    +0.000 C 
BRANCH  24  26
ATOM     25  C   UNL     1       8.446   8.880  18.321  0.00  0.00    +0.000 C 
ATOM     26  C   UNL     1       7.490   8.194  17.360  0.00  0.00    +0.000 C 
ENDBRANCH  24  26
ENDBRANCH  23  24
BRANCH  23  27
ATOM     27  C   UNL     1       7.403   5.023  15.608  0.00  0.00    +0.000 C 
BRANCH  27  28
ATOM     28  C   UNL     1       6.938   5.021  14.138  0.00  0.00    +0.000 C 
ATOM     29  C   UNL     1       6.057   3.835  13.769  0.00  0.00    +0.000 C 
ENDBRANCH  27  28
ENDBRANCH  23  27
ENDBRANCH  22  23
ENDBRANCH  19  22
ENDBRANCH   1  19
TORSDOF 10
ENDMDL
MODEL 4
REMARK VINA RESULT:      -7.3      0.753      1.101
REMARK  Name = 
REMARK  12 active torsions:
REMARK  status: ('A' for Active; 'I' for Inactive)
REMARK    1  A    between atoms: C_1  and  C_2
REMARK    2  A    between atoms: C_2  and  C_3
REMARK    3  A    between atoms: C_3  and  N_4
REMARK    4  A    between atoms: N_4  and  C_5
REMARK    5  A    between atoms: N_4  and  C_8
REMARK    6  A    between atoms: C_5  and  C_6
REMARK    7  A    between atoms: C_6  and  C_7
REMARK    8  A    between atoms: C_8  and  C_9
REMARK    9  A    between atoms: C_9  and  O_10
REMARK   10  A    between atoms: C_9  and  C_11
REMARK   11  A    between atoms: C_13  and  C_14
REMARK   12  A    between atoms: C_20  and  C_21
REMARK                            x       y       z     vdW  Elec       q    Type
REMARK                         _______ _______ _______ _____ _____    ______ ____
ROOT
ATOM      1  C   UNL     1       3.213   5.599  18.157  0.00  0.00    +0.000 A 
ATOM      2  C   UNL     1       3.019   4.566  19.095  0.00  0.00    +0.000 A 
ATOM      3  C   UNL     1       2.347   4.814  20.271  0.00  0.00    +0.000 A 
ATOM      4  N   UNL     1       1.847   6.045  20.540  0.00  0.00    +0.000 NA
ATOM      5  C   UNL     1       1.984   7.053  19.666  0.00  0.00    +0.000 A 
ATOM      6  C   UNL     1       1.429   8.292  19.981  0.00  0.00    +0.000 A 
ATOM      7  C   UNL     1       1.546   9.377  19.093  0.00  0.00    +0.000 A 
ATOM      8  C   UNL     1       2.216   9.233  17.888  0.00  0.00    +0.000 A 
ATOM      9  C   UNL     1       2.778   8.002  17.567  0.00  0.00    +0.000 A 
ATOM     10  C   UNL     1       2.676   6.887  18.436  0.00  0.00    +0.000 A 
ENDROOT
BRANCH   3  11
ATOM     11  C   UNL     1       2.157   3.698  21.292  0.00  0.00    +0.000 C 
ATOM     12  F   UNL     1       2.980   2.628  21.068  0.00  0.00    +0.000 F 
ATOM     13  F   UNL     1       2.425   4.091  22.570  0.00  0.00    +0.000 F 
ATOM     14  F   UNL     1       0.896   3.186  21.304  0.00  0.00    +0.000 F 
ENDBRANCH   3  11
BRANCH   6  15
ATOM     15  C   UNL     1       0.668   8.509  21.268  0.00  0.00    +0.000 C 
ATOM     16  F   UNL     1       1.367   8.461  22.432  0.00  0.00    +0.000 F 
ATOM     17  F   UNL     1       0.044   9.727  21.278  0.00  0.00    +0.000 F 
ATOM     18  F   UNL     1      -0.340   7.596  21.415  0.00  0.00    +0.000 F 
ENDBRANCH   6  15
BRANCH   1  19
ATOM     19  C   UNL     1       3.963   5.245  16.884  0.00  0.00    +0.000 C 
BRANCH  19  20
ATOM     20  O   UNL     1       3.895   3.823  16.760  0.00  0.00    +0.000 OA
ATOM     21  H   UNL     1       3.987   3.603  15.818  0.00  0.00    +0.000 HD
ENDBRANCH  19  20
BRANCH  19  22
ATOM     22  C   UNL     1       5.433   5.779  16.913  0.00  0.00    +0.000 C 
BRANCH  22  23
ATOM     23  N   UNL     1       6.509   4.846  16.473  0.00  0.00    +0.000 NA
BRANCH  23  24
ATOM     24  C   UNL     1       7.196   5.420  15.292  0.00  0.00    +0.000 C 
BRANCH  24  26
ATOM     25  C   UNL     1       5.803   3.790  13.896  0.00  0.00    +0.000 C 
ATOM     26  C   UNL     1       6.997   4.730  13.935  0.00  0.00    +0.000 C 
ENDBRANCH  24  26
ENDBRANCH  23  24
BRANCH  23  27
ATOM     27  C   UNL     1       7.462   4.616  17.589  0.00  0.00    +0.000 C 
BRANCH  27  28
ATOM     28  C   UNL     1       7.337   5.564  18.798  0.00  0.00    +0.000 C 
ATOM     29  C   UNL     1       8.135   6.853  18.659  0.00  0.00    +0.000 C 
ENDBRANCH  27  28
ENDBRANCH  23  27
ENDBRANCH  22  23
ENDBRANCH  19  22
ENDBRANCH   1  19
TORSDOF 10
ENDMDL
MODEL 5
REMARK VINA RESULT:      -7.2      0.750      1.154
REMARK  Name = 
REMARK  12 active torsions:
REMARK  status: ('A' for Active; 'I' for Inactive)
REMARK    1  A    between atoms: C_1  and  C_2
REMARK    2  A    between atoms: C_2  and  C_3
REMARK    3  A    between atoms: C_3  and  N_4
REMARK    4  A    between atoms: N_4  and  C_5
REMARK    5  A    between atoms: N_4  and  C_8
REMARK    6  A    between atoms: C_5  and  C_6
REMARK    7  A    between atoms: C_6  and  C_7
REMARK    8  A    between atoms: C_8  and  C_9
REMARK    9  A    between atoms: C_9  and  O_10
REMARK   10  A    between atoms: C_9  and  C_11
REMARK   11  A    between atoms: C_13  and  C_14
REMARK   12  A    between atoms: C_20  and  C_21
REMARK                            x       y       z     vdW  Elec       q    Type
REMARK                         _______ _______ _______ _____ _____    ______ ____
ROOT
ATOM      1  C   UNL     1       3.151   5.490  18.187  0.00  0.00    +0.000 A 
ATOM      2  C   UNL     1       2.949   4.472  19.139  0.00  0.00    +0.000 A 
ATOM      3  C   UNL     1       2.299   4.746  20.321  0.00  0.00    +0.000 A 
ATOM      4  N   UNL     1       1.829   5.990  20.583  0.00  0.00    +0.000 NA
ATOM      5  C   UNL     1       1.975   6.986  19.696  0.00  0.00    +0.000 A 
ATOM      6  C   UNL     1       1.450   8.239  20.005  0.00  0.00    +0.000 A 
ATOM      7  C   UNL     1       1.577   9.312  19.104  0.00  0.00    +0.000 A 
ATOM      8  C   UNL     1       2.227   9.141  17.892  0.00  0.00    +0.000 A 
ATOM      9  C   UNL     1       2.759   7.896  17.576  0.00  0.00    +0.000 A 
ATOM     10  C   UNL     1       2.646   6.792  18.459  0.00  0.00    +0.000 A 
ENDROOT
BRANCH   3  11
ATOM     11  C   UNL     1       2.100   3.646  21.356  0.00  0.00    +0.000 C 
ATOM     12  F   UNL     1       2.367   4.062  22.633  0.00  0.00    +0.000 F 
ATOM     13  F   UNL     1       0.822   3.173  21.397  0.00  0.00    +0.000 F 
ATOM     14  F   UNL     1       2.903   2.564  21.156  0.00  0.00    +0.000 F 
ENDBRANCH   3  11
BRANCH   6  15
ATOM     15  C   UNL     1       0.711   8.486  21.300  0.00  0.00    +0.000 C 
ATOM     16  F   UNL     1      -0.351   7.688  21.585  0.00  0.00    +0.000 F 
ATOM     17  F   UNL     1       1.545   8.367  22.379  0.00  0.00    +0.000 F 
ATOM     18  F   UNL     1       0.230   9.765  21.366  0.00  0.00    +0.000 F 
ENDBRANCH   6  15
BRANCH   1  19
ATOM     19  C   UNL     1       3.876   5.107  16.907  0.00  0.00    +0.000 C 
BRANCH  19  20
ATOM     20  O   UNL     1       3.747   3.690  16.781  0.00  0.00    +0.000 OA
ATOM     21  H   UNL     1       4.274   3.411  16.015  0.00  0.00    +0.000 HD
ENDBRANCH  19  20
BRANCH  19  22
ATOM     22  C   UNL     1       5.368   5.578  16.926  0.00  0.00    +0.000 C 
BRANCH  22  23
ATOM     23  N   UNL     1       6.387   4.646  16.364  0.00  0.00    +0.000 NA
BRANCH  23  24
ATOM     24  C   UNL     1       6.461   4.838  14.895  0.00  0.00    +0.000 C 
BRANCH  24  26
ATOM     25  C   UNL     1       6.497   3.757  12.577  0.00  0.00    +0.000 C 
ATOM     26  C   UNL     1       5.946   3.708  13.992  0.00  0.00    +0.000 C 
ENDBRANCH  24  26
ENDBRANCH  23  24
BRANCH  23  27
ATOM     27  C   UNL     1       7.704   4.895  17.004  0.00  0.00    +0.000 C 
BRANCH  27  28
ATOM     28  C   UNL     1       7.670   5.337  18.481  0.00  0.00    +0.000 C 
ATOM     29  C   UNL     1       8.081   6.786  18.702  0.00  0.00    +0.000 C 
ENDBRANCH  27  28
ENDBRANCH  23  27
ENDBRANCH  22  23
ENDBRANCH  19  22
ENDBRANCH   1  19
TORSDOF 10
ENDMDL
MODEL 6
REMARK VINA RESULT:      -7.0      0.784      1.363
REMARK  Name = 
REMARK  12 active torsions:
REMARK  status: ('A' for Active; 'I' for Inactive)
REMARK    1  A    between atoms: C_1  and  C_2
REMARK    2  A    between atoms: C_2  and  C_3
REMARK    3  A    between atoms: C_3  and  N_4
REMARK    4  A    between atoms: N_4  and  C_5
REMARK    5  A    between atoms: N_4  and  C_8
REMARK    6  A    between atoms: C_5  and  C_6
REMARK    7  A    between atoms: C_6  and  C_7
REMARK    8  A    between atoms: C_8  and  C_9
REMARK    9  A    between atoms: C_9  and  O_10
REMARK   10  A    between atoms: C_9  and  C_11
REMARK   11  A    between atoms: C_13  and  C_14
REMARK   12  A    between atoms: C_20  and  C_21
REMARK                            x       y       z     vdW  Elec       q    Type
REMARK                         _______ _______ _______ _____ _____    ______ ____
ROOT
ATOM      1  C   UNL     1       3.766   4.662  18.308  0.00  0.00    +0.000 A 
ATOM      2  C   UNL     1       3.429   3.744  19.322  0.00  0.00    +0.000 A 
ATOM      3  C   UNL     1       2.662   4.143  20.393  0.00  0.00    +0.000 A 
ATOM      4  N   UNL     1       2.205   5.416  20.484  0.00  0.00    +0.000 NA
ATOM      5  C   UNL     1       2.479   6.319  19.531  0.00  0.00    +0.000 A 
ATOM      6  C   UNL     1       1.962   7.606  19.661  0.00  0.00    +0.000 A 
ATOM      7  C   UNL     1       2.220   8.585  18.684  0.00  0.00    +0.000 A 
ATOM      8  C   UNL     1       2.995   8.286  17.574  0.00  0.00    +0.000 A 
ATOM      9  C   UNL     1       3.518   7.005  17.437  0.00  0.00    +0.000 A 
ATOM     10  C   UNL     1       3.275   5.994  18.400  0.00  0.00    +0.000 A 
ENDROOT
BRANCH   3  11
ATOM     11  C   UNL     1       2.317   3.151  21.497  0.00  0.00    +0.000 C 
ATOM     12  F   UNL     1       2.235   3.737  22.732  0.00  0.00    +0.000 F 
ATOM     13  F   UNL     1       1.110   2.543  21.313  0.00  0.00    +0.000 F 
ATOM     14  F   UNL     1       3.233   2.153  21.632  0.00  0.00    +0.000 F 
ENDBRANCH   3  11
BRANCH   6  15
ATOM     15  C   UNL     1       1.094   7.991  20.837  0.00  0.00    +0.000 C 
ATOM     16  F   UNL     1       0.268   9.060  20.689  0.00  0.00    +0.000 F 
ATOM     17  F   UNL     1       0.279   6.959  21.212  0.00  0.00    +0.000 F 
ATOM     18  F   UNL     1       1.846   8.268  21.945  0.00  0.00    +0.000 F 
ENDBRANCH   6  15
BRANCH   1  19
ATOM     19  C   UNL     1       4.615   4.143  17.159  0.00  0.00    +0.000 C 
BRANCH  19  20
ATOM     20  O   UNL     1       4.280   2.763  17.003  0.00  0.00    +0.000 OA
ATOM     21  H   UNL     1       4.612   2.287  17.782  0.00  0.00    +0.000 HD
ENDBRANCH  19  20
BRANCH  19  22
ATOM     22  C   UNL     1       6.141   4.367  17.422  0.00  0.00    +0.000 C 
BRANCH  22  23
ATOM     23  N   UNL     1       6.841   5.369  16.568  0.00  0.00    +0.000 NA
BRANCH  23  24
ATOM     24  C   UNL     1       6.188   5.414  15.238  0.00  0.00    +0.000 C 
BRANCH  24  26
ATOM     25  C   UNL     1       5.663   3.800  13.323  0.00  0.00    +0.000 C 
ATOM     26  C   UNL     1       6.741   4.502  14.132  0.00  0.00    +0.000 C 
ENDBRANCH  24  26
ENDBRANCH  23  24
BRANCH  23  27
ATOM     27  C   UNL     1       6.809   6.701  17.227  0.00  0.00    +0.000 C 
BRANCH  27  28
ATOM     28  C   UNL     1       7.917   6.975  18.263  0.00  0.00    +0.000 C 
ATOM     29  C   UNL     1       7.954   5.973  19.409  0.00  0.00    +0.000 C 
ENDBRANCH  27  28
ENDBRANCH  23  27
ENDBRANCH  22  23
ENDBRANCH  19  22
ENDBRANCH   1  19
TORSDOF 10
ENDMDL
MODEL 7
REMARK VINA RESULT:      -6.9      0.990      2.436
REMARK  Name = 
REMARK  12 active torsions:
REMARK  status: ('A' for Active; 'I' for Inactive)
REMARK    1  A    between atoms: C_1  and  C_2
REMARK    2  A    between atoms: C_2  and  C_3
REMARK    3  A    between atoms: C_3  and  N_4
REMARK    4  A    between atoms: N_4  and  C_5
REMARK    5  A    between atoms: N_4  and  C_8
REMARK    6  A    between atoms: C_5  and  C_6
REMARK    7  A    between atoms: C_6  and  C_7
REMARK    8  A    between atoms: C_8  and  C_9
REMARK    9  A    between atoms: C_9  and  O_10
REMARK   10  A    between atoms: C_9  and  C_11
REMARK   11  A    between atoms: C_13  and  C_14
REMARK   12  A    between atoms: C_20  and  C_21
REMARK                            x       y       z     vdW  Elec       q    Type
REMARK                         _______ _______ _______ _____ _____    ______ ____
ROOT
ATOM      1  C   UNL     1       3.168   5.841  18.257  0.00  0.00    +0.000 A 
ATOM      2  C   UNL     1       3.005   4.789  19.179  0.00  0.00    +0.000 A 
ATOM      3  C   UNL     1       2.308   4.994  20.350  0.00  0.00    +0.000 A 
ATOM      4  N   UNL     1       1.756   6.200  20.628  0.00  0.00    +0.000 NA
ATOM      5  C   UNL     1       1.864   7.225  19.768  0.00  0.00    +0.000 A 
ATOM      6  C   UNL     1       1.255   8.435  20.092  0.00  0.00    +0.000 A 
ATOM      7  C   UNL     1       1.339   9.536  19.220  0.00  0.00    +0.000 A 
ATOM      8  C   UNL     1       2.030   9.435  18.022  0.00  0.00    +0.000 A 
ATOM      9  C   UNL     1       2.644   8.232  17.692  0.00  0.00    +0.000 A 
ATOM     10  C   UNL     1       2.577   7.102  18.546  0.00  0.00    +0.000 A 
ENDROOT
BRANCH   3  11
ATOM     11  C   UNL     1       2.152   3.858  21.353  0.00  0.00    +0.000 C 
ATOM     12  F   UNL     1       2.987   2.803  21.098  0.00  0.00    +0.000 F 
ATOM     13  F   UNL     1       2.434   4.232  22.634  0.00  0.00    +0.000 F 
ATOM     14  F   UNL     1       0.898   3.327  21.376  0.00  0.00    +0.000 F 
ENDBRANCH   3  11
BRANCH   6  15
ATOM     15  C   UNL     1       0.470   8.605  21.372  0.00  0.00    +0.000 C 
ATOM     16  F   UNL     1       1.152   8.541  22.545  0.00  0.00    +0.000 F 
ATOM     17  F   UNL     1      -0.178   9.809  21.402  0.00  0.00    +0.000 F 
ATOM     18  F   UNL     1      -0.521   7.669  21.479  0.00  0.00    +0.000 F 
ENDBRANCH   6  15
BRANCH   1  19
ATOM     19  C   UNL     1       3.947   5.534  16.989  0.00  0.00    +0.000 C 
BRANCH  19  20
ATOM     20  O   UNL     1       4.547   4.253  17.186  0.00  0.00    +0.000 OA
ATOM     21  H   UNL     1       4.234   3.907  18.037  0.00  0.00    +0.000 HD
ENDBRANCH  19  20
BRANCH  19  22
ATOM     22  C   UNL     1       4.997   6.650  16.673  0.00  0.00    +0.000 C 
BRANCH  22  23
ATOM     23  N   UNL     1       6.111   6.299  15.747  0.00  0.00    +0.000 NA
BRANCH  23  24
ATOM     24  C   UNL     1       7.269   5.820  16.540  0.00  0.00    +0.000 C 
BRANCH  24  26
ATOM     25  C   UNL     1       7.695   5.633  19.055  0.00  0.00    +0.000 C 
ATOM     26  C   UNL     1       7.599   6.552  17.849  0.00  0.00    +0.000 C 
ENDBRANCH  24  26
ENDBRANCH  23  24
BRANCH  23  27
ATOM     27  C   UNL     1       5.656   5.263  14.783  0.00  0.00    +0.000 C 
BRANCH  27  28
ATOM     28  C   UNL     1       6.759   4.402  14.137  0.00  0.00    +0.000 C 
ATOM     29  C   UNL     1       6.314   3.665  12.882  0.00  0.00    +0.000 C 
ENDBRANCH  27  28
ENDBRANCH  23  27
ENDBRANCH  22  23
ENDBRANCH  19  22
ENDBRANCH   1  19
TORSDOF 10
ENDMDL
MODEL 8
REMARK VINA RESULT:      -6.9      0.668      2.313
REMARK  Name = 
REMARK  12 active torsions:
REMARK  status: ('A' for Active; 'I' for Inactive)
REMARK    1  A    between atoms: C_1  and  C_2
REMARK    2  A    between atoms: C_2  and  C_3
REMARK    3  A    between atoms: C_3  and  N_4
REMARK    4  A    between atoms: N_4  and  C_5
REMARK    5  A    between atoms: N_4  and  C_8
REMARK    6  A    between atoms: C_5  and  C_6
REMARK    7  A    between atoms: C_6  and  C_7
REMARK    8  A    between atoms: C_8  and  C_9
REMARK    9  A    between atoms: C_9  and  O_10
REMARK   10  A    between atoms: C_9  and  C_11
REMARK   11  A    between atoms: C_13  and  C_14
REMARK   12  A    between atoms: C_20  and  C_21
REMARK                            x       y       z     vdW  Elec       q    Type
REMARK                         _______ _______ _______ _____ _____    ______ ____
ROOT
ATOM      1  C   UNL     1       3.110   5.144  18.264  0.00  0.00    +0.000 A 
ATOM      2  C   UNL     1       2.912   4.193  19.284  0.00  0.00    +0.000 A 
ATOM      3  C   UNL     1       2.303   4.557  20.464  0.00  0.00    +0.000 A 
ATOM      4  N   UNL     1       1.869   5.826  20.659  0.00  0.00    +0.000 NA
ATOM      5  C   UNL     1       2.012   6.761  19.707  0.00  0.00    +0.000 A 
ATOM      6  C   UNL     1       1.525   8.043  19.950  0.00  0.00    +0.000 A 
ATOM      7  C   UNL     1       1.651   9.054  18.980  0.00  0.00    +0.000 A 
ATOM      8  C   UNL     1       2.262   8.791  17.763  0.00  0.00    +0.000 A 
ATOM      9  C   UNL     1       2.755   7.515  17.513  0.00  0.00    +0.000 A 
ATOM     10  C   UNL     1       2.643   6.472  18.467  0.00  0.00    +0.000 A 
ENDROOT
BRANCH   3  11
ATOM     11  C   UNL     1       2.109   3.529  21.572  0.00  0.00    +0.000 C 
ATOM     12  F   UNL     1       2.926   2.439  21.434  0.00  0.00    +0.000 F 
ATOM     13  F   UNL     1       2.383   4.023  22.814  0.00  0.00    +0.000 F 
ATOM     14  F   UNL     1       0.845   3.027  21.628  0.00  0.00    +0.000 F 
ENDBRANCH   3  11
BRANCH   6  15
ATOM     15  C   UNL     1       0.831   8.389  21.247  0.00  0.00    +0.000 C 
ATOM     16  F   UNL     1       0.287   9.629  21.361  0.00  0.00    +0.000 F 
ATOM     17  F   UNL     1      -0.196   7.524  21.508  0.00  0.00    +0.000 F 
ATOM     18  F   UNL     1       1.676   8.266  22.315  0.00  0.00    +0.000 F 
ENDBRANCH   6  15
BRANCH   1  19
ATOM     19  C   UNL     1       3.788   4.663  16.992  0.00  0.00    +0.000 C 
BRANCH  19  20
ATOM     20  O   UNL     1       3.409   3.296  16.826  0.00  0.00    +0.000 OA
ATOM     21  H   UNL     1       2.576   3.159  17.307  0.00  0.00    +0.000 HD
ENDBRANCH  19  20
BRANCH  19  22
ATOM     22  C   UNL     1       5.339   4.856  17.057  0.00  0.00    +0.000 C 
BRANCH  22  23
ATOM     23  N   UNL     1       5.924   5.969  16.257  0.00  0.00    +0.000 NA
BRANCH  23  24
ATOM     24  C   UNL     1       6.254   7.096  17.163  0.00  0.00    +0.000 C 
BRANCH  24  26
ATOM     25  C   UNL     1       8.175   8.602  17.927  0.00  0.00    +0.000 C 
ATOM     26  C   UNL     1       7.682   7.180  17.721  0.00  0.00    +0.000 C 
ENDBRANCH  24  26
ENDBRANCH  23  24
BRANCH  23  27
ATOM     27  C   UNL     1       7.132   5.490  15.536  0.00  0.00    +0.000 C 
BRANCH  27  28
ATOM     28  C   UNL     1       6.880   4.589  14.311  0.00  0.00    +0.000 C 
ATOM     29  C   UNL     1       7.603   5.042  13.050  0.00  0.00    +0.000 C 
ENDBRANCH  27  28
ENDBRANCH  23  27
ENDBRANCH  22  23
ENDBRANCH  19  22
ENDBRANCH   1  19
TORSDOF 10
ENDMDL
MODEL 9
REMARK VINA RESULT:      -6.8      3.335      7.235
REMARK  Name = 
REMARK  12 active torsions:
REMARK  status: ('A' for Active; 'I' for Inactive)
REMARK    1  A    between atoms: C_1  and  C_2
REMARK    2  A    between atoms: C_2  and  C_3
REMARK    3  A    between atoms: C_3  and  N_4
REMARK    4  A    between atoms: N_4  and  C_5
REMARK    5  A    between atoms: N_4  and  C_8
REMARK    6  A    between atoms: C_5  and  C_6
REMARK    7  A    between atoms: C_6  and  C_7
REMARK    8  A    between atoms: C_8  and  C_9
REMARK    9  A    between atoms: C_9  and  O_10
REMARK   10  A    between atoms: C_9  and  C_11
REMARK   11  A    between atoms: C_13  and  C_14
REMARK   12  A    between atoms: C_20  and  C_21
REMARK                            x       y       z     vdW  Elec       q    Type
REMARK                         _______ _______ _______ _____ _____    ______ ____
ROOT
ATOM      1  C   UNL     1       2.674   7.003  18.446  0.00  0.00    +0.000 A 
ATOM      2  C   UNL     1       3.784   7.060  17.581  0.00  0.00    +0.000 A 
ATOM      3  C   UNL     1       4.679   6.015  17.530  0.00  0.00    +0.000 A 
ATOM      4  N   UNL     1       4.502   4.911  18.296  0.00  0.00    +0.000 NA
ATOM      5  C   UNL     1       3.447   4.799  19.117  0.00  0.00    +0.000 A 
ATOM      6  C   UNL     1       3.299   3.632  19.862  0.00  0.00    +0.000 A 
ATOM      7  C   UNL     1       2.206   3.470  20.733  0.00  0.00    +0.000 A 
ATOM      8  C   UNL     1       1.255   4.472  20.865  0.00  0.00    +0.000 A 
ATOM      9  C   UNL     1       1.397   5.642  20.128  0.00  0.00    +0.000 A 
ATOM     10  C   UNL     1       2.484   5.837  19.239  0.00  0.00    +0.000 A 
ENDROOT
BRANCH   3  11
ATOM     11  C   UNL     1       5.890   6.090  16.608  0.00  0.00    +0.000 C 
ATOM     12  F   UNL     1       5.546   6.151  15.284  0.00  0.00    +0.000 F 
ATOM     13  F   UNL     1       6.661   7.193  16.825  0.00  0.00    +0.000 F 
ATOM     14  F   UNL     1       6.719   5.015  16.715  0.00  0.00    +0.000 F 
ENDBRANCH   3  11
BRANCH   6  15
ATOM     15  C   UNL     1       4.287   2.495  19.749  0.00  0.00    +0.000 C 
ATOM     16  F   UNL     1       3.995   1.486  18.886  0.00  0.00    +0.000 F 
ATOM     17  F   UNL     1       5.521   2.945  19.366  0.00  0.00    +0.000 F 
ATOM     18  F   UNL     1       4.492   1.887  20.957  0.00  0.00    +0.000 F 
ENDBRANCH   6  15
BRANCH   1  19
ATOM     19  C   UNL     1       1.732   8.195  18.441  0.00  0.00    +0.000 C 
BRANCH  19  20
ATOM     20  O   UNL     1       2.102   8.996  17.318  0.00  0.00    +0.000 OA
ATOM     21  H   UNL     1       2.340   9.878  17.649  0.00  0.00    +0.000 HD
ENDBRANCH  19  20
BRANCH  19  22
ATOM     22  C   UNL     1       1.792   8.983  19.792  0.00  0.00    +0.000 C 
BRANCH  22  23
ATOM     23  N   UNL     1       0.498   9.418  20.388  0.00  0.00    +0.000 NA
BRANCH  23  24
ATOM     24  C   UNL     1       0.707   9.740  21.821  0.00  0.00    +0.000 C 
BRANCH  24  26
ATOM     25  C   UNL     1      -1.205  10.856  23.102  0.00  0.00    +0.000 C 
ATOM     26  C   UNL     1      -0.478   9.561  22.781  0.00  0.00    +0.000 C 
ENDBRANCH  24  26
ENDBRANCH  23  24
BRANCH  23  27
ATOM     27  C   UNL     1      -0.028  10.593  19.646  0.00  0.00    +0.000 C 
BRANCH  27  28
ATOM     28  C   UNL     1      -1.424  10.430  19.013  0.00  0.00    +0.000 C 
ATOM     29  C   UNL     1      -1.395  10.082  17.532  0.00  0.00    +0.000 C 
ENDBRANCH  27  28
ENDBRANCH  23  27
ENDBRANCH  22  23
ENDBRANCH  19  22
ENDBRANCH   1  19
TORSDOF 10
ENDMDL
