MODEL 1
REMARK VINA RESULT:      -6.5      0.000      0.000
REMARK  Name = 
REMARK  8 active torsions:
REMARK  status: ('A' for Active; 'I' for Inactive)
REMARK    1  A    between atoms: C_1  and  C_2
REMARK    2  A    between atoms: C_2  and  C_3
REMARK    3  A    between atoms: C_2  and  C_4
REMARK    4  A    between atoms: C_2  and  N_5
REMARK    5  A    between atoms: N_5  and  C_6
REMARK    6  A    between atoms: C_6  and  C_7
REMARK    7  A    between atoms: C_7  and  O_8
REMARK    8  A    between atoms: C_7  and  C_9
REMARK                            x       y       z     vdW  Elec       q    Type
REMARK                         _______ _______ _______ _____ _____    ______ ____
ROOT
ATOM      1  C   UNL     1       5.089   4.314  19.412  0.00  0.00    +0.000 C 
ENDROOT
BRANCH   1   2
ATOM      2  C   UNL     1       5.808   4.666  18.119  0.00  0.00    +0.000 A 
ATOM      3  C   UNL     1       6.636   5.817  18.052  0.00  0.00    +0.000 A 
ATOM      4  C   UNL     1       7.246   6.189  16.838  0.00  0.00    +0.000 A 
ATOM      5  C   UNL     1       7.004   5.398  15.720  0.00  0.00    +0.000 A 
ATOM      6  C   UNL     1       6.227   4.298  15.776  0.00  0.00    +0.000 A 
ATOM      7  C   UNL     1       5.615   3.883  16.953  0.00  0.00    +0.000 A 
ATOM      8  O   UNL     1       6.157   3.745  14.562  0.00  0.00    +0.000 OA
ATOM      9  C   UNL     1       6.913   4.532  13.698  0.00  0.00    +0.000 C 
ATOM     10  O   UNL     1       7.443   5.564  14.471  0.00  0.00    +0.000 OA
ENDBRANCH   1   2
BRANCH   1  11
ATOM     11  O   UNL     1       5.253   2.952  19.721  0.00  0.00    +0.000 OA
ATOM     12  H   UNL     1       6.172   2.823  20.076  0.00  0.00    +0.000 HD
ENDBRANCH   1  11
BRANCH   1  13
ATOM     13  C   UNL     1       3.605   4.711  19.277  0.00  0.00    +0.000 C 
BRANCH  13  14
ATOM     14  N   UNL     1       2.687   3.622  19.650  0.00  0.00    +0.000 NA
ATOM     15  H   UNL     1       3.256   2.817  20.005  0.00  0.00    +0.000 HD
BRANCH  14  17
ATOM     16  C   UNL     1       0.488   2.548  19.062  0.00  0.00    +0.000 C 
ATOM     17  C   UNL     1       1.821   3.141  18.537  0.00  0.00    +0.000 C 
ATOM     18  C   UNL     1       2.548   2.088  17.669  0.00  0.00    +0.000 C 
ATOM     19  C   UNL     1       1.491   4.344  17.630  0.00  0.00    +0.000 C 
ENDBRANCH  14  17
ENDBRANCH  13  14
ENDBRANCH   1  13
TORSDOF 5
ENDMDL
MODEL 2
REMARK VINA RESULT:      -6.4      1.055      1.871
REMARK  Name = 
REMARK  8 active torsions:
REMARK  status: ('A' for Active; 'I' for Inactive)
REMARK    1  A    between atoms: C_1  and  C_2
REMARK    2  A    between atoms: C_2  and  C_3
REMARK    3  A    between atoms: C_2  and  C_4
REMARK    4  A    between atoms: C_2  and  N_5
REMARK    5  A    between atoms: N_5  and  C_6
REMARK    6  A    between atoms: C_6  and  C_7
REMARK    7  A    between atoms: C_7  and  O_8
REMARK    8  A    between atoms: C_7  and  C_9
REMARK                            x       y       z     vdW  Elec       q    Type
REMARK                         _______ _______ _______ _____ _____    ______ ____
ROOT
ATOM      1  C   UNL     1       5.502   4.849  18.358  0.00  0.00    +0.000 C 
ENDROOT
BRANCH   1   2
ATOM      2  C   UNL     1       5.772   4.723  16.866  0.00  0.00    +0.000 A 
ATOM      3  C   UNL     1       4.953   3.890  16.059  0.00  0.00    +0.000 A 
ATOM      4  C   UNL     1       5.242   3.712  14.693  0.00  0.00    +0.000 A 
ATOM      5  C   UNL     1       6.351   4.372  14.172  0.00  0.00    +0.000 A 
ATOM      6  C   UNL     1       7.128   5.172  14.927  0.00  0.00    +0.000 A 
ATOM      7  C   UNL     1       6.876   5.389  16.277  0.00  0.00    +0.000 A 
ATOM      8  O   UNL     1       8.122   5.658  14.179  0.00  0.00    +0.000 OA
ATOM      9  C   UNL     1       7.974   5.137  12.896  0.00  0.00    +0.000 C 
ATOM     10  O   UNL     1       6.835   4.334  12.928  0.00  0.00    +0.000 OA
ENDBRANCH   1   2
BRANCH   1  11
ATOM     11  O   UNL     1       5.915   3.690  19.040  0.00  0.00    +0.000 OA
ATOM     12  H   UNL     1       6.848   3.486  18.767  0.00  0.00    +0.000 HD
ENDBRANCH   1  11
BRANCH   1  13
ATOM     13  C   UNL     1       4.004   5.151  18.566  0.00  0.00    +0.000 C 
BRANCH  13  14
ATOM     14  N   UNL     1       3.350   4.193  19.473  0.00  0.00    +0.000 NA
ATOM     15  H   UNL     1       4.023   3.416  19.676  0.00  0.00    +0.000 HD
BRANCH  14  17
ATOM     16  C   UNL     1       0.953   3.629  19.995  0.00  0.00    +0.000 C 
ATOM     17  C   UNL     1       2.089   3.606  18.939  0.00  0.00    +0.000 C 
ATOM     18  C   UNL     1       2.305   2.156  18.446  0.00  0.00    +0.000 C 
ATOM     19  C   UNL     1       1.642   4.447  17.728  0.00  0.00    +0.000 C 
ENDBRANCH  14  17
ENDBRANCH  13  14
ENDBRANCH   1  13
TORSDOF 5
ENDMDL
MODEL 3
REMARK VINA RESULT:      -6.3      2.770      5.393
REMARK  Name = 
REMARK  8 active torsions:
REMARK  status: ('A' for Active; 'I' for Inactive)
REMARK    1  A    between atoms: C_1  and  C_2
REMARK    2  A    between atoms: C_2  and  C_3
REMARK    3  A    between atoms: C_2  and  C_4
REMARK    4  A    between atoms: C_2  and  N_5
REMARK    5  A    between atoms: N_5  and  C_6
REMARK    6  A    between atoms: C_6  and  C_7
REMARK    7  A    between atoms: C_7  and  O_8
REMARK    8  A    between atoms: C_7  and  C_9
REMARK                            x       y       z     vdW  Elec       q    Type
REMARK                         _______ _______ _______ _____ _____    ______ ____
ROOT
ATOM      1  C   UNL     1       6.644   4.980  18.820  0.00  0.00    +0.000 C 
ENDROOT
BRANCH   1   2
ATOM      2  C   UNL     1       5.143   4.812  19.000  0.00  0.00    +0.000 A 
ATOM      3  C   UNL     1       4.276   5.926  18.846  0.00  0.00    +0.000 A 
ATOM      4  C   UNL     1       2.894   5.793  19.083  0.00  0.00    +0.000 A 
ATOM      5  C   UNL     1       2.418   4.545  19.474  0.00  0.00    +0.000 A 
ATOM      6  C   UNL     1       3.232   3.480  19.613  0.00  0.00    +0.000 A 
ATOM      7  C   UNL     1       4.600   3.558  19.378  0.00  0.00    +0.000 A 
ATOM      8  O   UNL     1       2.516   2.425  20.011  0.00  0.00    +0.000 OA
ATOM      9  C   UNL     1       1.193   2.841  20.137  0.00  0.00    +0.000 C 
ATOM     10  O   UNL     1       1.169   4.188  19.779  0.00  0.00    +0.000 OA
ENDBRANCH   1   2
BRANCH   1  11
ATOM     11  O   UNL     1       7.237   5.467  19.998  0.00  0.00    +0.000 OA
ATOM     12  H   UNL     1       7.991   6.062  19.743  0.00  0.00    +0.000 HD
ENDBRANCH   1  11
BRANCH   1  13
ATOM     13  C   UNL     1       6.898   5.900  17.610  0.00  0.00    +0.000 C 
BRANCH  13  14
ATOM     14  N   UNL     1       7.440   5.177  16.447  0.00  0.00    +0.000 NA
ATOM     15  H   UNL     1       8.228   5.740  16.045  0.00  0.00    +0.000 HD
BRANCH  14  17
ATOM     16  C   UNL     1       5.727   3.552  15.577  0.00  0.00    +0.000 C 
ATOM     17  C   UNL     1       6.445   4.911  15.371  0.00  0.00    +0.000 C 
ATOM     18  C   UNL     1       7.104   4.939  13.972  0.00  0.00    +0.000 C 
ATOM     19  C   UNL     1       5.385   6.030  15.408  0.00  0.00    +0.000 C 
ENDBRANCH  14  17
ENDBRANCH  13  14
ENDBRANCH   1  13
TORSDOF 5
ENDMDL
MODEL 4
REMARK VINA RESULT:      -6.3      1.076      2.131
REMARK  Name = 
REMARK  8 active torsions:
REMARK  status: ('A' for Active; 'I' for Inactive)
REMARK    1  A    between atoms: C_1  and  C_2
REMARK    2  A    between atoms: C_2  and  C_3
REMARK    3  A    between atoms: C_2  and  C_4
REMARK    4  A    between atoms: C_2  and  N_5
REMARK    5  A    between atoms: N_5  and  C_6
REMARK    6  A    between atoms: C_6  and  C_7
REMARK    7  A    between atoms: C_7  and  O_8
REMARK    8  A    between atoms: C_7  and  C_9
REMARK                            x       y       z     vdW  Elec       q    Type
REMARK                         _______ _______ _______ _____ _____    ______ ____
ROOT
ATOM      1  C   UNL     1       5.508   5.060  18.474  0.00  0.00    +0.000 C 
ENDROOT
BRANCH   1   2
ATOM      2  C   UNL     1       5.757   4.866  16.986  0.00  0.00    +0.000 A 
ATOM      3  C   UNL     1       4.919   4.008  16.227  0.00  0.00    +0.000 A 
ATOM      4  C   UNL     1       5.189   3.767  14.866  0.00  0.00    +0.000 A 
ATOM      5  C   UNL     1       6.299   4.390  14.303  0.00  0.00    +0.000 A 
ATOM      6  C   UNL     1       7.095   5.213  15.013  0.00  0.00    +0.000 A 
ATOM      7  C   UNL     1       6.862   5.492  16.355  0.00  0.00    +0.000 A 
ATOM      8  O   UNL     1       8.085   5.653  14.232  0.00  0.00    +0.000 OA
ATOM      9  C   UNL     1       7.914   5.078  12.976  0.00  0.00    +0.000 C 
ATOM     10  O   UNL     1       6.766   4.292  13.057  0.00  0.00    +0.000 OA
ENDBRANCH   1   2
BRANCH   1  11
ATOM     11  O   UNL     1       5.990   3.962  19.209  0.00  0.00    +0.000 OA
ATOM     12  H   UNL     1       6.969   4.074  19.328  0.00  0.00    +0.000 HD
ENDBRANCH   1  11
BRANCH   1  13
ATOM     13  C   UNL     1       4.001   5.300  18.696  0.00  0.00    +0.000 C 
BRANCH  13  14
ATOM     14  N   UNL     1       3.385   4.287  19.571  0.00  0.00    +0.000 NA
ATOM     15  H   UNL     1       4.101   3.551  19.780  0.00  0.00    +0.000 HD
BRANCH  14  17
ATOM     16  C   UNL     1       1.647   4.396  17.754  0.00  0.00    +0.000 C 
ATOM     17  C   UNL     1       2.178   3.631  18.995  0.00  0.00    +0.000 C 
ATOM     18  C   UNL     1       1.049   3.503  20.044  0.00  0.00    +0.000 C 
ATOM     19  C   UNL     1       2.569   2.206  18.555  0.00  0.00    +0.000 C 
ENDBRANCH  14  17
ENDBRANCH  13  14
ENDBRANCH   1  13
TORSDOF 5
ENDMDL
MODEL 5
REMARK VINA RESULT:      -6.3      2.956      5.744
REMARK  Name = 
REMARK  8 active torsions:
REMARK  status: ('A' for Active; 'I' for Inactive)
REMARK    1  A    between atoms: C_1  and  C_2
REMARK    2  A    between atoms: C_2  and  C_3
REMARK    3  A    between atoms: C_2  and  C_4
REMARK    4  A    between atoms: C_2  and  N_5
REMARK    5  A    between atoms: N_5  and  C_6
REMARK    6  A    between atoms: C_6  and  C_7
REMARK    7  A    between atoms: C_7  and  O_8
REMARK    8  A    between atoms: C_7  and  C_9
REMARK                            x       y       z     vdW  Elec       q    Type
REMARK                         _______ _______ _______ _____ _____    ______ ____
ROOT
ATOM      1  C   UNL     1       3.372   7.461  17.918  0.00  0.00    +0.000 C 
ENDROOT
BRANCH   1   2
ATOM      2  C   UNL     1       2.615   6.315  18.571  0.00  0.00    +0.000 A 
ATOM      3  C   UNL     1       2.385   6.318  19.972  0.00  0.00    +0.000 A 
ATOM      4  C   UNL     1       1.750   5.225  20.594  0.00  0.00    +0.000 A 
ATOM      5  C   UNL     1       1.366   4.155  19.792  0.00  0.00    +0.000 A 
ATOM      6  C   UNL     1       1.571   4.147  18.460  0.00  0.00    +0.000 A 
ATOM      7  C   UNL     1       2.182   5.207  17.800  0.00  0.00    +0.000 A 
ATOM      8  O   UNL     1       1.121   2.998  17.950  0.00  0.00    +0.000 OA
ATOM      9  C   UNL     1       0.618   2.240  19.004  0.00  0.00    +0.000 C 
ATOM     10  O   UNL     1       0.781   3.010  20.154  0.00  0.00    +0.000 OA
ENDBRANCH   1   2
BRANCH   1  11
ATOM     11  O   UNL     1       2.490   8.320  17.238  0.00  0.00    +0.000 OA
ATOM     12  H   UNL     1       1.622   8.318  17.721  0.00  0.00    +0.000 HD
ENDBRANCH   1  11
BRANCH   1  13
ATOM     13  C   UNL     1       4.453   6.873  16.988  0.00  0.00    +0.000 C 
BRANCH  13  14
ATOM     14  N   UNL     1       5.641   6.403  17.721  0.00  0.00    +0.000 NA
ATOM     15  H   UNL     1       6.470   6.955  17.395  0.00  0.00    +0.000 HD
BRANCH  14  17
ATOM     16  C   UNL     1       5.308   4.392  16.245  0.00  0.00    +0.000 C 
ATOM     17  C   UNL     1       5.934   4.953  17.549  0.00  0.00    +0.000 C 
ATOM     18  C   UNL     1       5.434   4.128  18.757  0.00  0.00    +0.000 C 
ATOM     19  C   UNL     1       7.463   4.777  17.467  0.00  0.00    +0.000 C 
ENDBRANCH  14  17
ENDBRANCH  13  14
ENDBRANCH   1  13
TORSDOF 5
ENDMDL
MODEL 6
REMARK VINA RESULT:      -6.3      2.957      5.710
REMARK  Name = 
REMARK  8 active torsions:
REMARK  status: ('A' for Active; 'I' for Inactive)
REMARK    1  A    between atoms: C_1  and  C_2
REMARK    2  A    between atoms: C_2  and  C_3
REMARK    3  A    between atoms: C_2  and  C_4
REMARK    4  A    between atoms: C_2  and  N_5
REMARK    5  A    between atoms: N_5  and  C_6
REMARK    6  A    between atoms: C_6  and  C_7
REMARK    7  A    between atoms: C_7  and  O_8
REMARK    8  A    between atoms: C_7  and  C_9
REMARK                            x       y       z     vdW  Elec       q    Type
REMARK                         _______ _______ _______ _____ _____    ______ ____
ROOT
ATOM      1  C   UNL     1       3.391   7.424  17.914  0.00  0.00    +0.000 C 
ENDROOT
BRANCH   1   2
ATOM      2  C   UNL     1       2.618   6.287  18.563  0.00  0.00    +0.000 A 
ATOM      3  C   UNL     1       2.359   6.304  19.959  0.00  0.00    +0.000 A 
ATOM      4  C   UNL     1       1.709   5.219  20.578  0.00  0.00    +0.000 A 
ATOM      5  C   UNL     1       1.340   4.140  19.780  0.00  0.00    +0.000 A 
ATOM      6  C   UNL     1       1.574   4.119  18.453  0.00  0.00    +0.000 A 
ATOM      7  C   UNL     1       2.200   5.171  17.794  0.00  0.00    +0.000 A 
ATOM      8  O   UNL     1       1.134   2.965  17.945  0.00  0.00    +0.000 OA
ATOM      9  C   UNL     1       0.607   2.219  18.997  0.00  0.00    +0.000 C 
ATOM     10  O   UNL     1       0.747   3.001  20.142  0.00  0.00    +0.000 OA
ENDBRANCH   1   2
BRANCH   1  11
ATOM     11  O   UNL     1       2.518   8.313  17.261  0.00  0.00    +0.000 OA
ATOM     12  H   UNL     1       2.234   9.005  17.915  0.00  0.00    +0.000 HD
ENDBRANCH   1  11
BRANCH   1  13
ATOM     13  C   UNL     1       4.443   6.826  16.958  0.00  0.00    +0.000 C 
BRANCH  13  14
ATOM     14  N   UNL     1       5.682   6.432  17.650  0.00  0.00    +0.000 NA
ATOM     15  H   UNL     1       6.477   6.983  17.244  0.00  0.00    +0.000 HD
BRANCH  14  17
ATOM     16  C   UNL     1       5.445   4.186  18.758  0.00  0.00    +0.000 C 
ATOM     17  C   UNL     1       6.006   4.982  17.551  0.00  0.00    +0.000 C 
ATOM     18  C   UNL     1       7.530   4.748  17.443  0.00  0.00    +0.000 C 
ATOM     19  C   UNL     1       5.358   4.431  16.265  0.00  0.00    +0.000 C 
ENDBRANCH  14  17
ENDBRANCH  13  14
ENDBRANCH   1  13
TORSDOF 5
ENDMDL
MODEL 7
REMARK VINA RESULT:      -6.2      1.045      1.271
REMARK  Name = 
REMARK  8 active torsions:
REMARK  status: ('A' for Active; 'I' for Inactive)
REMARK    1  A    between atoms: C_1  and  C_2
REMARK    2  A    between atoms: C_2  and  C_3
REMARK    3  A    between atoms: C_2  and  C_4
REMARK    4  A    between atoms: C_2  and  N_5
REMARK    5  A    between atoms: N_5  and  C_6
REMARK    6  A    between atoms: C_6  and  C_7
REMARK    7  A    between atoms: C_7  and  O_8
REMARK    8  A    between atoms: C_7  and  C_9
REMARK                            x       y       z     vdW  Elec       q    Type
REMARK                         _______ _______ _______ _____ _____    ______ ____
ROOT
ATOM      1  C   UNL     1       5.185   4.129  19.482  0.00  0.00    +0.000 C 
ENDROOT
BRANCH   1   2
ATOM      2  C   UNL     1       5.880   4.543  18.194  0.00  0.00    +0.000 A 
ATOM      3  C   UNL     1       6.678   5.717  18.158  0.00  0.00    +0.000 A 
ATOM      4  C   UNL     1       7.263   6.145  16.951  0.00  0.00    +0.000 A 
ATOM      5  C   UNL     1       7.029   5.386  15.809  0.00  0.00    +0.000 A 
ATOM      6  C   UNL     1       6.281   4.266  15.835  0.00  0.00    +0.000 A 
ATOM      7  C   UNL     1       5.693   3.795  17.004  0.00  0.00    +0.000 A 
ATOM      8  O   UNL     1       6.210   3.752  14.604  0.00  0.00    +0.000 OA
ATOM      9  C   UNL     1       6.936   4.588  13.760  0.00  0.00    +0.000 C 
ATOM     10  O   UNL     1       7.448   5.607  14.561  0.00  0.00    +0.000 OA
ENDBRANCH   1   2
BRANCH   1  11
ATOM     11  O   UNL     1       5.213   2.732  19.639  0.00  0.00    +0.000 OA
ATOM     12  H   UNL     1       5.436   2.530  20.585  0.00  0.00    +0.000 HD
ENDBRANCH   1  11
BRANCH   1  13
ATOM     13  C   UNL     1       3.749   4.690  19.472  0.00  0.00    +0.000 C 
BRANCH  13  14
ATOM     14  N   UNL     1       2.747   3.687  19.072  0.00  0.00    +0.000 NA
ATOM     15  H   UNL     1       2.321   3.988  18.163  0.00  0.00    +0.000 HD
BRANCH  14  17
ATOM     16  C   UNL     1       2.173   2.770  21.344  0.00  0.00    +0.000 C 
ATOM     17  C   UNL     1       1.657   3.479  20.066  0.00  0.00    +0.000 C 
ATOM     18  C   UNL     1       0.488   2.667  19.462  0.00  0.00    +0.000 C 
ATOM     19  C   UNL     1       1.104   4.861  20.468  0.00  0.00    +0.000 C 
ENDBRANCH  14  17
ENDBRANCH  13  14
ENDBRANCH   1  13
TORSDOF 5
ENDMDL
MODEL 8
REMARK VINA RESULT:      -6.2      2.344      5.728
REMARK  Name = 
REMARK  8 active torsions:
REMARK  status: ('A' for Active; 'I' for Inactive)
REMARK    1  A    between atoms: C_1  and  C_2
REMARK    2  A    between atoms: C_2  and  C_3
REMARK    3  A    between atoms: C_2  and  C_4
REMARK    4  A    between atoms: C_2  and  N_5
REMARK    5  A    between atoms: N_5  and  C_6
REMARK    6  A    between atoms: C_6  and  C_7
REMARK    7  A    between atoms: C_7  and  O_8
REMARK    8  A    between atoms: C_7  and  C_9
REMARK                            x       y       z     vdW  Elec       q    Type
REMARK                         _______ _______ _______ _____ _____    ______ ____
ROOT
ATOM      1  C   UNL     1       5.793   4.111  16.098  0.00  0.00    +0.000 C 
ENDROOT
BRANCH   1   2
ATOM      2  C   UNL     1       4.786   3.831  17.203  0.00  0.00    +0.000 A 
ATOM      3  C   UNL     1       5.223   3.662  18.543  0.00  0.00    +0.000 A 
ATOM      4  C   UNL     1       4.304   3.330  19.557  0.00  0.00    +0.000 A 
ATOM      5  C   UNL     1       2.969   3.170  19.198  0.00  0.00    +0.000 A 
ATOM      6  C   UNL     1       2.543   3.338  17.931  0.00  0.00    +0.000 A 
ATOM      7  C   UNL     1       3.409   3.678  16.898  0.00  0.00    +0.000 A 
ATOM      8  O   UNL     1       1.229   3.108  17.872  0.00  0.00    +0.000 OA
ATOM      9  C   UNL     1       0.804   2.773  19.155  0.00  0.00    +0.000 C 
ATOM     10  O   UNL     1       1.933   2.832  19.970  0.00  0.00    +0.000 OA
ENDBRANCH   1   2
BRANCH   1  11
ATOM     11  O   UNL     1       5.972   2.977  15.285  0.00  0.00    +0.000 OA
ATOM     12  H   UNL     1       5.153   2.418  15.348  0.00  0.00    +0.000 HD
ENDBRANCH   1  11
BRANCH   1  13
ATOM     13  C   UNL     1       7.112   4.587  16.741  0.00  0.00    +0.000 C 
BRANCH  13  14
ATOM     14  N   UNL     1       7.398   6.006  16.469  0.00  0.00    +0.000 NA
ATOM     15  H   UNL     1       8.399   6.090  16.169  0.00  0.00    +0.000 HD
BRANCH  14  17
ATOM     16  C   UNL     1       5.664   7.235  17.816  0.00  0.00    +0.000 C 
ATOM     17  C   UNL     1       7.169   6.911  17.630  0.00  0.00    +0.000 C 
ATOM     18  C   UNL     1       7.966   8.229  17.484  0.00  0.00    +0.000 C 
ATOM     19  C   UNL     1       7.674   6.200  18.901  0.00  0.00    +0.000 C 
ENDBRANCH  14  17
ENDBRANCH  13  14
ENDBRANCH   1  13
TORSDOF 5
ENDMDL
MODEL 9
REMARK VINA RESULT:      -6.2      2.983      6.083
REMARK  Name = 
REMARK  8 active torsions:
REMARK  status: ('A' for Active; 'I' for Inactive)
REMARK    1  A    between atoms: C_1  and  C_2
REMARK    2  A    between atoms: C_2  and  C_3
REMARK    3  A    between atoms: C_2  and  C_4
REMARK    4  A    between atoms: C_2  and  N_5
REMARK    5  A    between atoms: N_5  and  C_6
REMARK    6  A    between atoms: C_6  and  C_7
REMARK    7  A    between atoms: C_7  and  O_8
REMARK    8  A    between atoms: C_7  and  C_9
REMARK                            x       y       z     vdW  Elec       q    Type
REMARK                         _______ _______ _______ _____ _____    ______ ____
ROOT
ATOM      1  C   UNL     1       3.465   7.394  18.027  0.00  0.00    +0.000 C 
ENDROOT
BRANCH   1   2
ATOM      2  C   UNL     1       2.662   6.246  18.620  0.00  0.00    +0.000 A 
ATOM      3  C   UNL     1       2.318   6.252  19.997  0.00  0.00    +0.000 A 
ATOM      4  C   UNL     1       1.639   5.158  20.568  0.00  0.00    +0.000 A 
ATOM      5  C   UNL     1       1.327   4.083  19.741  0.00  0.00    +0.000 A 
ATOM      6  C   UNL     1       1.642   4.073  18.431  0.00  0.00    +0.000 A 
ATOM      7  C   UNL     1       2.300   5.134  17.819  0.00  0.00    +0.000 A 
ATOM      8  O   UNL     1       1.242   2.919  17.889  0.00  0.00    +0.000 OA
ATOM      9  C   UNL     1       0.657   2.162  18.901  0.00  0.00    +0.000 C 
ATOM     10  O   UNL     1       0.721   2.937  20.057  0.00  0.00    +0.000 OA
ENDBRANCH   1   2
BRANCH   1  11
ATOM     11  O   UNL     1       2.675   8.155  17.148  0.00  0.00    +0.000 OA
ATOM     12  H   UNL     1       3.257   8.835  16.717  0.00  0.00    +0.000 HD
ENDBRANCH   1  11
BRANCH   1  13
ATOM     13  C   UNL     1       4.720   6.818  17.341  0.00  0.00    +0.000 C 
BRANCH  13  14
ATOM     14  N   UNL     1       5.537   5.993  18.247  0.00  0.00    +0.000 NA
ATOM     15  H   UNL     1       5.402   6.343  19.225  0.00  0.00    +0.000 HD
BRANCH  14  17
ATOM     16  C   UNL     1       7.454   7.365  17.367  0.00  0.00    +0.000 C 
ATOM     17  C   UNL     1       6.994   5.997  17.934  0.00  0.00    +0.000 C 
ATOM     18  C   UNL     1       7.360   4.875  16.935  0.00  0.00    +0.000 C 
ATOM     19  C   UNL     1       7.767   5.728  19.240  0.00  0.00    +0.000 C 
ENDBRANCH  14  17
ENDBRANCH  13  14
ENDBRANCH   1  13
TORSDOF 5
ENDMDL
