MODEL 1
REMARK VINA RESULT:      -8.2      0.000      0.000
REMARK  Name = 
REMARK  12 active torsions:
REMARK  status: ('A' for Active; 'I' for Inactive)
REMARK    1  A    between atoms: C_1  and  O_2
REMARK    2  A    between atoms: O_2  and  C_3
REMARK    3  A    between atoms: C_11  and  O_12
REMARK    4  A    between atoms: O_12  and  C_13
REMARK    5  A    between atoms: C_14  and  O_15
REMARK    6  A    between atoms: O_15  and  C_16
REMARK    7  A    between atoms: C_16  and  C_17
REMARK    8  A    between atoms: C_23  and  O_24
REMARK    9  A    between atoms: O_24  and  C_25
REMARK   10  A    between atoms: N_29  and  C_30
REMARK   11  A    between atoms: C_30  and  C_31
REMARK   12  A    between atoms: C_31  and  C_32
REMARK                            x       y       z     vdW  Elec       q    Type
REMARK                         _______ _______ _______ _____ _____    ______ ____
ROOT
ATOM      1  C   UNL     1       2.436   4.578  20.840  0.00  0.00    +0.000 A 
ATOM      2  C   UNL     1       3.448   4.143  19.996  0.00  0.00    +0.000 A 
ATOM      3  C   UNL     1       3.812   4.984  18.958  0.00  0.00    +0.000 A 
ATOM      4  C   UNL     1       3.199   6.222  18.811  0.00  0.00    +0.000 A 
ATOM      5  C   UNL     1       3.746   6.843  17.703  0.00  0.00    +0.000 A 
ATOM      6  C   UNL     1       3.332   8.126  17.360  0.00  0.00    +0.000 A 
ATOM      7  C   UNL     1       2.322   8.744  18.183  0.00  0.00    +0.000 A 
ATOM      8  C   UNL     1       1.871  10.053  17.884  0.00  0.00    +0.000 A 
ATOM      9  C   UNL     1       0.917  10.713  18.677  0.00  0.00    +0.000 A 
ATOM     10  C   UNL     1       0.400  10.109  19.847  0.00  0.00    +0.000 A 
ATOM     11  C   UNL     1       0.825   8.800  20.187  0.00  0.00    +0.000 A 
ATOM     12  C   UNL     1       1.769   8.084  19.342  0.00  0.00    +0.000 A 
ATOM     13  C   UNL     1       2.245   6.753  19.620  0.00  0.00    +0.000 A 
ATOM     14  C   UNL     1       1.850   5.840  20.645  0.00  0.00    +0.000 A 
ATOM     15  N   UNL     1       4.692   5.928  17.149  0.00  0.00    +0.000 N 
ATOM     16  C   UNL     1       4.814   4.775  17.963  0.00  0.00    +0.000 C 
ATOM     17  O   UNL     1       5.602   3.849  17.841  0.00  0.00    +0.000 OA
ENDROOT
BRANCH   1  19
ATOM     18  C   UNL     1       1.500   2.551  21.610  0.00  0.00    +0.000 C 
ATOM     19  O   UNL     1       1.913   3.879  21.900  0.00  0.00    +0.000 OA
ENDBRANCH   1  19
BRANCH   9  20
ATOM     20  O   UNL     1       0.564  12.035  18.497  0.00  0.00    +0.000 OA
ATOM     21  C   UNL     1       1.594  13.000  18.372  0.00  0.00    +0.000 C 
ENDBRANCH   9  20
BRANCH  11  22
ATOM     22  O   UNL     1       0.693   8.259  21.454  0.00  0.00    +0.000 OA
ATOM     23  C   UNL     1      -0.489   8.360  22.248  0.00  0.00    +0.000 C 
ENDBRANCH  11  22
BRANCH  10  24
ATOM     24  O   UNL     1      -0.438  10.967  20.536  0.00  0.00    +0.000 OA
BRANCH  24  25
ATOM     25  C   UNL     1       0.125  11.707  21.591  0.00  0.00    +0.000 C 
BRANCH  25  26
ATOM     26  C   UNL     1      -0.846  12.417  22.484  0.00  0.00    +0.000 A 
ATOM     27  C   UNL     1      -0.616  13.760  22.831  0.00  0.00    +0.000 A 
ATOM     28  C   UNL     1      -1.554  14.460  23.579  0.00  0.00    +0.000 A 
ATOM     29  C   UNL     1      -2.725  13.825  23.983  0.00  0.00    +0.000 A 
ATOM     30  C   UNL     1      -2.973  12.501  23.614  0.00  0.00    +0.000 A 
ATOM     31  C   UNL     1      -2.036  11.796  22.863  0.00  0.00    +0.000 A 
ENDBRANCH  25  26
ENDBRANCH  24  25
ENDBRANCH  10  24
BRANCH  15  32
ATOM     32  C   UNL     1       5.624   6.211  16.072  0.00  0.00    +0.000 C 
BRANCH  32  33
ATOM     33  C   UNL     1       5.575   5.302  14.838  0.00  0.00    +0.000 C 
BRANCH  33  34
ATOM     34  C   UNL     1       6.962   4.810  14.578  0.00  0.00    +0.000 C 
ATOM     35  O   UNL     1       7.944   5.540  14.536  0.00  0.00    +0.000 OA
ENDBRANCH  33  34
ENDBRANCH  32  33
ENDBRANCH  15  32
TORSDOF 9
ENDMDL
MODEL 2
REMARK VINA RESULT:      -8.0      0.842      1.065
REMARK  Name = 
REMARK  12 active torsions:
REMARK  status: ('A' for Active; 'I' for Inactive)
REMARK    1  A    between atoms: C_1  and  O_2
REMARK    2  A    between atoms: O_2  and  C_3
REMARK    3  A    between atoms: C_11  and  O_12
REMARK    4  A    between atoms: O_12  and  C_13
REMARK    5  A    between atoms: C_14  and  O_15
REMARK    6  A    between atoms: O_15  and  C_16
REMARK    7  A    between atoms: C_16  and  C_17
REMARK    8  A    between atoms: C_23  and  O_24
REMARK    9  A    between atoms: O_24  and  C_25
REMARK   10  A    between atoms: N_29  and  C_30
REMARK   11  A    between atoms: C_30  and  C_31
REMARK   12  A    between atoms: C_31  and  C_32
REMARK                            x       y       z     vdW  Elec       q    Type
REMARK                         _______ _______ _______ _____ _____    ______ ____
ROOT
ATOM      1  C   UNL     1       2.125   4.548  20.633  0.00  0.00    +0.000 A 
ATOM      2  C   UNL     1       3.074   4.022  19.768  0.00  0.00    +0.000 A 
ATOM      3  C   UNL     1       3.540   4.851  18.761  0.00  0.00    +0.000 A 
ATOM      4  C   UNL     1       3.090   6.161  18.666  0.00  0.00    +0.000 A 
ATOM      5  C   UNL     1       3.711   6.750  17.580  0.00  0.00    +0.000 A 
ATOM      6  C   UNL     1       3.462   8.088  17.289  0.00  0.00    +0.000 A 
ATOM      7  C   UNL     1       2.538   8.796  18.140  0.00  0.00    +0.000 A 
ATOM      8  C   UNL     1       2.257  10.161  17.894  0.00  0.00    +0.000 A 
ATOM      9  C   UNL     1       1.394  10.906  18.718  0.00  0.00    +0.000 A 
ATOM     10  C   UNL     1       0.804  10.327  19.865  0.00  0.00    +0.000 A 
ATOM     11  C   UNL     1       1.060   8.962  20.152  0.00  0.00    +0.000 A 
ATOM     12  C   UNL     1       1.907   8.166  19.275  0.00  0.00    +0.000 A 
ATOM     13  C   UNL     1       2.210   6.775  19.499  0.00  0.00    +0.000 A 
ATOM     14  C   UNL     1       1.703   5.880  20.490  0.00  0.00    +0.000 A 
ATOM     15  N   UNL     1       4.533   5.745  16.986  0.00  0.00    +0.000 N 
ATOM     16  C   UNL     1       4.508   4.555  17.754  0.00  0.00    +0.000 C 
ATOM     17  O   UNL     1       5.173   3.543  17.592  0.00  0.00    +0.000 OA
ENDROOT
BRANCH   1  19
ATOM     18  C   UNL     1       1.752   2.479  21.710  0.00  0.00    +0.000 C 
ATOM     19  O   UNL     1       1.517   3.880  21.668  0.00  0.00    +0.000 OA
ENDBRANCH   1  19
BRANCH   9  20
ATOM     20  O   UNL     1       1.210  12.267  18.591  0.00  0.00    +0.000 OA
ATOM     21  C   UNL     1       2.339  13.080  18.321  0.00  0.00    +0.000 C 
ENDBRANCH   9  20
BRANCH  11  22
ATOM     22  O   UNL     1       0.861   8.393  21.398  0.00  0.00    +0.000 OA
ATOM     23  C   UNL     1      -0.384   8.410  22.096  0.00  0.00    +0.000 C 
ENDBRANCH  11  22
BRANCH  10  24
ATOM     24  O   UNL     1       0.081  11.256  20.591  0.00  0.00    +0.000 OA
BRANCH  24  25
ATOM     25  C   UNL     1      -1.233  11.522  20.167  0.00  0.00    +0.000 C 
BRANCH  25  26
ATOM     26  C   UNL     1      -2.158  12.073  21.209  0.00  0.00    +0.000 A 
ATOM     27  C   UNL     1      -3.338  12.726  20.813  0.00  0.00    +0.000 A 
ATOM     28  C   UNL     1      -4.252  13.158  21.765  0.00  0.00    +0.000 A 
ATOM     29  C   UNL     1      -3.994  12.940  23.116  0.00  0.00    +0.000 A 
ATOM     30  C   UNL     1      -2.838  12.264  23.512  0.00  0.00    +0.000 A 
ATOM     31  C   UNL     1      -1.920  11.828  22.561  0.00  0.00    +0.000 A 
ENDBRANCH  25  26
ENDBRANCH  24  25
ENDBRANCH  10  24
BRANCH  15  32
ATOM     32  C   UNL     1       5.494   5.951  15.916  0.00  0.00    +0.000 C 
BRANCH  32  33
ATOM     33  C   UNL     1       5.469   4.960  14.746  0.00  0.00    +0.000 C 
BRANCH  33  34
ATOM     34  C   UNL     1       6.880   4.727  14.314  0.00  0.00    +0.000 C 
ATOM     35  O   UNL     1       7.810   5.469  14.604  0.00  0.00    +0.000 OA
ENDBRANCH  33  34
ENDBRANCH  32  33
ENDBRANCH  15  32
TORSDOF 9
ENDMDL
MODEL 3
REMARK VINA RESULT:      -7.8      0.949      1.387
REMARK  Name = 
REMARK  12 active torsions:
REMARK  status: ('A' for Active; 'I' for Inactive)
REMARK    1  A    between atoms: C_1  and  O_2
REMARK    2  A    between atoms: O_2  and  C_3
REMARK    3  A    between atoms: C_11  and  O_12
REMARK    4  A    between atoms: O_12  and  C_13
REMARK    5  A    between atoms: C_14  and  O_15
REMARK    6  A    between atoms: O_15  and  C_16
REMARK    7  A    between atoms: C_16  and  C_17
REMARK    8  A    between atoms: C_23  and  O_24
REMARK    9  A    between atoms: O_24  and  C_25
REMARK   10  A    between atoms: N_29  and  C_30
REMARK   11  A    between atoms: C_30  and  C_31
REMARK   12  A    between atoms: C_31  and  C_32
REMARK                            x       y       z     vdW  Elec       q    Type
REMARK                         _______ _______ _______ _____ _____    ______ ____
ROOT
ATOM      1  C   UNL     1       2.327   4.613  20.798  0.00  0.00    +0.000 A 
ATOM      2  C   UNL     1       3.367   4.177  19.990  0.00  0.00    +0.000 A 
ATOM      3  C   UNL     1       3.779   5.026  18.977  0.00  0.00    +0.000 A 
ATOM      4  C   UNL     1       3.185   6.271  18.820  0.00  0.00    +0.000 A 
ATOM      5  C   UNL     1       3.781   6.899  17.741  0.00  0.00    +0.000 A 
ATOM      6  C   UNL     1       3.392   8.190  17.397  0.00  0.00    +0.000 A 
ATOM      7  C   UNL     1       2.356   8.808  18.186  0.00  0.00    +0.000 A 
ATOM      8  C   UNL     1       1.930  10.124  17.884  0.00  0.00    +0.000 A 
ATOM      9  C   UNL     1       0.952  10.786  18.647  0.00  0.00    +0.000 A 
ATOM     10  C   UNL     1       0.383  10.174  19.788  0.00  0.00    +0.000 A 
ATOM     11  C   UNL     1       0.782   8.857  20.130  0.00  0.00    +0.000 A 
ATOM     12  C   UNL     1       1.752   8.141  19.315  0.00  0.00    +0.000 A 
ATOM     13  C   UNL     1       2.204   6.802  19.597  0.00  0.00    +0.000 A 
ATOM     14  C   UNL     1       1.761   5.882  20.594  0.00  0.00    +0.000 A 
ATOM     15  N   UNL     1       4.739   5.980  17.215  0.00  0.00    +0.000 N 
ATOM     16  C   UNL     1       4.818   4.817  18.019  0.00  0.00    +0.000 C 
ATOM     17  O   UNL     1       5.602   3.886  17.918  0.00  0.00    +0.000 OA
ENDROOT
BRANCH   1  19
ATOM     18  C   UNL     1       1.581   2.518  21.593  0.00  0.00    +0.000 C 
ATOM     19  O   UNL     1       1.756   3.908  21.829  0.00  0.00    +0.000 OA
ENDBRANCH   1  19
BRANCH   9  20
ATOM     20  O   UNL     1       0.618  12.112  18.468  0.00  0.00    +0.000 OA
ATOM     21  C   UNL     1       1.654  13.079  18.483  0.00  0.00    +0.000 C 
ENDBRANCH   9  20
BRANCH  11  22
ATOM     22  O   UNL     1       0.595   8.304  21.384  0.00  0.00    +0.000 OA
ATOM     23  C   UNL     1       1.128   8.854  22.589  0.00  0.00    +0.000 C 
ENDBRANCH  11  22
BRANCH  10  24
ATOM     24  O   UNL     1      -0.474  11.033  20.453  0.00  0.00    +0.000 OA
BRANCH  24  25
ATOM     25  C   UNL     1       0.022  11.673  21.603  0.00  0.00    +0.000 C 
BRANCH  25  26
ATOM     26  C   UNL     1      -0.976  12.462  22.395  0.00  0.00    +0.000 A 
ATOM     27  C   UNL     1      -2.152  11.840  22.846  0.00  0.00    +0.000 A 
ATOM     28  C   UNL     1      -3.042  12.529  23.660  0.00  0.00    +0.000 A 
ATOM     29  C   UNL     1      -2.760  13.842  24.029  0.00  0.00    +0.000 A 
ATOM     30  C   UNL     1      -1.577  14.454  23.610  0.00  0.00    +0.000 A 
ATOM     31  C   UNL     1      -0.683  13.766  22.794  0.00  0.00    +0.000 A 
ENDBRANCH  25  26
ENDBRANCH  24  25
ENDBRANCH  10  24
BRANCH  15  32
ATOM     32  C   UNL     1       5.715   6.267  16.178  0.00  0.00    +0.000 C 
BRANCH  32  33
ATOM     33  C   UNL     1       7.196   6.227  16.573  0.00  0.00    +0.000 C 
BRANCH  33  34
ATOM     34  C   UNL     1       7.458   7.384  17.482  0.00  0.00    +0.000 C 
ATOM     35  O   UNL     1       8.153   7.313  18.487  0.00  0.00    +0.000 OA
ENDBRANCH  33  34
ENDBRANCH  32  33
ENDBRANCH  15  32
TORSDOF 9
ENDMDL
MODEL 4
REMARK VINA RESULT:      -7.7      1.879      2.970
REMARK  Name = 
REMARK  12 active torsions:
REMARK  status: ('A' for Active; 'I' for Inactive)
REMARK    1  A    between atoms: C_1  and  O_2
REMARK    2  A    between atoms: O_2  and  C_3
REMARK    3  A    between atoms: C_11  and  O_12
REMARK    4  A    between atoms: O_12  and  C_13
REMARK    5  A    between atoms: C_14  and  O_15
REMARK    6  A    between atoms: O_15  and  C_16
REMARK    7  A    between atoms: C_16  and  C_17
REMARK    8  A    between atoms: C_23  and  O_24
REMARK    9  A    between atoms: O_24  and  C_25
REMARK   10  A    between atoms: N_29  and  C_30
REMARK   11  A    between atoms: C_30  and  C_31
REMARK   12  A    between atoms: C_31  and  C_32
REMARK                            x       y       z     vdW  Elec       q    Type
REMARK                         _______ _______ _______ _____ _____    ______ ____
ROOT
ATOM      1  C   UNL     1       2.045   4.528  20.574  0.00  0.00    +0.000 A 
ATOM      2  C   UNL     1       3.028   3.964  19.772  0.00  0.00    +0.000 A 
ATOM      3  C   UNL     1       3.564   4.762  18.774  0.00  0.00    +0.000 A 
ATOM      4  C   UNL     1       3.147   6.078  18.627  0.00  0.00    +0.000 A 
ATOM      5  C   UNL     1       3.836   6.631  17.564  0.00  0.00    +0.000 A 
ATOM      6  C   UNL     1       3.631   7.966  17.233  0.00  0.00    +0.000 A 
ATOM      7  C   UNL     1       2.678   8.711  18.018  0.00  0.00    +0.000 A 
ATOM      8  C   UNL     1       2.439  10.076  17.729  0.00  0.00    +0.000 A 
ATOM      9  C   UNL     1       1.549  10.855  18.489  0.00  0.00    +0.000 A 
ATOM     10  C   UNL     1       0.887  10.313  19.616  0.00  0.00    +0.000 A 
ATOM     11  C   UNL     1       1.099   8.950  19.944  0.00  0.00    +0.000 A 
ATOM     12  C   UNL     1       1.975   8.119  19.131  0.00  0.00    +0.000 A 
ATOM     13  C   UNL     1       2.237   6.728  19.400  0.00  0.00    +0.000 A 
ATOM     14  C   UNL     1       1.659   5.865  20.380  0.00  0.00    +0.000 A 
ATOM     15  N   UNL     1       4.668   5.597  17.037  0.00  0.00    +0.000 N 
ATOM     16  C   UNL     1       4.578   4.425  17.827  0.00  0.00    +0.000 C 
ATOM     17  O   UNL     1       5.230   3.397  17.722  0.00  0.00    +0.000 OA
ENDROOT
BRANCH   1  19
ATOM     18  C   UNL     1       1.566   2.490  21.666  0.00  0.00    +0.000 C 
ATOM     19  O   UNL     1       1.370   3.895  21.588  0.00  0.00    +0.000 OA
ENDBRANCH   1  19
BRANCH   9  20
ATOM     20  O   UNL     1       1.400  12.217  18.324  0.00  0.00    +0.000 OA
ATOM     21  C   UNL     1       2.557  13.034  18.368  0.00  0.00    +0.000 C 
ENDBRANCH   9  20
BRANCH  11  22
ATOM     22  O   UNL     1       0.823   8.413  21.189  0.00  0.00    +0.000 OA
ATOM     23  C   UNL     1       1.182   9.031  22.425  0.00  0.00    +0.000 C 
ENDBRANCH  11  22
BRANCH  10  24
ATOM     24  O   UNL     1       0.146  11.273  20.282  0.00  0.00    +0.000 OA
BRANCH  24  25
ATOM     25  C   UNL     1      -1.254  11.178  20.196  0.00  0.00    +0.000 C 
BRANCH  25  26
ATOM     26  C   UNL     1      -1.810  10.916  18.829  0.00  0.00    +0.000 A 
ATOM     27  C   UNL     1      -2.457   9.697  18.564  0.00  0.00    +0.000 A 
ATOM     28  C   UNL     1      -3.060   9.477  17.333  0.00  0.00    +0.000 A 
ATOM     29  C   UNL     1      -3.021  10.473  16.360  0.00  0.00    +0.000 A 
ATOM     30  C   UNL     1      -2.407  11.698  16.629  0.00  0.00    +0.000 A 
ATOM     31  C   UNL     1      -1.802  11.922  17.863  0.00  0.00    +0.000 A 
ENDBRANCH  25  26
ENDBRANCH  24  25
ENDBRANCH  10  24
BRANCH  15  32
ATOM     32  C   UNL     1       5.688   5.761  16.015  0.00  0.00    +0.000 C 
BRANCH  32  33
ATOM     33  C   UNL     1       7.153   5.674  16.461  0.00  0.00    +0.000 C 
BRANCH  33  34
ATOM     34  C   UNL     1       7.417   6.817  17.387  0.00  0.00    +0.000 C 
ATOM     35  O   UNL     1       7.314   7.992  17.061  0.00  0.00    +0.000 OA
ENDBRANCH  33  34
ENDBRANCH  32  33
ENDBRANCH  15  32
TORSDOF 9
ENDMDL
MODEL 5
REMARK VINA RESULT:      -7.7      1.184      1.359
REMARK  Name = 
REMARK  12 active torsions:
REMARK  status: ('A' for Active; 'I' for Inactive)
REMARK    1  A    between atoms: C_1  and  O_2
REMARK    2  A    between atoms: O_2  and  C_3
REMARK    3  A    between atoms: C_11  and  O_12
REMARK    4  A    between atoms: O_12  and  C_13
REMARK    5  A    between atoms: C_14  and  O_15
REMARK    6  A    between atoms: O_15  and  C_16
REMARK    7  A    between atoms: C_16  and  C_17
REMARK    8  A    between atoms: C_23  and  O_24
REMARK    9  A    between atoms: O_24  and  C_25
REMARK   10  A    between atoms: N_29  and  C_30
REMARK   11  A    between atoms: C_30  and  C_31
REMARK   12  A    between atoms: C_31  and  C_32
REMARK                            x       y       z     vdW  Elec       q    Type
REMARK                         _______ _______ _______ _____ _____    ______ ____
ROOT
ATOM      1  C   UNL     1       2.035   4.484  20.564  0.00  0.00    +0.000 A 
ATOM      2  C   UNL     1       2.979   3.936  19.708  0.00  0.00    +0.000 A 
ATOM      3  C   UNL     1       3.475   4.755  18.707  0.00  0.00    +0.000 A 
ATOM      4  C   UNL     1       3.056   6.075  18.608  0.00  0.00    +0.000 A 
ATOM      5  C   UNL     1       3.701   6.652  17.530  0.00  0.00    +0.000 A 
ATOM      6  C   UNL     1       3.487   7.995  17.238  0.00  0.00    +0.000 A 
ATOM      7  C   UNL     1       2.572   8.724  18.081  0.00  0.00    +0.000 A 
ATOM      8  C   UNL     1       2.326  10.096  17.835  0.00  0.00    +0.000 A 
ATOM      9  C   UNL     1       1.473  10.859  18.651  0.00  0.00    +0.000 A 
ATOM     10  C   UNL     1       0.859  10.293  19.793  0.00  0.00    +0.000 A 
ATOM     11  C   UNL     1       1.080   8.922  20.080  0.00  0.00    +0.000 A 
ATOM     12  C   UNL     1       1.915   8.108  19.210  0.00  0.00    +0.000 A 
ATOM     13  C   UNL     1       2.183   6.710  19.435  0.00  0.00    +0.000 A 
ATOM     14  C   UNL     1       1.646   5.826  20.419  0.00  0.00    +0.000 A 
ATOM     15  N   UNL     1       4.505   5.628  16.942  0.00  0.00    +0.000 N 
ATOM     16  C   UNL     1       4.445   4.438  17.708  0.00  0.00    +0.000 C 
ATOM     17  O   UNL     1       5.087   3.410  17.551  0.00  0.00    +0.000 OA
ENDROOT
BRANCH   1  19
ATOM     18  C   UNL     1       1.853   2.505  21.840  0.00  0.00    +0.000 C 
ATOM     19  O   UNL     1       1.402   3.829  21.593  0.00  0.00    +0.000 OA
ENDBRANCH   1  19
BRANCH   9  20
ATOM     20  O   UNL     1       1.323  12.225  18.525  0.00  0.00    +0.000 OA
ATOM     21  C   UNL     1       2.452  12.999  18.158  0.00  0.00    +0.000 C 
ENDBRANCH   9  20
BRANCH  11  22
ATOM     22  O   UNL     1       0.856   8.357  21.323  0.00  0.00    +0.000 OA
ATOM     23  C   UNL     1       1.110   9.020  22.561  0.00  0.00    +0.000 C 
ENDBRANCH  11  22
BRANCH  10  24
ATOM     24  O   UNL     1       0.152  11.239  20.513  0.00  0.00    +0.000 OA
BRANCH  24  25
ATOM     25  C   UNL     1      -1.227  11.343  20.256  0.00  0.00    +0.000 C 
BRANCH  25  26
ATOM     26  C   UNL     1      -2.012  12.175  21.224  0.00  0.00    +0.000 A 
ATOM     27  C   UNL     1      -1.769  12.049  22.603  0.00  0.00    +0.000 A 
ATOM     28  C   UNL     1      -2.420  12.879  23.507  0.00  0.00    +0.000 A 
ATOM     29  C   UNL     1      -3.315  13.838  23.039  0.00  0.00    +0.000 A 
ATOM     30  C   UNL     1      -3.535  13.988  21.668  0.00  0.00    +0.000 A 
ATOM     31  C   UNL     1      -2.884  13.159  20.759  0.00  0.00    +0.000 A 
ENDBRANCH  25  26
ENDBRANCH  24  25
ENDBRANCH  10  24
BRANCH  15  32
ATOM     32  C   UNL     1       5.480   5.812  15.881  0.00  0.00    +0.000 C 
BRANCH  32  33
ATOM     33  C   UNL     1       6.960   5.641  16.246  0.00  0.00    +0.000 C 
BRANCH  33  34
ATOM     34  C   UNL     1       7.303   6.681  17.263  0.00  0.00    +0.000 C 
ATOM     35  O   UNL     1       7.334   7.881  17.023  0.00  0.00    +0.000 OA
ENDBRANCH  33  34
ENDBRANCH  32  33
ENDBRANCH  15  32
TORSDOF 9
ENDMDL
MODEL 6
REMARK VINA RESULT:      -7.5      1.844      2.723
REMARK  Name = 
REMARK  12 active torsions:
REMARK  status: ('A' for Active; 'I' for Inactive)
REMARK    1  A    between atoms: C_1  and  O_2
REMARK    2  A    between atoms: O_2  and  C_3
REMARK    3  A    between atoms: C_11  and  O_12
REMARK    4  A    between atoms: O_12  and  C_13
REMARK    5  A    between atoms: C_14  and  O_15
REMARK    6  A    between atoms: O_15  and  C_16
REMARK    7  A    between atoms: C_16  and  C_17
REMARK    8  A    between atoms: C_23  and  O_24
REMARK    9  A    between atoms: O_24  and  C_25
REMARK   10  A    between atoms: N_29  and  C_30
REMARK   11  A    between atoms: C_30  and  C_31
REMARK   12  A    between atoms: C_31  and  C_32
REMARK                            x       y       z     vdW  Elec       q    Type
REMARK                         _______ _______ _______ _____ _____    ______ ____
ROOT
ATOM      1  C   UNL     1       2.103   4.484  20.627  0.00  0.00    +0.000 A 
ATOM      2  C   UNL     1       3.130   3.927  19.878  0.00  0.00    +0.000 A 
ATOM      3  C   UNL     1       3.691   4.718  18.889  0.00  0.00    +0.000 A 
ATOM      4  C   UNL     1       3.252   6.022  18.700  0.00  0.00    +0.000 A 
ATOM      5  C   UNL     1       3.974   6.571  17.656  0.00  0.00    +0.000 A 
ATOM      6  C   UNL     1       3.755   7.896  17.291  0.00  0.00    +0.000 A 
ATOM      7  C   UNL     1       2.754   8.633  18.022  0.00  0.00    +0.000 A 
ATOM      8  C   UNL     1       2.498   9.987  17.697  0.00  0.00    +0.000 A 
ATOM      9  C   UNL     1       1.560  10.760  18.405  0.00  0.00    +0.000 A 
ATOM     10  C   UNL     1       0.864  10.224  19.513  0.00  0.00    +0.000 A 
ATOM     11  C   UNL     1       1.090   8.872  19.876  0.00  0.00    +0.000 A 
ATOM     12  C   UNL     1       2.017   8.046  19.115  0.00  0.00    +0.000 A 
ATOM     13  C   UNL     1       2.297   6.665  19.421  0.00  0.00    +0.000 A 
ATOM     14  C   UNL     1       1.697   5.808  20.393  0.00  0.00    +0.000 A 
ATOM     15  N   UNL     1       4.849   5.547  17.183  0.00  0.00    +0.000 N 
ATOM     16  C   UNL     1       4.750   4.387  17.990  0.00  0.00    +0.000 C 
ATOM     17  O   UNL     1       5.428   3.372  17.932  0.00  0.00    +0.000 OA
ENDROOT
BRANCH   1  19
ATOM     18  C   UNL     1       1.801   2.520  21.905  0.00  0.00    +0.000 C 
ATOM     19  O   UNL     1       1.400   3.854  21.625  0.00  0.00    +0.000 OA
ENDBRANCH   1  19
BRANCH   9  20
ATOM     20  O   UNL     1       1.390  12.115  18.208  0.00  0.00    +0.000 OA
ATOM     21  C   UNL     1       2.524  12.960  18.301  0.00  0.00    +0.000 C 
ENDBRANCH   9  20
BRANCH  11  22
ATOM     22  O   UNL     1       0.773   8.351  21.118  0.00  0.00    +0.000 OA
ATOM     23  C   UNL     1       1.174   8.936  22.357  0.00  0.00    +0.000 C 
ENDBRANCH  11  22
BRANCH  10  24
ATOM     24  O   UNL     1       0.075  11.178  20.130  0.00  0.00    +0.000 OA
BRANCH  24  25
ATOM     25  C   UNL     1      -1.293  10.886  20.275  0.00  0.00    +0.000 C 
BRANCH  25  26
ATOM     26  C   UNL     1      -2.089  10.828  19.007  0.00  0.00    +0.000 A 
ATOM     27  C   UNL     1      -3.149  11.729  18.811  0.00  0.00    +0.000 A 
ATOM     28  C   UNL     1      -3.835  11.752  17.604  0.00  0.00    +0.000 A 
ATOM     29  C   UNL     1      -3.466  10.877  16.586  0.00  0.00    +0.000 A 
ATOM     30  C   UNL     1      -2.392  10.002  16.764  0.00  0.00    +0.000 A 
ATOM     31  C   UNL     1      -1.702   9.976  17.972  0.00  0.00    +0.000 A 
ENDBRANCH  25  26
ENDBRANCH  24  25
ENDBRANCH  10  24
BRANCH  15  32
ATOM     32  C   UNL     1       5.907   5.714  16.202  0.00  0.00    +0.000 C 
BRANCH  32  33
ATOM     33  C   UNL     1       5.594   5.325  14.752  0.00  0.00    +0.000 C 
BRANCH  33  34
ATOM     34  C   UNL     1       6.303   4.043  14.460  0.00  0.00    +0.000 C 
ATOM     35  O   UNL     1       6.244   3.465  13.382  0.00  0.00    +0.000 OA
ENDBRANCH  33  34
ENDBRANCH  32  33
ENDBRANCH  15  32
TORSDOF 9
ENDMDL
MODEL 7
REMARK VINA RESULT:      -7.4      2.344      5.002
REMARK  Name = 
REMARK  12 active torsions:
REMARK  status: ('A' for Active; 'I' for Inactive)
REMARK    1  A    between atoms: C_1  and  O_2
REMARK    2  A    between atoms: O_2  and  C_3
REMARK    3  A    between atoms: C_11  and  O_12
REMARK    4  A    between atoms: O_12  and  C_13
REMARK    5  A    between atoms: C_14  and  O_15
REMARK    6  A    between atoms: O_15  and  C_16
REMARK    7  A    between atoms: C_16  and  C_17
REMARK    8  A    between atoms: C_23  and  O_24
REMARK    9  A    between atoms: O_24  and  C_25
REMARK   10  A    between atoms: N_29  and  C_30
REMARK   11  A    between atoms: C_30  and  C_31
REMARK   12  A    between atoms: C_31  and  C_32
REMARK                            x       y       z     vdW  Elec       q    Type
REMARK                         _______ _______ _______ _____ _____    ______ ____
ROOT
ATOM      1  C   UNL     1       4.528   6.662  16.983  0.00  0.00    +0.000 A 
ATOM      2  C   UNL     1       4.624   5.343  17.405  0.00  0.00    +0.000 A 
ATOM      3  C   UNL     1       3.904   4.987  18.533  0.00  0.00    +0.000 A 
ATOM      4  C   UNL     1       3.099   5.918  19.176  0.00  0.00    +0.000 A 
ATOM      5  C   UNL     1       2.507   5.299  20.261  0.00  0.00    +0.000 A 
ATOM      6  C   UNL     1       1.611   6.010  21.053  0.00  0.00    +0.000 A 
ATOM      7  C   UNL     1       1.357   7.386  20.705  0.00  0.00    +0.000 A 
ATOM      8  C   UNL     1       0.447   8.152  21.472  0.00  0.00    +0.000 A 
ATOM      9  C   UNL     1       0.136   9.485  21.150  0.00  0.00    +0.000 A 
ATOM     10  C   UNL     1       0.689  10.105  20.005  0.00  0.00    +0.000 A 
ATOM     11  C   UNL     1       1.604   9.374  19.206  0.00  0.00    +0.000 A 
ATOM     12  C   UNL     1       1.977   8.013  19.561  0.00  0.00    +0.000 A 
ATOM     13  C   UNL     1       2.901   7.210  18.801  0.00  0.00    +0.000 A 
ATOM     14  C   UNL     1       3.700   7.563  17.671  0.00  0.00    +0.000 A 
ATOM     15  N   UNL     1       3.005   3.961  20.288  0.00  0.00    +0.000 N 
ATOM     16  C   UNL     1       3.830   3.708  19.165  0.00  0.00    +0.000 C 
ATOM     17  O   UNL     1       4.329   2.646  18.824  0.00  0.00    +0.000 OA
ENDROOT
BRANCH   1  19
ATOM     18  C   UNL     1       5.747   6.288  14.995  0.00  0.00    +0.000 C 
ATOM     19  O   UNL     1       5.187   7.217  15.914  0.00  0.00    +0.000 OA
ENDBRANCH   1  19
BRANCH   9  20
ATOM     20  O   UNL     1      -0.849  10.210  21.788  0.00  0.00    +0.000 OA
ATOM     21  C   UNL     1      -0.755  10.389  23.191  0.00  0.00    +0.000 C 
ENDBRANCH   9  20
BRANCH  11  22
ATOM     22  O   UNL     1       1.918   9.713  17.901  0.00  0.00    +0.000 OA
ATOM     23  C   UNL     1       2.641  10.887  17.530  0.00  0.00    +0.000 C 
ENDBRANCH  11  22
BRANCH  10  24
ATOM     24  O   UNL     1       0.172  11.373  19.812  0.00  0.00    +0.000 OA
BRANCH  24  25
ATOM     25  C   UNL     1      -0.373  11.659  18.548  0.00  0.00    +0.000 C 
BRANCH  25  26
ATOM     26  C   UNL     1      -1.785  11.209  18.327  0.00  0.00    +0.000 A 
ATOM     27  C   UNL     1      -2.847  11.980  18.831  0.00  0.00    +0.000 A 
ATOM     28  C   UNL     1      -4.161  11.629  18.555  0.00  0.00    +0.000 A 
ATOM     29  C   UNL     1      -4.423  10.508  17.771  0.00  0.00    +0.000 A 
ATOM     30  C   UNL     1      -3.372   9.757  17.241  0.00  0.00    +0.000 A 
ATOM     31  C   UNL     1      -2.053  10.107  17.516  0.00  0.00    +0.000 A 
ENDBRANCH  25  26
ENDBRANCH  24  25
ENDBRANCH  10  24
BRANCH  15  32
ATOM     32  C   UNL     1       2.540   2.894  21.157  0.00  0.00    +0.000 C 
BRANCH  32  33
ATOM     33  C   UNL     1       1.045   2.553  21.117  0.00  0.00    +0.000 C 
BRANCH  33  34
ATOM     34  C   UNL     1       0.601   2.615  19.691  0.00  0.00    +0.000 C 
ATOM     35  O   UNL     1       1.003   1.853  18.822  0.00  0.00    +0.000 OA
ENDBRANCH  33  34
ENDBRANCH  32  33
ENDBRANCH  15  32
TORSDOF 9
ENDMDL
MODEL 8
REMARK VINA RESULT:      -7.3      1.369      1.384
REMARK  Name = 
REMARK  12 active torsions:
REMARK  status: ('A' for Active; 'I' for Inactive)
REMARK    1  A    between atoms: C_1  and  O_2
REMARK    2  A    between atoms: O_2  and  C_3
REMARK    3  A    between atoms: C_11  and  O_12
REMARK    4  A    between atoms: O_12  and  C_13
REMARK    5  A    between atoms: C_14  and  O_15
REMARK    6  A    between atoms: O_15  and  C_16
REMARK    7  A    between atoms: C_16  and  C_17
REMARK    8  A    between atoms: C_23  and  O_24
REMARK    9  A    between atoms: O_24  and  C_25
REMARK   10  A    between atoms: N_29  and  C_30
REMARK   11  A    between atoms: C_30  and  C_31
REMARK   12  A    between atoms: C_31  and  C_32
REMARK                            x       y       z     vdW  Elec       q    Type
REMARK                         _______ _______ _______ _____ _____    ______ ____
ROOT
ATOM      1  C   UNL     1       2.195   4.594  20.689  0.00  0.00    +0.000 A 
ATOM      2  C   UNL     1       3.189   4.092  19.862  0.00  0.00    +0.000 A 
ATOM      3  C   UNL     1       3.659   4.926  18.860  0.00  0.00    +0.000 A 
ATOM      4  C   UNL     1       3.165   6.218  18.733  0.00  0.00    +0.000 A 
ATOM      5  C   UNL     1       3.800   6.817  17.661  0.00  0.00    +0.000 A 
ATOM      6  C   UNL     1       3.513   8.141  17.346  0.00  0.00    +0.000 A 
ATOM      7  C   UNL     1       2.538   8.825  18.157  0.00  0.00    +0.000 A 
ATOM      8  C   UNL     1       2.216  10.177  17.885  0.00  0.00    +0.000 A 
ATOM      9  C   UNL     1       1.301  10.899  18.671  0.00  0.00    +0.000 A 
ATOM     10  C   UNL     1       0.696  10.313  19.807  0.00  0.00    +0.000 A 
ATOM     11  C   UNL     1       0.990   8.961  20.119  0.00  0.00    +0.000 A 
ATOM     12  C   UNL     1       1.892   8.186  19.280  0.00  0.00    +0.000 A 
ATOM     13  C   UNL     1       2.237   6.810  19.531  0.00  0.00    +0.000 A 
ATOM     14  C   UNL     1       1.731   5.909  20.516  0.00  0.00    +0.000 A 
ATOM     15  N   UNL     1       4.676   5.835  17.107  0.00  0.00    +0.000 N 
ATOM     16  C   UNL     1       4.668   4.653  17.888  0.00  0.00    +0.000 C 
ATOM     17  O   UNL     1       5.374   3.664  17.760  0.00  0.00    +0.000 OA
ENDROOT
BRANCH   1  19
ATOM     18  C   UNL     1       1.758   2.507  21.705  0.00  0.00    +0.000 C 
ATOM     19  O   UNL     1       1.578   3.917  21.713  0.00  0.00    +0.000 OA
ENDBRANCH   1  19
BRANCH   9  20
ATOM     20  O   UNL     1       1.074  12.252  18.521  0.00  0.00    +0.000 OA
ATOM     21  C   UNL     1       2.176  13.096  18.236  0.00  0.00    +0.000 C 
ENDBRANCH   9  20
BRANCH  11  22
ATOM     22  O   UNL     1       0.771   8.400  21.364  0.00  0.00    +0.000 OA
ATOM     23  C   UNL     1       0.977   9.086  22.599  0.00  0.00    +0.000 C 
ENDBRANCH  11  22
BRANCH  10  24
ATOM     24  O   UNL     1      -0.083  11.224  20.497  0.00  0.00    +0.000 OA
BRANCH  24  25
ATOM     25  C   UNL     1      -1.422  11.363  20.091  0.00  0.00    +0.000 C 
BRANCH  25  26
ATOM     26  C   UNL     1      -2.088  12.652  20.463  0.00  0.00    +0.000 A 
ATOM     27  C   UNL     1      -1.339  13.841  20.479  0.00  0.00    +0.000 A 
ATOM     28  C   UNL     1      -1.960  15.058  20.728  0.00  0.00    +0.000 A 
ATOM     29  C   UNL     1      -3.333  15.094  20.960  0.00  0.00    +0.000 A 
ATOM     30  C   UNL     1      -4.087  13.920  20.914  0.00  0.00    +0.000 A 
ATOM     31  C   UNL     1      -3.468  12.699  20.664  0.00  0.00    +0.000 A 
ENDBRANCH  25  26
ENDBRANCH  24  25
ENDBRANCH  10  24
BRANCH  15  32
ATOM     32  C   UNL     1       5.663   6.062  16.065  0.00  0.00    +0.000 C 
BRANCH  32  33
ATOM     33  C   UNL     1       5.393   5.442  14.689  0.00  0.00    +0.000 C 
BRANCH  33  34
ATOM     34  C   UNL     1       6.480   4.455  14.411  0.00  0.00    +0.000 C 
ATOM     35  O   UNL     1       6.413   3.601  13.537  0.00  0.00    +0.000 OA
ENDBRANCH  33  34
ENDBRANCH  32  33
ENDBRANCH  15  32
TORSDOF 9
ENDMDL
MODEL 9
REMARK VINA RESULT:      -7.3      2.239      4.772
REMARK  Name = 
REMARK  12 active torsions:
REMARK  status: ('A' for Active; 'I' for Inactive)
REMARK    1  A    between atoms: C_1  and  O_2
REMARK    2  A    between atoms: O_2  and  C_3
REMARK    3  A    between atoms: C_11  and  O_12
REMARK    4  A    between atoms: O_12  and  C_13
REMARK    5  A    between atoms: C_14  and  O_15
REMARK    6  A    between atoms: O_15  and  C_16
REMARK    7  A    between atoms: C_16  and  C_17
REMARK    8  A    between atoms: C_23  and  O_24
REMARK    9  A    between atoms: O_24  and  C_25
REMARK   10  A    between atoms: N_29  and  C_30
REMARK   11  A    between atoms: C_30  and  C_31
REMARK   12  A    between atoms: C_31  and  C_32
REMARK                            x       y       z     vdW  Elec       q    Type
REMARK                         _______ _______ _______ _____ _____    ______ ____
ROOT
ATOM      1  C   UNL     1       4.504   6.578  16.973  0.00  0.00    +0.000 A 
ATOM      2  C   UNL     1       4.619   5.272  17.428  0.00  0.00    +0.000 A 
ATOM      3  C   UNL     1       3.915   4.937  18.573  0.00  0.00    +0.000 A 
ATOM      4  C   UNL     1       3.108   5.876  19.200  0.00  0.00    +0.000 A 
ATOM      5  C   UNL     1       2.535   5.279  20.308  0.00  0.00    +0.000 A 
ATOM      6  C   UNL     1       1.640   6.000  21.092  0.00  0.00    +0.000 A 
ATOM      7  C   UNL     1       1.367   7.364  20.711  0.00  0.00    +0.000 A 
ATOM      8  C   UNL     1       0.457   8.140  21.469  0.00  0.00    +0.000 A 
ATOM      9  C   UNL     1       0.128   9.460  21.116  0.00  0.00    +0.000 A 
ATOM     10  C   UNL     1       0.661  10.056  19.949  0.00  0.00    +0.000 A 
ATOM     11  C   UNL     1       1.575   9.315  19.158  0.00  0.00    +0.000 A 
ATOM     12  C   UNL     1       1.967   7.968  19.545  0.00  0.00    +0.000 A 
ATOM     13  C   UNL     1       2.891   7.155  18.794  0.00  0.00    +0.000 A 
ATOM     14  C   UNL     1       3.673   7.488  17.647  0.00  0.00    +0.000 A 
ATOM     15  N   UNL     1       3.048   3.948  20.363  0.00  0.00    +0.000 N 
ATOM     16  C   UNL     1       3.863   3.674  19.238  0.00  0.00    +0.000 C 
ATOM     17  O   UNL     1       4.370   2.609  18.919  0.00  0.00    +0.000 OA
ENDROOT
BRANCH   1  19
ATOM     18  C   UNL     1       5.821   6.175  15.055  0.00  0.00    +0.000 C 
ATOM     19  O   UNL     1       5.145   7.112  15.882  0.00  0.00    +0.000 OA
ENDBRANCH   1  19
BRANCH   9  20
ATOM     20  O   UNL     1      -0.858  10.191  21.746  0.00  0.00    +0.000 OA
ATOM     21  C   UNL     1      -0.830  10.286  23.161  0.00  0.00    +0.000 C 
ENDBRANCH   9  20
BRANCH  11  22
ATOM     22  O   UNL     1       1.870   9.623  17.842  0.00  0.00    +0.000 OA
ATOM     23  C   UNL     1       2.551  10.809  17.430  0.00  0.00    +0.000 C 
ENDBRANCH  11  22
BRANCH  10  24
ATOM     24  O   UNL     1       0.128  11.313  19.730  0.00  0.00    +0.000 OA
BRANCH  24  25
ATOM     25  C   UNL     1      -0.748  11.458  18.639  0.00  0.00    +0.000 C 
BRANCH  25  26
ATOM     26  C   UNL     1      -2.144  11.888  18.973  0.00  0.00    +0.000 A 
ATOM     27  C   UNL     1      -3.216  11.439  18.183  0.00  0.00    +0.000 A 
ATOM     28  C   UNL     1      -4.524  11.750  18.534  0.00  0.00    +0.000 A 
ATOM     29  C   UNL     1      -4.767  12.508  19.676  0.00  0.00    +0.000 A 
ATOM     30  C   UNL     1      -3.707  12.930  20.482  0.00  0.00    +0.000 A 
ATOM     31  C   UNL     1      -2.396  12.619  20.134  0.00  0.00    +0.000 A 
ENDBRANCH  25  26
ENDBRANCH  24  25
ENDBRANCH  10  24
BRANCH  15  32
ATOM     32  C   UNL     1       2.604   2.899  21.265  0.00  0.00    +0.000 C 
BRANCH  32  33
ATOM     33  C   UNL     1       1.168   2.388  21.101  0.00  0.00    +0.000 C 
BRANCH  33  34
ATOM     34  C   UNL     1       0.990   1.976  19.675  0.00  0.00    +0.000 C 
ATOM     35  O   UNL     1       0.258   2.561  18.887  0.00  0.00    +0.000 OA
ENDBRANCH  33  34
ENDBRANCH  32  33
ENDBRANCH  15  32
TORSDOF 9
ENDMDL
