MODEL 1
REMARK VINA RESULT:      -7.6      0.000      0.000
REMARK  Name = 
REMARK  7 active torsions:
REMARK  status: ('A' for Active; 'I' for Inactive)
REMARK    1  A    between atoms: C_1  and  C_2
REMARK    2  A    between atoms: C_2  and  C_4
REMARK    3  A    between atoms: C_7  and  N_8
REMARK    4  A    between atoms: C_12  and  C_13
REMARK    5  A    between atoms: C_13  and  C_14
REMARK    6  A    between atoms: C_14  and  C_15
REMARK    7  A    between atoms: C_29  and  C_30
REMARK                            x       y       z     vdW  Elec       q    Type
REMARK                         _______ _______ _______ _____ _____    ______ ____
ROOT
ATOM      1  N   UNL     1       4.879   5.741  17.397  0.00  0.00    +0.000 N 
ATOM      2  C   UNL     1       5.122   5.190  18.633  0.00  0.00    +0.000 C 
ATOM      3  O   UNL     1       5.989   4.395  18.959  0.00  0.00    +0.000 OA
ATOM      4  C   UNL     1       4.087   5.710  19.604  0.00  0.00    +0.000 C 
ATOM      5  C   UNL     1       2.753   4.977  19.447  0.00  0.00    +0.000 C 
ATOM      6  N   UNL     1       1.661   6.019  19.393  0.00  0.00    +0.000 NA
ATOM      7  C   UNL     1       2.284   7.391  19.504  0.00  0.00    +0.000 C 
ATOM      8  C   UNL     1       2.225   8.524  18.371  0.00  0.00    +0.000 C 
ATOM      9  O   UNL     1       3.170   9.283  18.106  0.00  0.00    +0.000 OA
ATOM     10  N   UNL     1       0.949   8.994  18.296  0.00  0.00    +0.000 N 
ATOM     11  C   UNL     1       0.755   9.243  19.657  0.00  0.00    +0.000 A 
ATOM     12  C   UNL     1       1.367   8.249  20.449  0.00  0.00    +0.000 A 
ATOM     13  C   UNL     1       0.910   8.240  21.760  0.00  0.00    +0.000 A 
ATOM     14  C   UNL     1       0.222   9.392  22.252  0.00  0.00    +0.000 A 
ATOM     15  C   UNL     1       0.150  10.569  21.483  0.00  0.00    +0.000 A 
ATOM     16 CL   UNL     1      -0.288  12.058  22.234  0.00  0.00    +0.000 Cl
ATOM     17  C   UNL     1       0.495  10.512  20.146  0.00  0.00    +0.000 A 
ATOM     18  C   UNL     1       1.003  11.687  19.346  0.00  0.00    +0.000 C 
ATOM     19  C   UNL     1       3.762   7.068  19.107  0.00  0.00    +0.000 C 
ATOM     20  C   UNL     1       3.939   6.721  17.550  0.00  0.00    +0.000 C 
ATOM     21  O   UNL     1       3.224   7.134  16.639  0.00  0.00    +0.000 OA
ATOM     22  H   UNL     1       1.056   5.867  20.204  0.00  0.00    +0.000 HD
ATOM     23  H   UNL     1       0.385   8.190  18.022  0.00  0.00    +0.000 HD
ENDROOT
BRANCH   1  27
ATOM     24  C   UNL     1       6.318   4.165  13.636  0.00  0.00    +0.000 A 
ATOM     25  C   UNL     1       7.017   5.143  14.336  0.00  0.00    +0.000 A 
ATOM     26  C   UNL     1       6.532   5.637  15.559  0.00  0.00    +0.000 A 
ATOM     27  C   UNL     1       5.346   5.194  16.137  0.00  0.00    +0.000 A 
ATOM     28  C   UNL     1       4.659   4.164  15.442  0.00  0.00    +0.000 A 
ATOM     29  C   UNL     1       5.139   3.668  14.204  0.00  0.00    +0.000 A 
BRANCH  24  31
ATOM     30  C   UNL     1       6.203   2.367  11.763  0.00  0.00    +0.000 C 
ATOM     31  C   UNL     1       6.802   3.642  12.316  0.00  0.00    +0.000 C 
ATOM     32  O   UNL     1       7.671   4.250  11.695  0.00  0.00    +0.000 OA
ENDBRANCH  24  31
ENDBRANCH   1  27
BRANCH   5  33
ATOM     33  C   UNL     1       2.753   3.875  20.521  0.00  0.00    +0.000 C 
BRANCH  33  34
ATOM     34  C   UNL     1       2.476   2.462  20.031  0.00  0.00    +0.000 C 
BRANCH  34  35
ATOM     35  C   UNL     1       3.593   1.991  19.120  0.00  0.00    +0.000 C 
ATOM     36  N   UNL     1       4.779   1.776  19.757  0.00  0.00    +0.000 N 
ATOM     37  O   UNL     1       3.484   1.813  17.912  0.00  0.00    +0.000 OA
ATOM     38  H   UNL     1       4.880   1.817  20.760  0.00  0.00    +0.000 HD
ATOM     39  H   UNL     1       5.548   1.426  19.201  0.00  0.00    +0.000 HD
ENDBRANCH  34  35
ENDBRANCH  33  34
ENDBRANCH   5  33
TORSDOF 5
ENDMDL
MODEL 2
REMARK VINA RESULT:      -7.5      0.851      1.171
REMARK  Name = 
REMARK  7 active torsions:
REMARK  status: ('A' for Active; 'I' for Inactive)
REMARK    1  A    between atoms: C_1  and  C_2
REMARK    2  A    between atoms: C_2  and  C_4
REMARK    3  A    between atoms: C_7  and  N_8
REMARK    4  A    between atoms: C_12  and  C_13
REMARK    5  A    between atoms: C_13  and  C_14
REMARK    6  A    between atoms: C_14  and  C_15
REMARK    7  A    between atoms: C_29  and  C_30
REMARK                            x       y       z     vdW  Elec       q    Type
REMARK                         _______ _______ _______ _____ _____    ______ ____
ROOT
ATOM      1  N   UNL     1       4.899   5.708  17.367  0.00  0.00    +0.000 N 
ATOM      2  C   UNL     1       5.122   5.124  18.592  0.00  0.00    +0.000 C 
ATOM      3  O   UNL     1       5.977   4.313  18.909  0.00  0.00    +0.000 OA
ATOM      4  C   UNL     1       4.078   5.628  19.562  0.00  0.00    +0.000 C 
ATOM      5  C   UNL     1       2.740   4.912  19.368  0.00  0.00    +0.000 C 
ATOM      6  N   UNL     1       1.657   5.965  19.327  0.00  0.00    +0.000 NA
ATOM      7  C   UNL     1       2.292   7.327  19.482  0.00  0.00    +0.000 C 
ATOM      8  C   UNL     1       2.257   8.490  18.378  0.00  0.00    +0.000 C 
ATOM      9  O   UNL     1       3.212   9.246  18.145  0.00  0.00    +0.000 OA
ATOM     10  N   UNL     1       0.987   8.973  18.298  0.00  0.00    +0.000 N 
ATOM     11  C   UNL     1       0.777   9.189  19.662  0.00  0.00    +0.000 A 
ATOM     12  C   UNL     1       1.369   8.169  20.437  0.00  0.00    +0.000 A 
ATOM     13  C   UNL     1       0.895   8.131  21.740  0.00  0.00    +0.000 A 
ATOM     14  C   UNL     1       0.210   9.276  22.253  0.00  0.00    +0.000 A 
ATOM     15  C   UNL     1       0.159  10.473  21.514  0.00  0.00    +0.000 A 
ATOM     16 CL   UNL     1      -0.276  11.946  22.297  0.00  0.00    +0.000 Cl
ATOM     17  C   UNL     1       0.522  10.447  20.181  0.00  0.00    +0.000 A 
ATOM     18  C   UNL     1       1.051  11.637  19.418  0.00  0.00    +0.000 C 
ATOM     19  C   UNL     1       3.772   7.002  19.096  0.00  0.00    +0.000 C 
ATOM     20  C   UNL     1       3.966   6.693  17.533  0.00  0.00    +0.000 C 
ATOM     21  O   UNL     1       3.267   7.136  16.624  0.00  0.00    +0.000 OA
ATOM     22  H   UNL     1       1.041   5.797  20.126  0.00  0.00    +0.000 HD
ATOM     23  H   UNL     1       0.420   8.182  17.996  0.00  0.00    +0.000 HD
ENDROOT
BRANCH   1  27
ATOM     24  C   UNL     1       6.275   4.116  13.589  0.00  0.00    +0.000 A 
ATOM     25  C   UNL     1       5.024   3.795  14.108  0.00  0.00    +0.000 A 
ATOM     26  C   UNL     1       4.597   4.329  15.335  0.00  0.00    +0.000 A 
ATOM     27  C   UNL     1       5.379   5.190  16.100  0.00  0.00    +0.000 A 
ATOM     28  C   UNL     1       6.636   5.549  15.545  0.00  0.00    +0.000 A 
ATOM     29  C   UNL     1       7.075   5.008  14.312  0.00  0.00    +0.000 A 
BRANCH  24  31
ATOM     30  C   UNL     1       6.136   2.264  11.771  0.00  0.00    +0.000 C 
ATOM     31  C   UNL     1       6.764   3.537  12.294  0.00  0.00    +0.000 C 
ATOM     32  O   UNL     1       7.661   4.100  11.670  0.00  0.00    +0.000 OA
ENDBRANCH  24  31
ENDBRANCH   1  27
BRANCH   5  33
ATOM     33  C   UNL     1       2.716   3.782  20.414  0.00  0.00    +0.000 C 
BRANCH  33  34
ATOM     34  C   UNL     1       1.459   2.926  20.446  0.00  0.00    +0.000 C 
BRANCH  34  35
ATOM     35  C   UNL     1       1.264   2.225  19.116  0.00  0.00    +0.000 C 
ATOM     36  N   UNL     1       2.353   1.523  18.690  0.00  0.00    +0.000 N 
ATOM     37  O   UNL     1       0.238   2.264  18.446  0.00  0.00    +0.000 OA
ATOM     38  H   UNL     1       3.177   1.388  19.258  0.00  0.00    +0.000 HD
ATOM     39  H   UNL     1       2.264   1.006  17.826  0.00  0.00    +0.000 HD
ENDBRANCH  34  35
ENDBRANCH  33  34
ENDBRANCH   5  33
TORSDOF 5
ENDMDL
MODEL 3
REMARK VINA RESULT:      -7.4      5.153      8.751
REMARK  Name = 
REMARK  7 active torsions:
REMARK  status: ('A' for Active; 'I' for Inactive)
REMARK    1  A    between atoms: C_1  and  C_2
REMARK    2  A    between atoms: C_2  and  C_4
REMARK    3  A    between atoms: C_7  and  N_8
REMARK    4  A    between atoms: C_12  and  C_13
REMARK    5  A    between atoms: C_13  and  C_14
REMARK    6  A    between atoms: C_14  and  C_15
REMARK    7  A    between atoms: C_29  and  C_30
REMARK                            x       y       z     vdW  Elec       q    Type
REMARK                         _______ _______ _______ _____ _____    ______ ____
ROOT
ATOM      1  N   UNL     1       0.175  10.785  19.463  0.00  0.00    +0.000 N 
ATOM      2  C   UNL     1       0.541  11.871  20.222  0.00  0.00    +0.000 C 
ATOM      3  O   UNL     1       1.654  12.200  20.600  0.00  0.00    +0.000 OA
ATOM      4  C   UNL     1      -0.704  12.650  20.580  0.00  0.00    +0.000 C 
ATOM      5  C   UNL     1      -1.464  11.991  21.734  0.00  0.00    +0.000 C 
ATOM      6  N   UNL     1      -2.921  11.921  21.343  0.00  0.00    +0.000 NA
ATOM      7  C   UNL     1      -3.088  12.513  19.963  0.00  0.00    +0.000 C 
ATOM      8  C   UNL     1      -3.601  11.711  18.673  0.00  0.00    +0.000 C 
ATOM      9  O   UNL     1      -3.147  11.882  17.531  0.00  0.00    +0.000 OA
ATOM     10  N   UNL     1      -4.925  11.436  18.831  0.00  0.00    +0.000 N 
ATOM     11  C   UNL     1      -5.350  12.724  19.166  0.00  0.00    +0.000 A 
ATOM     12  C   UNL     1      -4.401  13.378  19.979  0.00  0.00    +0.000 A 
ATOM     13  C   UNL     1      -4.917  14.491  20.629  0.00  0.00    +0.000 A 
ATOM     14  C   UNL     1      -6.137  15.060  20.147  0.00  0.00    +0.000 A 
ATOM     15  C   UNL     1      -6.717  14.606  18.948  0.00  0.00    +0.000 A 
ATOM     16 CL   UNL     1      -7.916  15.562  18.162  0.00  0.00    +0.000 Cl
ATOM     17  C   UNL     1      -6.260  13.425  18.394  0.00  0.00    +0.000 A 
ATOM     18  C   UNL     1      -6.339  13.086  16.926  0.00  0.00    +0.000 C 
ATOM     19  C   UNL     1      -1.619  12.431  19.434  0.00  0.00    +0.000 C 
ATOM     20  C   UNL     1      -1.140  10.931  19.123  0.00  0.00    +0.000 C 
ATOM     21  O   UNL     1      -1.873   9.999  18.798  0.00  0.00    +0.000 OA
ATOM     22  H   UNL     1      -3.442  12.494  22.012  0.00  0.00    +0.000 HD
ATOM     23  H   UNL     1      -4.976  10.843  19.660  0.00  0.00    +0.000 HD
ENDROOT
BRANCH   1  27
ATOM     24  C   UNL     1       2.560   7.227  18.864  0.00  0.00    +0.000 A 
ATOM     25  C   UNL     1       2.378   8.166  17.853  0.00  0.00    +0.000 A 
ATOM     26  C   UNL     1       1.603   9.317  18.073  0.00  0.00    +0.000 A 
ATOM     27  C   UNL     1       0.975   9.588  19.286  0.00  0.00    +0.000 A 
ATOM     28  C   UNL     1       1.200   8.649  20.328  0.00  0.00    +0.000 A 
ATOM     29  C   UNL     1       1.973   7.482  20.109  0.00  0.00    +0.000 A 
BRANCH  24  31
ATOM     30  C   UNL     1       2.665   4.736  18.131  0.00  0.00    +0.000 C 
ATOM     31  C   UNL     1       3.360   5.977  18.646  0.00  0.00    +0.000 C 
ATOM     32  O   UNL     1       4.567   5.972  18.879  0.00  0.00    +0.000 OA
ENDBRANCH  24  31
ENDBRANCH   1  27
BRANCH   5  33
ATOM     33  C   UNL     1      -1.013  12.732  23.006  0.00  0.00    +0.000 C 
BRANCH  33  34
ATOM     34  C   UNL     1      -1.826  13.958  23.391  0.00  0.00    +0.000 C 
BRANCH  34  35
ATOM     35  C   UNL     1      -3.034  13.552  24.215  0.00  0.00    +0.000 C 
ATOM     36  N   UNL     1      -3.508  14.537  25.031  0.00  0.00    +0.000 N 
ATOM     37  O   UNL     1      -3.562  12.447  24.187  0.00  0.00    +0.000 OA
ATOM     38  H   UNL     1      -3.161  15.484  25.010  0.00  0.00    +0.000 HD
ATOM     39  H   UNL     1      -4.335  14.331  25.576  0.00  0.00    +0.000 HD
ENDBRANCH  34  35
ENDBRANCH  33  34
ENDBRANCH   5  33
TORSDOF 5
ENDMDL
MODEL 4
REMARK VINA RESULT:      -7.2      5.146      8.740
REMARK  Name = 
REMARK  7 active torsions:
REMARK  status: ('A' for Active; 'I' for Inactive)
REMARK    1  A    between atoms: C_1  and  C_2
REMARK    2  A    between atoms: C_2  and  C_4
REMARK    3  A    between atoms: C_7  and  N_8
REMARK    4  A    between atoms: C_12  and  C_13
REMARK    5  A    between atoms: C_13  and  C_14
REMARK    6  A    between atoms: C_14  and  C_15
REMARK    7  A    between atoms: C_29  and  C_30
REMARK                            x       y       z     vdW  Elec       q    Type
REMARK                         _______ _______ _______ _____ _____    ______ ____
ROOT
ATOM      1  N   UNL     1       0.142  10.756  19.472  0.00  0.00    +0.000 N 
ATOM      2  C   UNL     1       0.485  11.807  20.290  0.00  0.00    +0.000 C 
ATOM      3  O   UNL     1       1.585  12.120  20.714  0.00  0.00    +0.000 OA
ATOM      4  C   UNL     1      -0.772  12.568  20.646  0.00  0.00    +0.000 C 
ATOM      5  C   UNL     1      -1.564  11.859  21.747  0.00  0.00    +0.000 C 
ATOM      6  N   UNL     1      -3.009  11.805  21.312  0.00  0.00    +0.000 NA
ATOM      7  C   UNL     1      -3.137  12.459  19.956  0.00  0.00    +0.000 C 
ATOM      8  C   UNL     1      -3.611  11.716  18.616  0.00  0.00    +0.000 C 
ATOM      9  O   UNL     1      -3.125  11.938  17.497  0.00  0.00    +0.000 OA
ATOM     10  N   UNL     1      -4.939  11.434  18.724  0.00  0.00    +0.000 N 
ATOM     11  C   UNL     1      -5.375  12.705  19.103  0.00  0.00    +0.000 A 
ATOM     12  C   UNL     1      -4.451  13.323  19.973  0.00  0.00    +0.000 A 
ATOM     13  C   UNL     1      -4.987  14.405  20.657  0.00  0.00    +0.000 A 
ATOM     14  C   UNL     1      -6.194  14.994  20.166  0.00  0.00    +0.000 A 
ATOM     15  C   UNL     1      -6.738  14.595  18.932  0.00  0.00    +0.000 A 
ATOM     16 CL   UNL     1      -7.916  15.585  18.155  0.00  0.00    +0.000 Cl
ATOM     17  C   UNL     1      -6.264  13.440  18.338  0.00  0.00    +0.000 A 
ATOM     18  C   UNL     1      -6.300  13.168  16.854  0.00  0.00    +0.000 C 
ATOM     19  C   UNL     1      -1.653  12.402  19.466  0.00  0.00    +0.000 C 
ATOM     20  C   UNL     1      -1.163  10.917  19.102  0.00  0.00    +0.000 C 
ATOM     21  O   UNL     1      -1.885  10.000  18.714  0.00  0.00    +0.000 OA
ATOM     22  H   UNL     1      -3.550  12.348  21.990  0.00  0.00    +0.000 HD
ATOM     23  H   UNL     1      -5.013  10.805  19.523  0.00  0.00    +0.000 HD
ENDROOT
BRANCH   1  27
ATOM     24  C   UNL     1       2.547   7.204  18.923  0.00  0.00    +0.000 A 
ATOM     25  C   UNL     1       1.920   7.485  20.133  0.00  0.00    +0.000 A 
ATOM     26  C   UNL     1       1.139   8.643  20.286  0.00  0.00    +0.000 A 
ATOM     27  C   UNL     1       0.949   9.569  19.264  0.00  0.00    +0.000 A 
ATOM     28  C   UNL     1       1.554   9.256  18.018  0.00  0.00    +0.000 A 
ATOM     29  C   UNL     1       2.349   8.094  17.860  0.00  0.00    +0.000 A 
BRANCH  24  31
ATOM     30  C   UNL     1       4.757   6.132  18.076  0.00  0.00    +0.000 C 
ATOM     31  C   UNL     1       3.407   5.988  18.743  0.00  0.00    +0.000 C 
ATOM     32  O   UNL     1       3.014   4.894  19.142  0.00  0.00    +0.000 OA
ENDBRANCH  24  31
ENDBRANCH   1  27
BRANCH   5  33
ATOM     33  C   UNL     1      -1.151  12.541  23.064  0.00  0.00    +0.000 C 
BRANCH  33  34
ATOM     34  C   UNL     1      -2.033  13.690  23.528  0.00  0.00    +0.000 C 
BRANCH  34  35
ATOM     35  C   UNL     1      -3.355  13.161  24.052  0.00  0.00    +0.000 C 
ATOM     36  N   UNL     1      -4.295  14.125  24.268  0.00  0.00    +0.000 N 
ATOM     37  O   UNL     1      -3.597  11.982  24.282  0.00  0.00    +0.000 OA
ATOM     38  H   UNL     1      -4.166  15.090  23.999  0.00  0.00    +0.000 HD
ATOM     39  H   UNL     1      -5.207  13.823  24.583  0.00  0.00    +0.000 HD
ENDBRANCH  34  35
ENDBRANCH  33  34
ENDBRANCH   5  33
TORSDOF 5
ENDMDL
MODEL 5
REMARK VINA RESULT:      -7.1      5.070      8.815
REMARK  Name = 
REMARK  7 active torsions:
REMARK  status: ('A' for Active; 'I' for Inactive)
REMARK    1  A    between atoms: C_1  and  C_2
REMARK    2  A    between atoms: C_2  and  C_4
REMARK    3  A    between atoms: C_7  and  N_8
REMARK    4  A    between atoms: C_12  and  C_13
REMARK    5  A    between atoms: C_13  and  C_14
REMARK    6  A    between atoms: C_14  and  C_15
REMARK    7  A    between atoms: C_29  and  C_30
REMARK                            x       y       z     vdW  Elec       q    Type
REMARK                         _______ _______ _______ _____ _____    ______ ____
ROOT
ATOM      1  N   UNL     1       0.195  10.811  19.364  0.00  0.00    +0.000 N 
ATOM      2  C   UNL     1       0.599  11.902  20.097  0.00  0.00    +0.000 C 
ATOM      3  O   UNL     1       1.729  12.227  20.424  0.00  0.00    +0.000 OA
ATOM      4  C   UNL     1      -0.625  12.691  20.501  0.00  0.00    +0.000 C 
ATOM      5  C   UNL     1      -1.339  12.048  21.692  0.00  0.00    +0.000 C 
ATOM      6  N   UNL     1      -2.812  11.984  21.365  0.00  0.00    +0.000 NA
ATOM      7  C   UNL     1      -3.034  12.565  19.988  0.00  0.00    +0.000 C 
ATOM      8  C   UNL     1      -3.606  11.754  18.728  0.00  0.00    +0.000 C 
ATOM      9  O   UNL     1      -3.200  11.911  17.567  0.00  0.00    +0.000 OA
ATOM     10  N   UNL     1      -4.924  11.489  18.945  0.00  0.00    +0.000 N 
ATOM     11  C   UNL     1      -5.327  12.782  19.286  0.00  0.00    +0.000 A 
ATOM     12  C   UNL     1      -4.340  13.438  20.052  0.00  0.00    +0.000 A 
ATOM     13  C   UNL     1      -4.821  14.560  20.713  0.00  0.00    +0.000 A 
ATOM     14  C   UNL     1      -6.057  15.132  20.278  0.00  0.00    +0.000 A 
ATOM     15  C   UNL     1      -6.690  14.671  19.110  0.00  0.00    +0.000 A 
ATOM     16 CL   UNL     1      -7.917  15.628  18.366  0.00  0.00    +0.000 Cl
ATOM     17  C   UNL     1      -6.265  13.483  18.547  0.00  0.00    +0.000 A 
ATOM     18  C   UNL     1      -6.408  13.131  17.087  0.00  0.00    +0.000 C 
ATOM     19  C   UNL     1      -1.590  12.469  19.397  0.00  0.00    +0.000 C 
ATOM     20  C   UNL     1      -1.133  10.963  19.080  0.00  0.00    +0.000 C 
ATOM     21  O   UNL     1      -1.885  10.032  18.796  0.00  0.00    +0.000 OA
ATOM     22  H   UNL     1      -3.300  12.567  22.050  0.00  0.00    +0.000 HD
ATOM     23  H   UNL     1      -4.943  10.904  19.781  0.00  0.00    +0.000 HD
ENDROOT
BRANCH   1  27
ATOM     24  C   UNL     1       2.535   7.213  18.839  0.00  0.00    +0.000 A 
ATOM     25  C   UNL     1       1.941   7.529  20.057  0.00  0.00    +0.000 A 
ATOM     26  C   UNL     1       1.181   8.702  20.202  0.00  0.00    +0.000 A 
ATOM     27  C   UNL     1       0.979   9.607  19.164  0.00  0.00    +0.000 A 
ATOM     28  C   UNL     1       1.550   9.258  17.912  0.00  0.00    +0.000 A 
ATOM     29  C   UNL     1       2.324   8.081  17.761  0.00  0.00    +0.000 A 
BRANCH  24  31
ATOM     30  C   UNL     1       2.833   4.829  17.847  0.00  0.00    +0.000 C 
ATOM     31  C   UNL     1       3.373   5.980  18.667  0.00  0.00    +0.000 C 
ATOM     32  O   UNL     1       4.487   5.918  19.184  0.00  0.00    +0.000 OA
ENDBRANCH  24  31
ENDBRANCH   1  27
BRANCH   5  33
ATOM     33  C   UNL     1      -0.830  12.797  22.937  0.00  0.00    +0.000 C 
BRANCH  33  34
ATOM     34  C   UNL     1      -1.743  13.882  23.486  0.00  0.00    +0.000 C 
BRANCH  34  35
ATOM     35  C   UNL     1      -1.042  15.227  23.456  0.00  0.00    +0.000 C 
ATOM     36  N   UNL     1      -1.203  15.914  22.290  0.00  0.00    +0.000 N 
ATOM     37  O   UNL     1      -0.374  15.690  24.374  0.00  0.00    +0.000 OA
ATOM     38  H   UNL     1      -1.823  15.611  21.553  0.00  0.00    +0.000 HD
ATOM     39  H   UNL     1      -0.786  16.834  22.230  0.00  0.00    +0.000 HD
ENDBRANCH  34  35
ENDBRANCH  33  34
ENDBRANCH   5  33
TORSDOF 5
ENDMDL
MODEL 6
REMARK VINA RESULT:      -7.1      7.982      9.846
REMARK  Name = 
REMARK  7 active torsions:
REMARK  status: ('A' for Active; 'I' for Inactive)
REMARK    1  A    between atoms: C_1  and  C_2
REMARK    2  A    between atoms: C_2  and  C_4
REMARK    3  A    between atoms: C_7  and  N_8
REMARK    4  A    between atoms: C_12  and  C_13
REMARK    5  A    between atoms: C_13  and  C_14
REMARK    6  A    between atoms: C_14  and  C_15
REMARK    7  A    between atoms: C_29  and  C_30
REMARK                            x       y       z     vdW  Elec       q    Type
REMARK                         _______ _______ _______ _____ _____    ______ ____
ROOT
ATOM      1  N   UNL     1       0.720  13.014  20.332  0.00  0.00    +0.000 N 
ATOM      2  C   UNL     1       0.366  11.697  20.154  0.00  0.00    +0.000 C 
ATOM      3  O   UNL     1       1.083  10.738  19.914  0.00  0.00    +0.000 OA
ATOM      4  C   UNL     1      -1.136  11.581  20.272  0.00  0.00    +0.000 C 
ATOM      5  C   UNL     1      -1.836  12.032  18.988  0.00  0.00    +0.000 C 
ATOM      6  N   UNL     1      -2.955  12.968  19.378  0.00  0.00    +0.000 NA
ATOM      7  C   UNL     1      -2.965  13.120  20.881  0.00  0.00    +0.000 C 
ATOM      8  C   UNL     1      -2.710  14.493  21.669  0.00  0.00    +0.000 C 
ATOM      9  O   UNL     1      -2.072  14.570  22.731  0.00  0.00    +0.000 OA
ATOM     10  N   UNL     1      -3.781  15.311  21.473  0.00  0.00    +0.000 N 
ATOM     11  C   UNL     1      -4.784  14.397  21.807  0.00  0.00    +0.000 A 
ATOM     12  C   UNL     1      -4.467  13.102  21.346  0.00  0.00    +0.000 A 
ATOM     13  C   UNL     1      -5.562  12.249  21.324  0.00  0.00    +0.000 A 
ATOM     14  C   UNL     1      -6.720  12.605  22.083  0.00  0.00    +0.000 A 
ATOM     15  C   UNL     1      -6.696  13.707  22.957  0.00  0.00    +0.000 A 
ATOM     16 CL   UNL     1      -7.916  13.868  24.165  0.00  0.00    +0.000 Cl
ATOM     17  C   UNL     1      -5.651  14.605  22.866  0.00  0.00    +0.000 A 
ATOM     18  C   UNL     1      -5.167  15.469  24.005  0.00  0.00    +0.000 C 
ATOM     19  C   UNL     1      -1.515  12.648  21.229  0.00  0.00    +0.000 C 
ATOM     20  C   UNL     1      -0.383  13.690  20.772  0.00  0.00    +0.000 C 
ATOM     21  O   UNL     1      -0.532  14.906  20.660  0.00  0.00    +0.000 OA
ATOM     22  H   UNL     1      -3.833  12.529  19.087  0.00  0.00    +0.000 HD
ATOM     23  H   UNL     1      -3.806  15.479  20.468  0.00  0.00    +0.000 HD
ENDROOT
BRANCH   1  27
ATOM     24  C   UNL     1       4.413  14.767  18.923  0.00  0.00    +0.000 A 
ATOM     25  C   UNL     1       3.407  14.374  18.046  0.00  0.00    +0.000 A 
ATOM     26  C   UNL     1       2.213  13.812  18.528  0.00  0.00    +0.000 A 
ATOM     27  C   UNL     1       1.964  13.608  19.882  0.00  0.00    +0.000 A 
ATOM     28  C   UNL     1       2.975  14.051  20.776  0.00  0.00    +0.000 A 
ATOM     29  C   UNL     1       4.184  14.612  20.295  0.00  0.00    +0.000 A 
BRANCH  24  31
ATOM     30  C   UNL     1       6.690  14.448  17.712  0.00  0.00    +0.000 C 
ATOM     31  C   UNL     1       5.707  15.345  18.431  0.00  0.00    +0.000 C 
ATOM     32  O   UNL     1       5.956  16.536  18.611  0.00  0.00    +0.000 OA
ENDBRANCH  24  31
ENDBRANCH   1  27
BRANCH   5  33
ATOM     33  C   UNL     1      -2.113  10.745  18.190  0.00  0.00    +0.000 C 
BRANCH  33  34
ATOM     34  C   UNL     1      -3.573  10.442  17.893  0.00  0.00    +0.000 C 
BRANCH  34  35
ATOM     35  C   UNL     1      -4.005  11.128  16.611  0.00  0.00    +0.000 C 
ATOM     36  N   UNL     1      -4.793  12.224  16.803  0.00  0.00    +0.000 N 
ATOM     37  O   UNL     1      -3.701  10.759  15.482  0.00  0.00    +0.000 OA
ATOM     38  H   UNL     1      -4.982  12.613  17.715  0.00  0.00    +0.000 HD
ATOM     39  H   UNL     1      -5.079  12.740  15.982  0.00  0.00    +0.000 HD
ENDBRANCH  34  35
ENDBRANCH  33  34
ENDBRANCH   5  33
TORSDOF 5
ENDMDL
MODEL 7
REMARK VINA RESULT:      -7.1      1.204      1.635
REMARK  Name = 
REMARK  7 active torsions:
REMARK  status: ('A' for Active; 'I' for Inactive)
REMARK    1  A    between atoms: C_1  and  C_2
REMARK    2  A    between atoms: C_2  and  C_4
REMARK    3  A    between atoms: C_7  and  N_8
REMARK    4  A    between atoms: C_12  and  C_13
REMARK    5  A    between atoms: C_13  and  C_14
REMARK    6  A    between atoms: C_14  and  C_15
REMARK    7  A    between atoms: C_29  and  C_30
REMARK                            x       y       z     vdW  Elec       q    Type
REMARK                         _______ _______ _______ _____ _____    ______ ____
ROOT
ATOM      1  N   UNL     1       5.216   5.663  17.072  0.00  0.00    +0.000 N 
ATOM      2  C   UNL     1       5.507   5.111  18.297  0.00  0.00    +0.000 C 
ATOM      3  O   UNL     1       6.411   4.349  18.599  0.00  0.00    +0.000 OA
ATOM      4  C   UNL     1       4.471   5.581  19.293  0.00  0.00    +0.000 C 
ATOM      5  C   UNL     1       3.164   4.797  19.155  0.00  0.00    +0.000 C 
ATOM      6  N   UNL     1       2.031   5.795  19.133  0.00  0.00    +0.000 NA
ATOM      7  C   UNL     1       2.602   7.189  19.245  0.00  0.00    +0.000 C 
ATOM      8  C   UNL     1       2.474   8.329  18.124  0.00  0.00    +0.000 C 
ATOM      9  O   UNL     1       3.383   9.127  17.847  0.00  0.00    +0.000 OA
ATOM     10  N   UNL     1       1.179   8.749  18.078  0.00  0.00    +0.000 N 
ATOM     11  C   UNL     1       1.003   8.978  19.445  0.00  0.00    +0.000 A 
ATOM     12  C   UNL     1       1.670   8.003  20.215  0.00  0.00    +0.000 A 
ATOM     13  C   UNL     1       1.240   7.964  21.535  0.00  0.00    +0.000 A 
ATOM     14  C   UNL     1       0.517   9.084  22.051  0.00  0.00    +0.000 A 
ATOM     15  C   UNL     1       0.382  10.263  21.295  0.00  0.00    +0.000 A 
ATOM     16 CL   UNL     1      -0.099  11.726  22.069  0.00  0.00    +0.000 Cl
ATOM     17  C   UNL     1       0.703  10.231  19.951  0.00  0.00    +0.000 A 
ATOM     18  C   UNL     1       1.148  11.432  19.153  0.00  0.00    +0.000 C 
ATOM     19  C   UNL     1       4.083   6.930  18.815  0.00  0.00    +0.000 C 
ATOM     20  C   UNL     1       4.242   6.603  17.252  0.00  0.00    +0.000 C 
ATOM     21  O   UNL     1       3.493   6.995  16.359  0.00  0.00    +0.000 OA
ATOM     22  H   UNL     1       1.449   5.612  19.954  0.00  0.00    +0.000 HD
ATOM     23  H   UNL     1       0.643   7.925  17.808  0.00  0.00    +0.000 HD
ENDROOT
BRANCH   1  27
ATOM     24  C   UNL     1       6.543   4.076  13.274  0.00  0.00    +0.000 A 
ATOM     25  C   UNL     1       5.288   3.777  13.794  0.00  0.00    +0.000 A 
ATOM     26  C   UNL     1       4.877   4.308  15.028  0.00  0.00    +0.000 A 
ATOM     27  C   UNL     1       5.680   5.146  15.798  0.00  0.00    +0.000 A 
ATOM     28  C   UNL     1       6.942   5.484  15.241  0.00  0.00    +0.000 A 
ATOM     29  C   UNL     1       7.365   4.944  14.001  0.00  0.00    +0.000 A 
BRANCH  24  31
ATOM     30  C   UNL     1       6.621   2.085  11.605  0.00  0.00    +0.000 C 
ATOM     31  C   UNL     1       7.015   3.499  11.971  0.00  0.00    +0.000 C 
ATOM     32  O   UNL     1       7.708   4.176  11.215  0.00  0.00    +0.000 OA
ENDBRANCH  24  31
ENDBRANCH   1  27
BRANCH   5  33
ATOM     33  C   UNL     1       3.229   3.687  20.219  0.00  0.00    +0.000 C 
BRANCH  33  34
ATOM     34  C   UNL     1       2.412   3.918  21.480  0.00  0.00    +0.000 C 
BRANCH  34  35
ATOM     35  C   UNL     1       1.256   2.939  21.547  0.00  0.00    +0.000 C 
ATOM     36  N   UNL     1       0.433   2.972  20.461  0.00  0.00    +0.000 N 
ATOM     37  O   UNL     1       1.039   2.173  22.480  0.00  0.00    +0.000 OA
ATOM     38  H   UNL     1       0.633   3.517  19.635  0.00  0.00    +0.000 HD
ATOM     39  H   UNL     1      -0.334   2.313  20.438  0.00  0.00    +0.000 HD
ENDBRANCH  34  35
ENDBRANCH  33  34
ENDBRANCH   5  33
TORSDOF 5
ENDMDL
MODEL 8
REMARK VINA RESULT:      -7.0      1.000      1.041
REMARK  Name = 
REMARK  7 active torsions:
REMARK  status: ('A' for Active; 'I' for Inactive)
REMARK    1  A    between atoms: C_1  and  C_2
REMARK    2  A    between atoms: C_2  and  C_4
REMARK    3  A    between atoms: C_7  and  N_8
REMARK    4  A    between atoms: C_12  and  C_13
REMARK    5  A    between atoms: C_13  and  C_14
REMARK    6  A    between atoms: C_14  and  C_15
REMARK    7  A    between atoms: C_29  and  C_30
REMARK                            x       y       z     vdW  Elec       q    Type
REMARK                         _______ _______ _______ _____ _____    ______ ____
ROOT
ATOM      1  N   UNL     1       4.363   5.841  17.852  0.00  0.00    +0.000 N 
ATOM      2  C   UNL     1       4.547   5.280  19.094  0.00  0.00    +0.000 C 
ATOM      3  O   UNL     1       5.368   4.447  19.443  0.00  0.00    +0.000 OA
ATOM      4  C   UNL     1       3.510   5.846  20.036  0.00  0.00    +0.000 C 
ATOM      5  C   UNL     1       2.149   5.173  19.841  0.00  0.00    +0.000 C 
ATOM      6  N   UNL     1       1.106   6.262  19.758  0.00  0.00    +0.000 NA
ATOM      7  C   UNL     1       1.787   7.605  19.888  0.00  0.00    +0.000 C 
ATOM      8  C   UNL     1       1.809   8.740  18.755  0.00  0.00    +0.000 C 
ATOM      9  O   UNL     1       2.794   9.456  18.517  0.00  0.00    +0.000 OA
ATOM     10  N   UNL     1       0.558   9.266  18.645  0.00  0.00    +0.000 N 
ATOM     11  C   UNL     1       0.338   9.524  20.001  0.00  0.00    +0.000 A 
ATOM     12  C   UNL     1       0.883   8.504  20.808  0.00  0.00    +0.000 A 
ATOM     13  C   UNL     1       0.390   8.515  22.106  0.00  0.00    +0.000 A 
ATOM     14  C   UNL     1      -0.259   9.697  22.580  0.00  0.00    +0.000 A 
ATOM     15  C   UNL     1      -0.258  10.875  21.810  0.00  0.00    +0.000 A 
ATOM     16 CL   UNL     1      -0.649  12.382  22.551  0.00  0.00    +0.000 Cl
ATOM     17  C   UNL     1       0.122  10.803  20.484  0.00  0.00    +0.000 A 
ATOM     18  C   UNL     1       0.704  11.954  19.700  0.00  0.00    +0.000 C 
ATOM     19  C   UNL     1       3.260   7.217  19.532  0.00  0.00    +0.000 C 
ATOM     20  C   UNL     1       3.464   6.862  17.980  0.00  0.00    +0.000 C 
ATOM     21  O   UNL     1       2.793   7.306  17.050  0.00  0.00    +0.000 OA
ATOM     22  H   UNL     1       0.474   6.137  20.553  0.00  0.00    +0.000 HD
ATOM     23  H   UNL     1      -0.033   8.488  18.355  0.00  0.00    +0.000 HD
ENDROOT
BRANCH   1  27
ATOM     24  C   UNL     1       5.797   4.216  14.110  0.00  0.00    +0.000 A 
ATOM     25  C   UNL     1       5.999   5.549  14.455  0.00  0.00    +0.000 A 
ATOM     26  C   UNL     1       5.528   6.053  15.679  0.00  0.00    +0.000 A 
ATOM     27  C   UNL     1       4.840   5.274  16.605  0.00  0.00    +0.000 A 
ATOM     28  C   UNL     1       4.674   3.904  16.267  0.00  0.00    +0.000 A 
ATOM     29  C   UNL     1       5.140   3.392  15.031  0.00  0.00    +0.000 A 
BRANCH  24  31
ATOM     30  C   UNL     1       7.391   4.358  12.062  0.00  0.00    +0.000 C 
ATOM     31  C   UNL     1       6.266   3.661  12.797  0.00  0.00    +0.000 C 
ATOM     32  O   UNL     1       5.742   2.650  12.335  0.00  0.00    +0.000 OA
ENDBRANCH  24  31
ENDBRANCH   1  27
BRANCH   5  33
ATOM     33  C   UNL     1       2.070   4.072  20.914  0.00  0.00    +0.000 C 
BRANCH  33  34
ATOM     34  C   UNL     1       1.494   2.739  20.464  0.00  0.00    +0.000 C 
BRANCH  34  35
ATOM     35  C   UNL     1       2.059   2.348  19.112  0.00  0.00    +0.000 C 
ATOM     36  N   UNL     1       3.368   1.969  19.143  0.00  0.00    +0.000 N 
ATOM     37  O   UNL     1       1.432   2.365  18.059  0.00  0.00    +0.000 OA
ATOM     38  H   UNL     1       3.887   1.850  20.000  0.00  0.00    +0.000 HD
ATOM     39  H   UNL     1       3.785   1.664  18.273  0.00  0.00    +0.000 HD
ENDBRANCH  34  35
ENDBRANCH  33  34
ENDBRANCH   5  33
TORSDOF 5
ENDMDL
MODEL 9
REMARK VINA RESULT:      -6.9      7.859      9.735
REMARK  Name = 
REMARK  7 active torsions:
REMARK  status: ('A' for Active; 'I' for Inactive)
REMARK    1  A    between atoms: C_1  and  C_2
REMARK    2  A    between atoms: C_2  and  C_4
REMARK    3  A    between atoms: C_7  and  N_8
REMARK    4  A    between atoms: C_12  and  C_13
REMARK    5  A    between atoms: C_13  and  C_14
REMARK    6  A    between atoms: C_14  and  C_15
REMARK    7  A    between atoms: C_29  and  C_30
REMARK                            x       y       z     vdW  Elec       q    Type
REMARK                         _______ _______ _______ _____ _____    ______ ____
ROOT
ATOM      1  N   UNL     1       0.632  12.888  20.217  0.00  0.00    +0.000 N 
ATOM      2  C   UNL     1       0.249  11.574  20.078  0.00  0.00    +0.000 C 
ATOM      3  O   UNL     1       0.941  10.596  19.851  0.00  0.00    +0.000 OA
ATOM      4  C   UNL     1      -1.253  11.493  20.224  0.00  0.00    +0.000 C 
ATOM      5  C   UNL     1      -1.965  11.926  18.941  0.00  0.00    +0.000 C 
ATOM      6  N   UNL     1      -3.059  12.894  19.326  0.00  0.00    +0.000 NA
ATOM      7  C   UNL     1      -3.040  13.084  20.825  0.00  0.00    +0.000 C 
ATOM      8  C   UNL     1      -2.743  14.471  21.573  0.00  0.00    +0.000 C 
ATOM      9  O   UNL     1      -2.086  14.561  22.622  0.00  0.00    +0.000 OA
ATOM     10  N   UNL     1      -3.801  15.306  21.375  0.00  0.00    +0.000 N 
ATOM     11  C   UNL     1      -4.816  14.422  21.748  0.00  0.00    +0.000 A 
ATOM     12  C   UNL     1      -4.533  13.109  21.315  0.00  0.00    +0.000 A 
ATOM     13  C   UNL     1      -5.646  12.279  21.333  0.00  0.00    +0.000 A 
ATOM     14  C   UNL     1      -6.783  12.678  22.102  0.00  0.00    +0.000 A 
ATOM     15  C   UNL     1      -6.721  13.800  22.947  0.00  0.00    +0.000 A 
ATOM     16 CL   UNL     1      -7.916  14.017  24.171  0.00  0.00    +0.000 Cl
ATOM     17  C   UNL     1      -5.660  14.674  22.816  0.00  0.00    +0.000 A 
ATOM     18  C   UNL     1      -5.139  15.556  23.924  0.00  0.00    +0.000 C 
ATOM     19  C   UNL     1      -1.594  12.591  21.160  0.00  0.00    +0.000 C 
ATOM     20  C   UNL     1      -0.449  13.598  20.658  0.00  0.00    +0.000 C 
ATOM     21  O   UNL     1      -0.575  14.813  20.518  0.00  0.00    +0.000 OA
ATOM     22  H   UNL     1      -3.950  12.467  19.061  0.00  0.00    +0.000 HD
ATOM     23  H   UNL     1      -3.840  15.449  20.366  0.00  0.00    +0.000 HD
ENDROOT
BRANCH   1  27
ATOM     24  C   UNL     1       4.366  14.576  18.834  0.00  0.00    +0.000 A 
ATOM     25  C   UNL     1       4.062  14.481  20.188  0.00  0.00    +0.000 A 
ATOM     26  C   UNL     1       2.844  13.924  20.614  0.00  0.00    +0.000 A 
ATOM     27  C   UNL     1       1.880  13.445  19.731  0.00  0.00    +0.000 A 
ATOM     28  C   UNL     1       2.214  13.503  18.352  0.00  0.00    +0.000 A 
ATOM     29  C   UNL     1       3.436  14.072  17.916  0.00  0.00    +0.000 A 
BRANCH  24  31
ATOM     30  C   UNL     1       5.969  16.619  18.737  0.00  0.00    +0.000 C 
ATOM     31  C   UNL     1       5.647  15.191  18.354  0.00  0.00    +0.000 C 
ATOM     32  O   UNL     1       6.423  14.534  17.662  0.00  0.00    +0.000 OA
ENDBRANCH  24  31
ENDBRANCH   1  27
BRANCH   5  33
ATOM     33  C   UNL     1      -2.282  10.625  18.181  0.00  0.00    +0.000 C 
BRANCH  33  34
ATOM     34  C   UNL     1      -1.981  10.630  16.690  0.00  0.00    +0.000 C 
BRANCH  34  35
ATOM     35  C   UNL     1      -3.240  10.928  15.898  0.00  0.00    +0.000 C 
ATOM     36  N   UNL     1      -4.304  11.302  16.663  0.00  0.00    +0.000 N 
ATOM     37  O   UNL     1      -3.337  10.845  14.679  0.00  0.00    +0.000 OA
ATOM     38  H   UNL     1      -4.236  11.475  17.655  0.00  0.00    +0.000 HD
ATOM     39  H   UNL     1      -5.160  11.547  16.182  0.00  0.00    +0.000 HD
ENDBRANCH  34  35
ENDBRANCH  33  34
ENDBRANCH   5  33
TORSDOF 5
ENDMDL
