MODEL 1
REMARK VINA RESULT:      -6.4      0.000      0.000
REMARK  Name = 
REMARK  10 active torsions:
REMARK  status: ('A' for Active; 'I' for Inactive)
REMARK    1  A    between atoms: C_1  and  O_2
REMARK    2  A    between atoms: O_2  and  C_3
REMARK    3  A    between atoms: C_7  and  C_8
REMARK    4  A    between atoms: C_9  and  C_10
REMARK    5  A    between atoms: N_12  and  C_13
REMARK    6  A    between atoms: C_16  and  C_17
REMARK    7  A    between atoms: C_19  and  C_20
REMARK    8  A    between atoms: C_21  and  C_22
REMARK    9  A    between atoms: C_29  and  O_30
REMARK   10  A    between atoms: O_30  and  C_31
REMARK                            x       y       z     vdW  Elec       q    Type
REMARK                         _______ _______ _______ _____ _____    ______ ____
ROOT
ATOM      1  C   UNL     1      -5.299  14.253  20.327  0.00  0.00    +0.000 C 
ATOM      2  C   UNL     1      -4.077  14.358  21.269  0.00  0.00    +0.000 C 
ATOM      3  C   UNL     1      -3.981  15.387  22.153  0.00  0.00    +0.000 C 
ATOM      4  C   UNL     1      -2.905  15.584  23.189  0.00  0.00    +0.000 C 
ATOM      5  N   UNL     1      -4.945  16.398  22.151  0.00  0.00    +0.000 N 
ATOM      6  C   UNL     1      -5.951  16.476  21.256  0.00  0.00    +0.000 A 
ATOM      7  N   UNL     1      -6.854  17.402  21.046  0.00  0.00    +0.000 NA
ATOM      8  C   UNL     1      -7.548  16.906  19.969  0.00  0.00    +0.000 A 
ATOM      9  N   UNL     1      -7.119  15.735  19.486  0.00  0.00    +0.000 NA
ATOM     10  N   UNL     1      -6.129  15.458  20.364  0.00  0.00    +0.000 N 
ATOM     11  H   UNL     1      -4.844  17.157  22.813  0.00  0.00    +0.000 HD
ENDROOT
BRANCH   1  16
ATOM     12  C   UNL     1      -7.042  10.824  20.049  0.00  0.00    +0.000 A 
ATOM     13  C   UNL     1      -7.798  10.832  21.229  0.00  0.00    +0.000 A 
ATOM     14  C   UNL     1      -7.769  11.929  22.087  0.00  0.00    +0.000 A 
ATOM     15  C   UNL     1      -6.967  13.025  21.785  0.00  0.00    +0.000 A 
ATOM     16  C   UNL     1      -6.157  13.015  20.636  0.00  0.00    +0.000 A 
ATOM     17  C   UNL     1      -6.171  11.893  19.775  0.00  0.00    +0.000 A 
BRANCH  12  19
ATOM     18  C   UNL     1      -7.047   8.480  19.775  0.00  0.00    +0.000 C 
ATOM     19  O   UNL     1      -7.113   9.773  19.175  0.00  0.00    +0.000 OA
ENDBRANCH  12  19
BRANCH  17  20
ATOM     20  O   UNL     1      -5.289  11.986  18.739  0.00  0.00    +0.000 OA
ATOM     21  C   UNL     1      -5.708  12.240  17.415  0.00  0.00    +0.000 C 
ENDBRANCH  17  20
ENDBRANCH   1  16
BRANCH   2  22
ATOM     22  C   UNL     1      -3.103  13.258  20.983  0.00  0.00    +0.000 C 
ATOM     23  O   UNL     1      -2.868  12.484  21.909  0.00  0.00    +0.000 OA
ATOM     24  N   UNL     1      -2.480  13.244  19.751  0.00  0.00    +0.000 N 
ATOM     25  H   UNL     1      -2.645  14.029  19.138  0.00  0.00    +0.000 HD
BRANCH  24  26
ATOM     26  C   UNL     1      -1.539  12.267  19.305  0.00  0.00    +0.000 A 
ATOM     27  C   UNL     1      -1.947  11.103  18.640  0.00  0.00    +0.000 A 
ATOM     28  C   UNL     1      -1.038  10.125  18.228  0.00  0.00    +0.000 A 
ATOM     29  C   UNL     1       0.324  10.290  18.448  0.00  0.00    +0.000 A 
ATOM     30  C   UNL     1       1.303   9.235  18.022  0.00  0.00    +0.000 C 
ATOM     31  C   UNL     1       0.756  11.462  19.075  0.00  0.00    +0.000 A 
ATOM     32  C   UNL     1      -0.156  12.452  19.517  0.00  0.00    +0.000 A 
ATOM     33  C   UNL     1       0.415  13.678  20.177  0.00  0.00    +0.000 C 
ENDBRANCH  24  26
ENDBRANCH   2  22
TORSDOF 5
ENDMDL
MODEL 2
REMARK VINA RESULT:      -6.3      1.966      2.182
REMARK  Name = 
REMARK  10 active torsions:
REMARK  status: ('A' for Active; 'I' for Inactive)
REMARK    1  A    between atoms: C_1  and  O_2
REMARK    2  A    between atoms: O_2  and  C_3
REMARK    3  A    between atoms: C_7  and  C_8
REMARK    4  A    between atoms: C_9  and  C_10
REMARK    5  A    between atoms: N_12  and  C_13
REMARK    6  A    between atoms: C_16  and  C_17
REMARK    7  A    between atoms: C_19  and  C_20
REMARK    8  A    between atoms: C_21  and  C_22
REMARK    9  A    between atoms: C_29  and  O_30
REMARK   10  A    between atoms: O_30  and  C_31
REMARK                            x       y       z     vdW  Elec       q    Type
REMARK                         _______ _______ _______ _____ _____    ______ ____
ROOT
ATOM      1  C   UNL     1      -4.594  14.209  21.803  0.00  0.00    +0.000 C 
ATOM      2  C   UNL     1      -3.743  13.987  23.077  0.00  0.00    +0.000 C 
ATOM      3  C   UNL     1      -3.716  14.931  24.055  0.00  0.00    +0.000 C 
ATOM      4  C   UNL     1      -3.010  14.829  25.381  0.00  0.00    +0.000 C 
ATOM      5  N   UNL     1      -4.388  16.141  23.872  0.00  0.00    +0.000 N 
ATOM      6  C   UNL     1      -5.015  16.488  22.729  0.00  0.00    +0.000 A 
ATOM      7  N   UNL     1      -5.583  17.609  22.359  0.00  0.00    +0.000 NA
ATOM      8  C   UNL     1      -5.987  17.332  21.076  0.00  0.00    +0.000 A 
ATOM      9  N   UNL     1      -5.688  16.111  20.619  0.00  0.00    +0.000 NA
ATOM     10  N   UNL     1      -5.114  15.574  21.719  0.00  0.00    +0.000 N 
ATOM     11  H   UNL     1      -4.343  16.830  24.613  0.00  0.00    +0.000 HD
ENDROOT
BRANCH   1  16
ATOM     12  C   UNL     1      -7.110  11.623  20.441  0.00  0.00    +0.000 A 
ATOM     13  C   UNL     1      -7.916  11.439  21.573  0.00  0.00    +0.000 A 
ATOM     14  C   UNL     1      -7.673  12.152  22.745  0.00  0.00    +0.000 A 
ATOM     15  C   UNL     1      -6.606  13.042  22.806  0.00  0.00    +0.000 A 
ATOM     16  C   UNL     1      -5.751  13.200  21.703  0.00  0.00    +0.000 A 
ATOM     17  C   UNL     1      -5.985  12.462  20.519  0.00  0.00    +0.000 A 
BRANCH  12  19
ATOM     18  C   UNL     1      -7.110   9.567  19.282  0.00  0.00    +0.000 C 
ATOM     19  O   UNL     1      -7.381  10.968  19.270  0.00  0.00    +0.000 OA
ENDBRANCH  12  19
BRANCH  17  20
ATOM     20  O   UNL     1      -5.041  12.658  19.555  0.00  0.00    +0.000 OA
ATOM     21  C   UNL     1      -4.177  11.627  19.126  0.00  0.00    +0.000 C 
ENDBRANCH  17  20
ENDBRANCH   1  16
BRANCH   2  22
ATOM     22  C   UNL     1      -2.989  12.697  22.980  0.00  0.00    +0.000 C 
ATOM     23  O   UNL     1      -3.368  11.787  23.715  0.00  0.00    +0.000 OA
ATOM     24  N   UNL     1      -1.885  12.649  22.152  0.00  0.00    +0.000 N 
ATOM     25  H   UNL     1      -1.587  13.514  21.724  0.00  0.00    +0.000 HD
BRANCH  24  26
ATOM     26  C   UNL     1      -1.060  11.505  21.929  0.00  0.00    +0.000 A 
ATOM     27  C   UNL     1      -0.839  10.551  22.931  0.00  0.00    +0.000 A 
ATOM     28  C   UNL     1      -0.008   9.446  22.735  0.00  0.00    +0.000 A 
ATOM     29  C   UNL     1       0.618   9.242  21.511  0.00  0.00    +0.000 A 
ATOM     30  C   UNL     1       1.524   8.065  21.299  0.00  0.00    +0.000 C 
ATOM     31  C   UNL     1       0.380  10.162  20.485  0.00  0.00    +0.000 A 
ATOM     32  C   UNL     1      -0.443  11.298  20.676  0.00  0.00    +0.000 A 
ATOM     33  C   UNL     1      -0.635  12.223  19.505  0.00  0.00    +0.000 C 
ENDBRANCH  24  26
ENDBRANCH   2  22
TORSDOF 5
ENDMDL
MODEL 3
REMARK VINA RESULT:      -6.2      3.909      6.654
REMARK  Name = 
REMARK  10 active torsions:
REMARK  status: ('A' for Active; 'I' for Inactive)
REMARK    1  A    between atoms: C_1  and  O_2
REMARK    2  A    between atoms: O_2  and  C_3
REMARK    3  A    between atoms: C_7  and  C_8
REMARK    4  A    between atoms: C_9  and  C_10
REMARK    5  A    between atoms: N_12  and  C_13
REMARK    6  A    between atoms: C_16  and  C_17
REMARK    7  A    between atoms: C_19  and  C_20
REMARK    8  A    between atoms: C_21  and  C_22
REMARK    9  A    between atoms: C_29  and  O_30
REMARK   10  A    between atoms: O_30  and  C_31
REMARK                            x       y       z     vdW  Elec       q    Type
REMARK                         _______ _______ _______ _____ _____    ______ ____
ROOT
ATOM      1  C   UNL     1      -0.761  11.596  18.995  0.00  0.00    +0.000 C 
ATOM      2  C   UNL     1      -0.784  12.965  19.716  0.00  0.00    +0.000 C 
ATOM      3  C   UNL     1      -1.968  13.536  20.063  0.00  0.00    +0.000 C 
ATOM      4  C   UNL     1      -2.156  14.814  20.837  0.00  0.00    +0.000 C 
ATOM      5  N   UNL     1      -3.169  12.927  19.693  0.00  0.00    +0.000 N 
ATOM      6  C   UNL     1      -3.245  11.823  18.922  0.00  0.00    +0.000 A 
ATOM      7  N   UNL     1      -4.273  11.203  18.396  0.00  0.00    +0.000 NA
ATOM      8  C   UNL     1      -3.681  10.187  17.686  0.00  0.00    +0.000 A 
ATOM      9  N   UNL     1      -2.344  10.148  17.725  0.00  0.00    +0.000 NA
ATOM     10  N   UNL     1      -2.096  11.176  18.568  0.00  0.00    +0.000 N 
ATOM     11  H   UNL     1      -4.036  13.379  19.955  0.00  0.00    +0.000 HD
ENDROOT
BRANCH   1  16
ATOM     12  C   UNL     1       1.376   8.602  20.154  0.00  0.00    +0.000 A 
ATOM     13  C   UNL     1       0.945   8.488  21.483  0.00  0.00    +0.000 A 
ATOM     14  C   UNL     1      -0.032   9.340  21.992  0.00  0.00    +0.000 A 
ATOM     15  C   UNL     1      -0.577  10.332  21.182  0.00  0.00    +0.000 A 
ATOM     16  C   UNL     1      -0.120  10.501  19.865  0.00  0.00    +0.000 A 
ATOM     17  C   UNL     1       0.887   9.649  19.354  0.00  0.00    +0.000 A 
BRANCH  12  19
ATOM     18  C   UNL     1       2.136   6.370  20.040  0.00  0.00    +0.000 C 
ATOM     19  O   UNL     1       2.293   7.729  19.634  0.00  0.00    +0.000 OA
ENDBRANCH  12  19
BRANCH  17  20
ATOM     20  O   UNL     1       1.285   9.967  18.089  0.00  0.00    +0.000 OA
ATOM     21  C   UNL     1       2.404  10.792  17.838  0.00  0.00    +0.000 C 
ENDBRANCH  17  20
ENDBRANCH   1  16
BRANCH   2  22
ATOM     22  C   UNL     1       0.607  13.498  19.865  0.00  0.00    +0.000 C 
ATOM     23  O   UNL     1       1.178  13.243  20.924  0.00  0.00    +0.000 OA
ATOM     24  N   UNL     1       1.109  14.299  18.858  0.00  0.00    +0.000 N 
ATOM     25  H   UNL     1       0.479  14.560  18.115  0.00  0.00    +0.000 HD
BRANCH  24  26
ATOM     26  C   UNL     1       2.414  14.879  18.827  0.00  0.00    +0.000 A 
ATOM     27  C   UNL     1       3.499  14.217  18.236  0.00  0.00    +0.000 A 
ATOM     28  C   UNL     1       4.786  14.760  18.229  0.00  0.00    +0.000 A 
ATOM     29  C   UNL     1       5.030  16.004  18.797  0.00  0.00    +0.000 A 
ATOM     30  C   UNL     1       6.413  16.585  18.806  0.00  0.00    +0.000 C 
ATOM     31  C   UNL     1       3.953  16.699  19.358  0.00  0.00    +0.000 A 
ATOM     32  C   UNL     1       2.648  16.152  19.391  0.00  0.00    +0.000 A 
ATOM     33  C   UNL     1       1.560  16.985  20.015  0.00  0.00    +0.000 C 
ENDBRANCH  24  26
ENDBRANCH   2  22
TORSDOF 5
ENDMDL
MODEL 4
REMARK VINA RESULT:      -6.2      3.141      7.304
REMARK  Name = 
REMARK  10 active torsions:
REMARK  status: ('A' for Active; 'I' for Inactive)
REMARK    1  A    between atoms: C_1  and  O_2
REMARK    2  A    between atoms: O_2  and  C_3
REMARK    3  A    between atoms: C_7  and  C_8
REMARK    4  A    between atoms: C_9  and  C_10
REMARK    5  A    between atoms: N_12  and  C_13
REMARK    6  A    between atoms: C_16  and  C_17
REMARK    7  A    between atoms: C_19  and  C_20
REMARK    8  A    between atoms: C_21  and  C_22
REMARK    9  A    between atoms: C_29  and  O_30
REMARK   10  A    between atoms: O_30  and  C_31
REMARK                            x       y       z     vdW  Elec       q    Type
REMARK                         _______ _______ _______ _____ _____    ______ ____
ROOT
ATOM      1  C   UNL     1       1.004  13.346  20.902  0.00  0.00    +0.000 C 
ATOM      2  C   UNL     1      -0.040  14.258  20.217  0.00  0.00    +0.000 C 
ATOM      3  C   UNL     1       0.361  15.358  19.525  0.00  0.00    +0.000 C 
ATOM      4  C   UNL     1      -0.518  16.293  18.737  0.00  0.00    +0.000 C 
ATOM      5  N   UNL     1       1.711  15.713  19.504  0.00  0.00    +0.000 N 
ATOM      6  C   UNL     1       2.668  15.072  20.208  0.00  0.00    +0.000 A 
ATOM      7  N   UNL     1       3.937  15.341  20.389  0.00  0.00    +0.000 NA
ATOM      8  C   UNL     1       4.338  14.342  21.241  0.00  0.00    +0.000 A 
ATOM      9  N   UNL     1       3.390  13.477  21.615  0.00  0.00    +0.000 NA
ATOM     10  N   UNL     1       2.342  13.938  20.896  0.00  0.00    +0.000 N 
ATOM     11  H   UNL     1       1.981  16.542  18.989  0.00  0.00    +0.000 HD
ENDROOT
BRANCH   1  16
ATOM     12  C   UNL     1       0.958   9.518  20.432  0.00  0.00    +0.000 A 
ATOM     13  C   UNL     1       1.214   9.433  19.056  0.00  0.00    +0.000 A 
ATOM     14  C   UNL     1       1.424  10.582  18.298  0.00  0.00    +0.000 A 
ATOM     15  C   UNL     1       1.359  11.834  18.902  0.00  0.00    +0.000 A 
ATOM     16  C   UNL     1       1.047  11.945  20.267  0.00  0.00    +0.000 A 
ATOM     17  C   UNL     1       0.814  10.780  21.034  0.00  0.00    +0.000 A 
BRANCH  12  19
ATOM     18  C   UNL     1       1.596   7.273  20.778  0.00  0.00    +0.000 C 
ATOM     19  O   UNL     1       0.809   8.389  21.191  0.00  0.00    +0.000 OA
ENDBRANCH  12  19
BRANCH  17  20
ATOM     20  O   UNL     1       0.454  11.036  22.324  0.00  0.00    +0.000 OA
ATOM     21  C   UNL     1      -0.850  10.786  22.804  0.00  0.00    +0.000 C 
ENDBRANCH  17  20
ENDBRANCH   1  16
BRANCH   2  22
ATOM     22  C   UNL     1      -1.426  13.772  20.506  0.00  0.00    +0.000 C 
ATOM     23  O   UNL     1      -1.812  13.886  21.669  0.00  0.00    +0.000 OA
ATOM     24  N   UNL     1      -2.128  13.160  19.487  0.00  0.00    +0.000 N 
ATOM     25  H   UNL     1      -1.636  12.989  18.622  0.00  0.00    +0.000 HD
BRANCH  24  26
ATOM     26  C   UNL     1      -3.459  12.652  19.580  0.00  0.00    +0.000 A 
ATOM     27  C   UNL     1      -4.326  13.044  20.610  0.00  0.00    +0.000 A 
ATOM     28  C   UNL     1      -5.618  12.527  20.731  0.00  0.00    +0.000 A 
ATOM     29  C   UNL     1      -6.101  11.612  19.804  0.00  0.00    +0.000 A 
ATOM     30  C   UNL     1      -7.483  11.043  19.937  0.00  0.00    +0.000 C 
ATOM     31  C   UNL     1      -5.267  11.237  18.746  0.00  0.00    +0.000 A 
ATOM     32  C   UNL     1      -3.948  11.736  18.624  0.00  0.00    +0.000 A 
ATOM     33  C   UNL     1      -3.135  11.271  17.445  0.00  0.00    +0.000 C 
ENDBRANCH  24  26
ENDBRANCH   2  22
TORSDOF 5
ENDMDL
MODEL 5
REMARK VINA RESULT:      -6.0      2.492      4.252
REMARK  Name = 
REMARK  10 active torsions:
REMARK  status: ('A' for Active; 'I' for Inactive)
REMARK    1  A    between atoms: C_1  and  O_2
REMARK    2  A    between atoms: O_2  and  C_3
REMARK    3  A    between atoms: C_7  and  C_8
REMARK    4  A    between atoms: C_9  and  C_10
REMARK    5  A    between atoms: N_12  and  C_13
REMARK    6  A    between atoms: C_16  and  C_17
REMARK    7  A    between atoms: C_19  and  C_20
REMARK    8  A    between atoms: C_21  and  C_22
REMARK    9  A    between atoms: C_29  and  O_30
REMARK   10  A    between atoms: O_30  and  C_31
REMARK                            x       y       z     vdW  Elec       q    Type
REMARK                         _______ _______ _______ _____ _____    ______ ____
ROOT
ATOM      1  C   UNL     1      -3.040  14.550  21.802  0.00  0.00    +0.000 C 
ATOM      2  C   UNL     1      -2.199  13.271  21.579  0.00  0.00    +0.000 C 
ATOM      3  C   UNL     1      -1.559  12.681  22.624  0.00  0.00    +0.000 C 
ATOM      4  C   UNL     1      -0.776  11.395  22.588  0.00  0.00    +0.000 C 
ATOM      5  N   UNL     1      -1.591  13.279  23.886  0.00  0.00    +0.000 N 
ATOM      6  C   UNL     1      -2.158  14.477  24.136  0.00  0.00    +0.000 A 
ATOM      7  N   UNL     1      -2.174  15.220  25.216  0.00  0.00    +0.000 NA
ATOM      8  C   UNL     1      -2.870  16.330  24.807  0.00  0.00    +0.000 A 
ATOM      9  N   UNL     1      -3.274  16.331  23.532  0.00  0.00    +0.000 NA
ATOM     10  N   UNL     1      -2.850  15.108  23.142  0.00  0.00    +0.000 N 
ATOM     11  H   UNL     1      -1.098  12.824  24.644  0.00  0.00    +0.000 HD
ENDROOT
BRANCH   1  16
ATOM     12  C   UNL     1      -6.569  12.994  21.823  0.00  0.00    +0.000 A 
ATOM     13  C   UNL     1      -7.238  13.882  20.970  0.00  0.00    +0.000 A 
ATOM     14  C   UNL     1      -6.563  14.946  20.377  0.00  0.00    +0.000 A 
ATOM     15  C   UNL     1      -5.213  15.149  20.647  0.00  0.00    +0.000 A 
ATOM     16  C   UNL     1      -4.537  14.305  21.544  0.00  0.00    +0.000 A 
ATOM     17  C   UNL     1      -5.226  13.236  22.162  0.00  0.00    +0.000 A 
BRANCH  12  19
ATOM     18  C   UNL     1      -7.869  11.067  21.418  0.00  0.00    +0.000 C 
ATOM     19  O   UNL     1      -7.215  11.913  22.361  0.00  0.00    +0.000 OA
ENDBRANCH  12  19
BRANCH  17  20
ATOM     20  O   UNL     1      -4.470  12.542  23.060  0.00  0.00    +0.000 OA
ATOM     21  C   UNL     1      -4.843  12.412  24.416  0.00  0.00    +0.000 C 
ENDBRANCH  17  20
ENDBRANCH   1  16
BRANCH   2  22
ATOM     22  C   UNL     1      -2.181  12.907  20.127  0.00  0.00    +0.000 C 
ATOM     23  O   UNL     1      -1.497  13.620  19.395  0.00  0.00    +0.000 OA
ATOM     24  N   UNL     1      -2.990  11.870  19.706  0.00  0.00    +0.000 N 
ATOM     25  H   UNL     1      -3.622  11.470  20.383  0.00  0.00    +0.000 HD
BRANCH  24  26
ATOM     26  C   UNL     1      -3.088  11.381  18.368  0.00  0.00    +0.000 A 
ATOM     27  C   UNL     1      -2.055  10.639  17.778  0.00  0.00    +0.000 A 
ATOM     28  C   UNL     1      -2.126  10.184  16.460  0.00  0.00    +0.000 A 
ATOM     29  C   UNL     1      -3.251  10.437  15.685  0.00  0.00    +0.000 A 
ATOM     30  C   UNL     1      -3.326   9.965  14.263  0.00  0.00    +0.000 C 
ATOM     31  C   UNL     1      -4.309  11.143  16.266  0.00  0.00    +0.000 A 
ATOM     32  C   UNL     1      -4.243  11.628  17.594  0.00  0.00    +0.000 A 
ATOM     33  C   UNL     1      -5.439  12.373  18.124  0.00  0.00    +0.000 C 
ENDBRANCH  24  26
ENDBRANCH   2  22
TORSDOF 5
ENDMDL
MODEL 6
REMARK VINA RESULT:      -6.0      2.623      5.150
REMARK  Name = 
REMARK  10 active torsions:
REMARK  status: ('A' for Active; 'I' for Inactive)
REMARK    1  A    between atoms: C_1  and  O_2
REMARK    2  A    between atoms: O_2  and  C_3
REMARK    3  A    between atoms: C_7  and  C_8
REMARK    4  A    between atoms: C_9  and  C_10
REMARK    5  A    between atoms: N_12  and  C_13
REMARK    6  A    between atoms: C_16  and  C_17
REMARK    7  A    between atoms: C_19  and  C_20
REMARK    8  A    between atoms: C_21  and  C_22
REMARK    9  A    between atoms: C_29  and  O_30
REMARK   10  A    between atoms: O_30  and  C_31
REMARK                            x       y       z     vdW  Elec       q    Type
REMARK                         _______ _______ _______ _____ _____    ______ ____
ROOT
ATOM      1  C   UNL     1      -4.338  12.731  21.124  0.00  0.00    +0.000 C 
ATOM      2  C   UNL     1      -3.676  12.336  19.783  0.00  0.00    +0.000 C 
ATOM      3  C   UNL     1      -4.429  11.834  18.768  0.00  0.00    +0.000 C 
ATOM      4  C   UNL     1      -3.952  11.484  17.384  0.00  0.00    +0.000 C 
ATOM      5  N   UNL     1      -5.791  11.594  18.966  0.00  0.00    +0.000 N 
ATOM      6  C   UNL     1      -6.417  11.752  20.151  0.00  0.00    +0.000 A 
ATOM      7  N   UNL     1      -7.639  11.466  20.529  0.00  0.00    +0.000 NA
ATOM      8  C   UNL     1      -7.633  11.818  21.856  0.00  0.00    +0.000 A 
ATOM      9  N   UNL     1      -6.475  12.291  22.331  0.00  0.00    +0.000 NA
ATOM     10  N   UNL     1      -5.730  12.287  21.202  0.00  0.00    +0.000 N 
ATOM     11  H   UNL     1      -6.326  11.211  18.197  0.00  0.00    +0.000 HD
ENDROOT
BRANCH   1  16
ATOM     12  C   UNL     1      -3.640  16.150  22.767  0.00  0.00    +0.000 A 
ATOM     13  C   UNL     1      -4.210  17.005  21.814  0.00  0.00    +0.000 A 
ATOM     14  C   UNL     1      -4.831  16.494  20.677  0.00  0.00    +0.000 A 
ATOM     15  C   UNL     1      -4.870  15.119  20.468  0.00  0.00    +0.000 A 
ATOM     16  C   UNL     1      -4.255  14.245  21.381  0.00  0.00    +0.000 A 
ATOM     17  C   UNL     1      -3.607  14.765  22.525  0.00  0.00    +0.000 A 
BRANCH  12  19
ATOM     18  C   UNL     1      -3.980  16.801  25.009  0.00  0.00    +0.000 C 
ATOM     19  O   UNL     1      -3.080  16.646  23.913  0.00  0.00    +0.000 OA
ENDBRANCH  12  19
BRANCH  17  20
ATOM     20  O   UNL     1      -2.995  13.815  23.287  0.00  0.00    +0.000 OA
ATOM     21  C   UNL     1      -1.591  13.756  23.432  0.00  0.00    +0.000 C 
ENDBRANCH  17  20
ENDBRANCH   1  16
BRANCH   2  22
ATOM     22  C   UNL     1      -2.193  12.531  19.857  0.00  0.00    +0.000 C 
ATOM     23  O   UNL     1      -1.580  11.772  20.607  0.00  0.00    +0.000 OA
ATOM     24  N   UNL     1      -1.639  13.587  19.162  0.00  0.00    +0.000 N 
ATOM     25  H   UNL     1      -2.273  14.230  18.711  0.00  0.00    +0.000 HD
BRANCH  24  26
ATOM     26  C   UNL     1      -0.250  13.913  19.108  0.00  0.00    +0.000 A 
ATOM     27  C   UNL     1       0.664  13.122  18.398  0.00  0.00    +0.000 A 
ATOM     28  C   UNL     1       2.030  13.412  18.367  0.00  0.00    +0.000 A 
ATOM     29  C   UNL     1       2.531  14.525  19.030  0.00  0.00    +0.000 A 
ATOM     30  C   UNL     1       3.999  14.833  19.012  0.00  0.00    +0.000 C 
ATOM     31  C   UNL     1       1.631  15.349  19.712  0.00  0.00    +0.000 A 
ATOM     32  C   UNL     1       0.247  15.056  19.770  0.00  0.00    +0.000 A 
ATOM     33  C   UNL     1      -0.636  16.011  20.529  0.00  0.00    +0.000 C 
ENDBRANCH  24  26
ENDBRANCH   2  22
TORSDOF 5
ENDMDL
MODEL 7
REMARK VINA RESULT:      -6.0      3.313      5.602
REMARK  Name = 
REMARK  10 active torsions:
REMARK  status: ('A' for Active; 'I' for Inactive)
REMARK    1  A    between atoms: C_1  and  O_2
REMARK    2  A    between atoms: O_2  and  C_3
REMARK    3  A    between atoms: C_7  and  C_8
REMARK    4  A    between atoms: C_9  and  C_10
REMARK    5  A    between atoms: N_12  and  C_13
REMARK    6  A    between atoms: C_16  and  C_17
REMARK    7  A    between atoms: C_19  and  C_20
REMARK    8  A    between atoms: C_21  and  C_22
REMARK    9  A    between atoms: C_29  and  O_30
REMARK   10  A    between atoms: O_30  and  C_31
REMARK                            x       y       z     vdW  Elec       q    Type
REMARK                         _______ _______ _______ _____ _____    ______ ____
ROOT
ATOM      1  C   UNL     1      -0.366  11.663  19.460  0.00  0.00    +0.000 C 
ATOM      2  C   UNL     1      -0.433  10.942  20.827  0.00  0.00    +0.000 C 
ATOM      3  C   UNL     1      -0.729  11.640  21.955  0.00  0.00    +0.000 C 
ATOM      4  C   UNL     1      -0.914  11.074  23.339  0.00  0.00    +0.000 C 
ATOM      5  N   UNL     1      -0.888  13.026  21.894  0.00  0.00    +0.000 N 
ATOM      6  C   UNL     1      -0.684  13.758  20.779  0.00  0.00    +0.000 A 
ATOM      7  N   UNL     1      -0.677  15.053  20.583  0.00  0.00    +0.000 NA
ATOM      8  C   UNL     1      -0.361  15.153  19.250  0.00  0.00    +0.000 A 
ATOM      9  N   UNL     1      -0.154  13.998  18.609  0.00  0.00    +0.000 NA
ATOM     10  N   UNL     1      -0.421  13.119  19.602  0.00  0.00    +0.000 N 
ATOM     11  H   UNL     1      -1.099  13.522  22.751  0.00  0.00    +0.000 HD
ENDROOT
BRANCH   1  16
ATOM     12  C   UNL     1      -3.809  11.065  17.829  0.00  0.00    +0.000 A 
ATOM     13  C   UNL     1      -3.440  10.222  16.772  0.00  0.00    +0.000 A 
ATOM     14  C   UNL     1      -2.115   9.831  16.600  0.00  0.00    +0.000 A 
ATOM     15  C   UNL     1      -1.136  10.296  17.472  0.00  0.00    +0.000 A 
ATOM     16  C   UNL     1      -1.473  11.187  18.504  0.00  0.00    +0.000 A 
ATOM     17  C   UNL     1      -2.816  11.601  18.667  0.00  0.00    +0.000 A 
BRANCH  12  19
ATOM     18  C   UNL     1      -5.676  12.289  17.064  0.00  0.00    +0.000 C 
ATOM     19  O   UNL     1      -5.119  11.405  18.035  0.00  0.00    +0.000 OA
ENDBRANCH  12  19
BRANCH  17  20
ATOM     20  O   UNL     1      -2.990  12.518  19.661  0.00  0.00    +0.000 OA
ATOM     21  C   UNL     1      -4.129  12.516  20.496  0.00  0.00    +0.000 C 
ENDBRANCH  17  20
ENDBRANCH   1  16
BRANCH   2  22
ATOM     22  C   UNL     1      -0.072   9.497  20.671  0.00  0.00    +0.000 C 
ATOM     23  O   UNL     1      -0.889   8.683  21.098  0.00  0.00    +0.000 OA
ATOM     24  N   UNL     1       1.168   9.188  20.150  0.00  0.00    +0.000 N 
ATOM     25  H   UNL     1       1.806   9.952  19.985  0.00  0.00    +0.000 HD
BRANCH  24  26
ATOM     26  C   UNL     1       1.670   7.871  19.919  0.00  0.00    +0.000 A 
ATOM     27  C   UNL     1       1.526   6.852  20.871  0.00  0.00    +0.000 A 
ATOM     28  C   UNL     1       2.043   5.570  20.671  0.00  0.00    +0.000 A 
ATOM     29  C   UNL     1       2.706   5.253  19.492  0.00  0.00    +0.000 A 
ATOM     30  C   UNL     1       3.277   3.882  19.278  0.00  0.00    +0.000 C 
ATOM     31  C   UNL     1       2.827   6.244  18.513  0.00  0.00    +0.000 A 
ATOM     32  C   UNL     1       2.327   7.554  18.711  0.00  0.00    +0.000 A 
ATOM     33  C   UNL     1       2.507   8.544  17.591  0.00  0.00    +0.000 C 
ENDBRANCH  24  26
ENDBRANCH   2  22
TORSDOF 5
ENDMDL
MODEL 8
REMARK VINA RESULT:      -6.0      4.229      6.956
REMARK  Name = 
REMARK  10 active torsions:
REMARK  status: ('A' for Active; 'I' for Inactive)
REMARK    1  A    between atoms: C_1  and  O_2
REMARK    2  A    between atoms: O_2  and  C_3
REMARK    3  A    between atoms: C_7  and  C_8
REMARK    4  A    between atoms: C_9  and  C_10
REMARK    5  A    between atoms: N_12  and  C_13
REMARK    6  A    between atoms: C_16  and  C_17
REMARK    7  A    between atoms: C_19  and  C_20
REMARK    8  A    between atoms: C_21  and  C_22
REMARK    9  A    between atoms: C_29  and  O_30
REMARK   10  A    between atoms: O_30  and  C_31
REMARK                            x       y       z     vdW  Elec       q    Type
REMARK                         _______ _______ _______ _____ _____    ______ ____
ROOT
ATOM      1  C   UNL     1      -0.258  11.363  19.134  0.00  0.00    +0.000 C 
ATOM      2  C   UNL     1      -0.496  12.678  19.914  0.00  0.00    +0.000 C 
ATOM      3  C   UNL     1      -1.738  13.231  19.961  0.00  0.00    +0.000 C 
ATOM      4  C   UNL     1      -2.148  14.452  20.740  0.00  0.00    +0.000 C 
ATOM      5  N   UNL     1      -2.782  12.658  19.232  0.00  0.00    +0.000 N 
ATOM      6  C   UNL     1      -2.629  11.611  18.395  0.00  0.00    +0.000 A 
ATOM      7  N   UNL     1      -3.464  11.036  17.564  0.00  0.00    +0.000 NA
ATOM      8  C   UNL     1      -2.686  10.069  16.977  0.00  0.00    +0.000 A 
ATOM      9  N   UNL     1      -1.411  10.019  17.379  0.00  0.00    +0.000 NA
ATOM     10  N   UNL     1      -1.418  10.983  18.327  0.00  0.00    +0.000 N 
ATOM     11  H   UNL     1      -3.694  13.095  19.277  0.00  0.00    +0.000 HD
ENDROOT
BRANCH   1  16
ATOM     12  C   UNL     1       1.420   8.199  20.564  0.00  0.00    +0.000 A 
ATOM     13  C   UNL     1       0.738   8.084  21.783  0.00  0.00    +0.000 A 
ATOM     14  C   UNL     1      -0.262   8.990  22.129  0.00  0.00    +0.000 A 
ATOM     15  C   UNL     1      -0.577  10.037  21.269  0.00  0.00    +0.000 A 
ATOM     16  C   UNL     1       0.133  10.205  20.068  0.00  0.00    +0.000 A 
ATOM     17  C   UNL     1       1.162   9.297  19.726  0.00  0.00    +0.000 A 
BRANCH  12  19
ATOM     18  C   UNL     1       1.993   5.915  20.407  0.00  0.00    +0.000 C 
ATOM     19  O   UNL     1       2.362   7.277  20.196  0.00  0.00    +0.000 OA
ENDBRANCH  12  19
BRANCH  17  20
ATOM     20  O   UNL     1       1.814   9.617  18.572  0.00  0.00    +0.000 OA
ATOM     21  C   UNL     1       2.059   8.665  17.557  0.00  0.00    +0.000 C 
ENDBRANCH  17  20
ENDBRANCH   1  16
BRANCH   2  22
ATOM     22  C   UNL     1       0.793  13.190  20.477  0.00  0.00    +0.000 C 
ATOM     23  O   UNL     1       0.880  13.216  21.704  0.00  0.00    +0.000 OA
ATOM     24  N   UNL     1       1.742  13.672  19.598  0.00  0.00    +0.000 N 
ATOM     25  H   UNL     1       1.482  13.740  18.625  0.00  0.00    +0.000 HD
BRANCH  24  26
ATOM     26  C   UNL     1       3.026  14.183  19.956  0.00  0.00    +0.000 A 
ATOM     27  C   UNL     1       3.589  13.940  21.217  0.00  0.00    +0.000 A 
ATOM     28  C   UNL     1       4.829  14.463  21.590  0.00  0.00    +0.000 A 
ATOM     29  C   UNL     1       5.568  15.233  20.700  0.00  0.00    +0.000 A 
ATOM     30  C   UNL     1       6.894  15.809  21.101  0.00  0.00    +0.000 C 
ATOM     31  C   UNL     1       5.042  15.454  19.423  0.00  0.00    +0.000 A 
ATOM     32  C   UNL     1       3.777  14.949  19.039  0.00  0.00    +0.000 A 
ATOM     33  C   UNL     1       3.307  15.242  17.639  0.00  0.00    +0.000 C 
ENDBRANCH  24  26
ENDBRANCH   2  22
TORSDOF 5
ENDMDL
MODEL 9
REMARK VINA RESULT:      -6.0      3.398      5.264
REMARK  Name = 
REMARK  10 active torsions:
REMARK  status: ('A' for Active; 'I' for Inactive)
REMARK    1  A    between atoms: C_1  and  O_2
REMARK    2  A    between atoms: O_2  and  C_3
REMARK    3  A    between atoms: C_7  and  C_8
REMARK    4  A    between atoms: C_9  and  C_10
REMARK    5  A    between atoms: N_12  and  C_13
REMARK    6  A    between atoms: C_16  and  C_17
REMARK    7  A    between atoms: C_19  and  C_20
REMARK    8  A    between atoms: C_21  and  C_22
REMARK    9  A    between atoms: C_29  and  O_30
REMARK   10  A    between atoms: O_30  and  C_31
REMARK                            x       y       z     vdW  Elec       q    Type
REMARK                         _______ _______ _______ _____ _____    ______ ____
ROOT
ATOM      1  C   UNL     1      -2.282  13.308  22.160  0.00  0.00    +0.000 C 
ATOM      2  C   UNL     1      -1.443  14.360  22.923  0.00  0.00    +0.000 C 
ATOM      3  C   UNL     1      -1.856  14.819  24.134  0.00  0.00    +0.000 C 
ATOM      4  C   UNL     1      -1.116  15.772  25.034  0.00  0.00    +0.000 C 
ATOM      5  N   UNL     1      -3.085  14.404  24.652  0.00  0.00    +0.000 N 
ATOM      6  C   UNL     1      -3.957  13.620  23.984  0.00  0.00    +0.000 A 
ATOM      7  N   UNL     1      -5.178  13.241  24.272  0.00  0.00    +0.000 NA
ATOM      8  C   UNL     1      -5.531  12.501  23.171  0.00  0.00    +0.000 A 
ATOM      9  N   UNL     1      -4.609  12.412  22.206  0.00  0.00    +0.000 NA
ATOM     10  N   UNL     1      -3.591  13.094  22.779  0.00  0.00    +0.000 N 
ATOM     11  H   UNL     1      -3.373  14.768  25.552  0.00  0.00    +0.000 HD
ENDROOT
BRANCH   1  16
ATOM     12  C   UNL     1      -0.535  10.202  20.686  0.00  0.00    +0.000 A 
ATOM     13  C   UNL     1      -0.259   9.490  21.861  0.00  0.00    +0.000 A 
ATOM     14  C   UNL     1      -0.649   9.985  23.103  0.00  0.00    +0.000 A 
ATOM     15  C   UNL     1      -1.303  11.210  23.187  0.00  0.00    +0.000 A 
ATOM     16  C   UNL     1      -1.539  11.967  22.028  0.00  0.00    +0.000 A 
ATOM     17  C   UNL     1      -1.125  11.475  20.768  0.00  0.00    +0.000 A 
BRANCH  12  19
ATOM     18  C   UNL     1       1.191   9.489  19.243  0.00  0.00    +0.000 C 
ATOM     19  O   UNL     1      -0.205   9.691  19.459  0.00  0.00    +0.000 OA
ENDBRANCH  12  19
BRANCH  17  20
ATOM     20  O   UNL     1      -1.354  12.340  19.739  0.00  0.00    +0.000 OA
ATOM     21  C   UNL     1      -2.346  12.102  18.763  0.00  0.00    +0.000 C 
ENDBRANCH  17  20
ENDBRANCH   1  16
BRANCH   2  22
ATOM     22  C   UNL     1      -0.257  14.771  22.106  0.00  0.00    +0.000 C 
ATOM     23  O   UNL     1       0.807  14.890  22.711  0.00  0.00    +0.000 OA
ATOM     24  N   UNL     1      -0.457  15.070  20.773  0.00  0.00    +0.000 N 
ATOM     25  H   UNL     1      -1.409  15.084  20.438  0.00  0.00    +0.000 HD
BRANCH  24  26
ATOM     26  C   UNL     1       0.556  15.463  19.847  0.00  0.00    +0.000 A 
ATOM     27  C   UNL     1       1.415  14.527  19.255  0.00  0.00    +0.000 A 
ATOM     28  C   UNL     1       2.431  14.904  18.373  0.00  0.00    +0.000 A 
ATOM     29  C   UNL     1       2.610  16.239  18.032  0.00  0.00    +0.000 A 
ATOM     30  C   UNL     1       3.709  16.651  17.097  0.00  0.00    +0.000 C 
ATOM     31  C   UNL     1       1.738  17.185  18.581  0.00  0.00    +0.000 A 
ATOM     32  C   UNL     1       0.718  16.820  19.492  0.00  0.00    +0.000 A 
ATOM     33  C   UNL     1      -0.167  17.916  20.021  0.00  0.00    +0.000 C 
ENDBRANCH  24  26
ENDBRANCH   2  22
TORSDOF 5
ENDMDL
