MODEL 1
REMARK VINA RESULT:      -6.5      0.000      0.000
REMARK  Name = 
REMARK  3 active torsions:
REMARK  status: ('A' for Active; 'I' for Inactive)
REMARK    1  A    between atoms: C_2  and  C_3
REMARK    2  A    between atoms: C_14  and  C_16
REMARK    3  A    between atoms: C_18  and  O_19
REMARK                            x       y       z     vdW  Elec       q    Type
REMARK                         _______ _______ _______ _____ _____    ______ ____
ROOT
ATOM      1  O   UNL     1       1.227   5.819  21.015  0.00  0.00    +0.000 OA
ATOM      2  C   UNL     1       1.902   6.190  20.055  0.00  0.00    +0.000 C 
ATOM      3  N   UNL     1       2.057   7.541  19.727  0.00  0.00    +0.000 N 
ATOM      4  C   UNL     1       2.723   8.084  18.523  0.00  0.00    +0.000 C 
ATOM      5  C   UNL     1       1.870   9.124  17.800  0.00  0.00    +0.000 C 
ATOM      6  N   UNL     1       1.392  10.138  18.733  0.00  0.00    +0.000 N 
ATOM      7  C   UNL     1       1.769  11.466  18.518  0.00  0.00    +0.000 C 
ATOM      8  O   UNL     1       2.453  11.749  17.532  0.00  0.00    +0.000 OA
ATOM      9  C   UNL     1       0.614   9.558  19.840  0.00  0.00    +0.000 C 
ATOM     10  C   UNL     1       1.488   8.560  20.623  0.00  0.00    +0.000 C 
ENDROOT
BRANCH   2  11
ATOM     11  C   UNL     1       2.521   5.134  19.204  0.00  0.00    +0.000 A 
ATOM     12  C   UNL     1       3.815   4.693  19.519  0.00  0.00    +0.000 A 
ATOM     13  C   UNL     1       4.391   3.640  18.800  0.00  0.00    +0.000 A 
ATOM     14  C   UNL     1       3.666   3.025  17.786  0.00  0.00    +0.000 A 
ATOM     15  F   UNL     1       4.190   1.978  17.137  0.00  0.00    +0.000 F 
ATOM     16  C   UNL     1       2.404   3.486  17.430  0.00  0.00    +0.000 A 
ATOM     17  C   UNL     1       1.856   4.576  18.104  0.00  0.00    +0.000 A 
ENDBRANCH   2  11
BRANCH   7  18
ATOM     18  C   UNL     1       1.334  12.496  19.449  0.00  0.00    +0.000 A 
ATOM     19  C   UNL     1       1.951  13.045  20.559  0.00  0.00    +0.000 A 
ATOM     20  C   UNL     1       1.111  13.962  21.232  0.00  0.00    +0.000 A 
ATOM     21  C   UNL     1      -0.062  14.210  20.565  0.00  0.00    +0.000 A 
ATOM     22  S   UNL     1      -0.173  13.275  19.140  0.00  0.00    +0.000 S 
BRANCH  20  23
ATOM     23  O   UNL     1       1.383  14.563  22.404  0.00  0.00    +0.000 OA
ATOM     24  H   UNL     1       2.166  15.130  22.320  0.00  0.00    +0.000 HD
ENDBRANCH  20  23
ENDBRANCH   7  18
TORSDOF 3
ENDMDL
MODEL 2
REMARK VINA RESULT:      -6.4      2.792      3.633
REMARK  Name = 
REMARK  3 active torsions:
REMARK  status: ('A' for Active; 'I' for Inactive)
REMARK    1  A    between atoms: C_2  and  C_3
REMARK    2  A    between atoms: C_14  and  C_16
REMARK    3  A    between atoms: C_18  and  O_19
REMARK                            x       y       z     vdW  Elec       q    Type
REMARK                         _______ _______ _______ _____ _____    ______ ____
ROOT
ATOM      1  O   UNL     1       4.128   3.914  19.135  0.00  0.00    +0.000 OA
ATOM      2  C   UNL     1       4.339   4.892  18.417  0.00  0.00    +0.000 C 
ATOM      3  N   UNL     1       3.782   6.148  18.684  0.00  0.00    +0.000 N 
ATOM      4  C   UNL     1       3.853   7.344  17.816  0.00  0.00    +0.000 C 
ATOM      5  C   UNL     1       2.487   7.989  17.592  0.00  0.00    +0.000 C 
ATOM      6  N   UNL     1       1.804   8.205  18.864  0.00  0.00    +0.000 N 
ATOM      7  C   UNL     1       1.473   9.514  19.223  0.00  0.00    +0.000 C 
ATOM      8  O   UNL     1       1.726  10.437  18.445  0.00  0.00    +0.000 OA
ATOM      9  C   UNL     1       1.633   6.958  19.627  0.00  0.00    +0.000 C 
ATOM     10  C   UNL     1       3.011   6.335  19.922  0.00  0.00    +0.000 C 
ENDROOT
BRANCH   2  11
ATOM     11  C   UNL     1       5.179   4.684  17.205  0.00  0.00    +0.000 A 
ATOM     12  C   UNL     1       4.545   4.345  16.000  0.00  0.00    +0.000 A 
ATOM     13  C   UNL     1       5.292   4.232  14.822  0.00  0.00    +0.000 A 
ATOM     14  C   UNL     1       6.660   4.474  14.852  0.00  0.00    +0.000 A 
ATOM     15  F   UNL     1       7.367   4.426  13.717  0.00  0.00    +0.000 F 
ATOM     16  C   UNL     1       7.309   4.758  16.048  0.00  0.00    +0.000 A 
ATOM     17  C   UNL     1       6.575   4.809  17.232  0.00  0.00    +0.000 A 
ENDBRANCH   2  11
BRANCH   7  18
ATOM     18  C   UNL     1       0.820   9.766  20.498  0.00  0.00    +0.000 A 
ATOM     19  C   UNL     1       1.091   9.300  21.772  0.00  0.00    +0.000 A 
ATOM     20  C   UNL     1       0.127   9.734  22.711  0.00  0.00    +0.000 A 
ATOM     21  C   UNL     1      -0.773  10.627  22.186  0.00  0.00    +0.000 A 
ATOM     22  S   UNL     1      -0.484  10.895  20.525  0.00  0.00    +0.000 S 
BRANCH  20  23
ATOM     23  O   UNL     1       0.053   9.349  23.997  0.00  0.00    +0.000 OA
ATOM     24  H   UNL     1      -0.620   9.868  24.467  0.00  0.00    +0.000 HD
ENDBRANCH  20  23
ENDBRANCH   7  18
TORSDOF 3
ENDMDL
MODEL 3
REMARK VINA RESULT:      -6.4      2.611      3.642
REMARK  Name = 
REMARK  3 active torsions:
REMARK  status: ('A' for Active; 'I' for Inactive)
REMARK    1  A    between atoms: C_2  and  C_3
REMARK    2  A    between atoms: C_14  and  C_16
REMARK    3  A    between atoms: C_18  and  O_19
REMARK                            x       y       z     vdW  Elec       q    Type
REMARK                         _______ _______ _______ _____ _____    ______ ____
ROOT
ATOM      1  O   UNL     1       2.259   9.163  17.270  0.00  0.00    +0.000 OA
ATOM      2  C   UNL     1       2.052   8.580  18.334  0.00  0.00    +0.000 C 
ATOM      3  N   UNL     1       1.231   9.116  19.332  0.00  0.00    +0.000 N 
ATOM      4  C   UNL     1       1.031   8.571  20.693  0.00  0.00    +0.000 C 
ATOM      5  C   UNL     1       1.203   9.630  21.780  0.00  0.00    +0.000 C 
ATOM      6  N   UNL     1       0.403  10.813  21.479  0.00  0.00    +0.000 N 
ATOM      7  C   UNL     1      -0.589  11.189  22.388  0.00  0.00    +0.000 C 
ATOM      8  O   UNL     1      -0.732  10.544  23.430  0.00  0.00    +0.000 OA
ATOM      9  C   UNL     1       0.740  11.400  20.172  0.00  0.00    +0.000 C 
ATOM     10  C   UNL     1       0.501  10.363  19.059  0.00  0.00    +0.000 C 
ENDROOT
BRANCH   2  11
ATOM     11  C   UNL     1       2.756   7.285  18.554  0.00  0.00    +0.000 A 
ATOM     12  C   UNL     1       3.832   6.956  17.714  0.00  0.00    +0.000 A 
ATOM     13  C   UNL     1       4.573   5.794  17.949  0.00  0.00    +0.000 A 
ATOM     14  C   UNL     1       4.248   4.978  19.026  0.00  0.00    +0.000 A 
ATOM     15  F   UNL     1       4.993   3.898  19.289  0.00  0.00    +0.000 F 
ATOM     16  C   UNL     1       3.154   5.264  19.834  0.00  0.00    +0.000 A 
ATOM     17  C   UNL     1       2.376   6.389  19.562  0.00  0.00    +0.000 A 
ENDBRANCH   2  11
BRANCH   7  18
ATOM     18  C   UNL     1      -1.425  12.345  22.102  0.00  0.00    +0.000 A 
ATOM     19  C   UNL     1      -2.481  12.516  21.225  0.00  0.00    +0.000 A 
ATOM     20  C   UNL     1      -2.943  13.852  21.206  0.00  0.00    +0.000 A 
ATOM     21  C   UNL     1      -2.343  14.644  22.153  0.00  0.00    +0.000 A 
ATOM     22  S   UNL     1      -1.166  13.774  23.032  0.00  0.00    +0.000 S 
BRANCH  20  23
ATOM     23  O   UNL     1      -3.872  14.350  20.372  0.00  0.00    +0.000 OA
ATOM     24  H   UNL     1      -4.125  13.686  19.711  0.00  0.00    +0.000 HD
ENDBRANCH  20  23
ENDBRANCH   7  18
TORSDOF 3
ENDMDL
MODEL 4
REMARK VINA RESULT:      -6.3      4.432      8.311
REMARK  Name = 
REMARK  3 active torsions:
REMARK  status: ('A' for Active; 'I' for Inactive)
REMARK    1  A    between atoms: C_2  and  C_3
REMARK    2  A    between atoms: C_14  and  C_16
REMARK    3  A    between atoms: C_18  and  O_19
REMARK                            x       y       z     vdW  Elec       q    Type
REMARK                         _______ _______ _______ _____ _____    ______ ____
ROOT
ATOM      1  O   UNL     1       0.920   9.941  18.113  0.00  0.00    +0.000 OA
ATOM      2  C   UNL     1       1.238   9.299  19.114  0.00  0.00    +0.000 C 
ATOM      3  N   UNL     1       2.175   8.260  19.069  0.00  0.00    +0.000 N 
ATOM      4  C   UNL     1       2.521   7.340  20.174  0.00  0.00    +0.000 C 
ATOM      5  C   UNL     1       2.488   5.873  19.749  0.00  0.00    +0.000 C 
ATOM      6  N   UNL     1       3.263   5.672  18.529  0.00  0.00    +0.000 N 
ATOM      7  C   UNL     1       4.357   4.804  18.577  0.00  0.00    +0.000 C 
ATOM      8  O   UNL     1       4.609   4.205  19.625  0.00  0.00    +0.000 OA
ATOM      9  C   UNL     1       2.787   6.511  17.418  0.00  0.00    +0.000 C 
ATOM     10  C   UNL     1       2.885   7.998  17.808  0.00  0.00    +0.000 C 
ENDROOT
BRANCH   2  11
ATOM     11  C   UNL     1       0.547   9.634  20.391  0.00  0.00    +0.000 A 
ATOM     12  C   UNL     1       0.371  10.986  20.723  0.00  0.00    +0.000 A 
ATOM     13  C   UNL     1      -0.354  11.338  21.866  0.00  0.00    +0.000 A 
ATOM     14  C   UNL     1      -0.910  10.342  22.659  0.00  0.00    +0.000 A 
ATOM     15  F   UNL     1      -1.655  10.676  23.720  0.00  0.00    +0.000 F 
ATOM     16  C   UNL     1      -0.699   8.998  22.372  0.00  0.00    +0.000 A 
ATOM     17  C   UNL     1       0.077   8.647  21.268  0.00  0.00    +0.000 A 
ENDBRANCH   2  11
BRANCH   7  18
ATOM     18  C   UNL     1       5.170   4.607  17.387  0.00  0.00    +0.000 A 
ATOM     19  C   UNL     1       4.920   3.920  16.212  0.00  0.00    +0.000 A 
ATOM     20  C   UNL     1       6.044   3.910  15.355  0.00  0.00    +0.000 A 
ATOM     21  C   UNL     1       7.076   4.693  15.809  0.00  0.00    +0.000 A 
ATOM     22  S   UNL     1       6.700   5.399  17.317  0.00  0.00    +0.000 S 
BRANCH  20  23
ATOM     23  O   UNL     1       6.148   3.226  14.202  0.00  0.00    +0.000 OA
ATOM     24  H   UNL     1       7.028   3.353  13.811  0.00  0.00    +0.000 HD
ENDBRANCH  20  23
ENDBRANCH   7  18
TORSDOF 3
ENDMDL
MODEL 5
REMARK VINA RESULT:      -6.3      1.553      1.610
REMARK  Name = 
REMARK  3 active torsions:
REMARK  status: ('A' for Active; 'I' for Inactive)
REMARK    1  A    between atoms: C_2  and  C_3
REMARK    2  A    between atoms: C_14  and  C_16
REMARK    3  A    between atoms: C_18  and  O_19
REMARK                            x       y       z     vdW  Elec       q    Type
REMARK                         _______ _______ _______ _____ _____    ______ ____
ROOT
ATOM      1  O   UNL     1       1.615   5.712  21.025  0.00  0.00    +0.000 OA
ATOM      2  C   UNL     1       2.066   6.398  20.107  0.00  0.00    +0.000 C 
ATOM      3  N   UNL     1       1.788   7.764  19.990  0.00  0.00    +0.000 N 
ATOM      4  C   UNL     1       2.158   8.643  18.859  0.00  0.00    +0.000 C 
ATOM      5  C   UNL     1       0.978   9.465  18.343  0.00  0.00    +0.000 C 
ATOM      6  N   UNL     1       0.305  10.147  19.443  0.00  0.00    +0.000 N 
ATOM      7  C   UNL     1       0.255  11.543  19.423  0.00  0.00    +0.000 C 
ATOM      8  O   UNL     1       0.738  12.153  18.466  0.00  0.00    +0.000 OA
ATOM      9  C   UNL     1      -0.169   9.212  20.476  0.00  0.00    +0.000 C 
ATOM     10  C   UNL     1       1.024   8.429  21.056  0.00  0.00    +0.000 C 
ENDROOT
BRANCH   2  11
ATOM     11  C   UNL     1       2.892   5.707  19.078  0.00  0.00    +0.000 A 
ATOM     12  C   UNL     1       4.289   5.766  19.188  0.00  0.00    +0.000 A 
ATOM     13  C   UNL     1       5.094   5.053  18.294  0.00  0.00    +0.000 A 
ATOM     14  C   UNL     1       4.501   4.275  17.308  0.00  0.00    +0.000 A 
ATOM     15  F   UNL     1       5.266   3.544  16.489  0.00  0.00    +0.000 F 
ATOM     16  C   UNL     1       3.119   4.249  17.153  0.00  0.00    +0.000 A 
ATOM     17  C   UNL     1       2.319   5.009  18.005  0.00  0.00    +0.000 A 
ENDBRANCH   2  11
BRANCH   7  18
ATOM     18  C   UNL     1      -0.381  12.255  20.521  0.00  0.00    +0.000 A 
ATOM     19  C   UNL     1       0.143  12.826  21.667  0.00  0.00    +0.000 A 
ATOM     20  C   UNL     1      -0.868  13.335  22.514  0.00  0.00    +0.000 A 
ATOM     21  C   UNL     1      -2.120  13.279  21.956  0.00  0.00    +0.000 A 
ATOM     22  S   UNL     1      -2.078  12.547  20.414  0.00  0.00    +0.000 S 
BRANCH  20  23
ATOM     23  O   UNL     1      -0.680  13.837  23.748  0.00  0.00    +0.000 OA
ATOM     24  H   UNL     1      -0.471  13.125  24.374  0.00  0.00    +0.000 HD
ENDBRANCH  20  23
ENDBRANCH   7  18
TORSDOF 3
ENDMDL
MODEL 6
REMARK VINA RESULT:      -6.3      0.719      1.233
REMARK  Name = 
REMARK  3 active torsions:
REMARK  status: ('A' for Active; 'I' for Inactive)
REMARK    1  A    between atoms: C_2  and  C_3
REMARK    2  A    between atoms: C_14  and  C_16
REMARK    3  A    between atoms: C_18  and  O_19
REMARK                            x       y       z     vdW  Elec       q    Type
REMARK                         _______ _______ _______ _____ _____    ______ ____
ROOT
ATOM      1  O   UNL     1       1.521   5.605  20.771  0.00  0.00    +0.000 OA
ATOM      2  C   UNL     1       2.188   6.129  19.879  0.00  0.00    +0.000 C 
ATOM      3  N   UNL     1       2.178   7.509  19.651  0.00  0.00    +0.000 N 
ATOM      4  C   UNL     1       2.826   8.220  18.527  0.00  0.00    +0.000 C 
ATOM      5  C   UNL     1       1.880   9.192  17.825  0.00  0.00    +0.000 C 
ATOM      6  N   UNL     1       1.225  10.064  18.793  0.00  0.00    +0.000 N 
ATOM      7  C   UNL     1       1.432  11.442  18.690  0.00  0.00    +0.000 C 
ATOM      8  O   UNL     1       2.121  11.882  17.766  0.00  0.00    +0.000 OA
ATOM      9  C   UNL     1       0.477   9.309  19.811  0.00  0.00    +0.000 C 
ATOM     10  C   UNL     1       1.435   8.377  20.577  0.00  0.00    +0.000 C 
ENDROOT
BRANCH   2  11
ATOM     11  C   UNL     1       2.983   5.226  18.999  0.00  0.00    +0.000 A 
ATOM     12  C   UNL     1       2.325   4.556  17.957  0.00  0.00    +0.000 A 
ATOM     13  C   UNL     1       3.055   3.774  17.055  0.00  0.00    +0.000 A 
ATOM     14  C   UNL     1       4.435   3.680  17.190  0.00  0.00    +0.000 A 
ATOM     15  F   UNL     1       5.143   2.982  16.294  0.00  0.00    +0.000 F 
ATOM     16  C   UNL     1       5.093   4.296  18.248  0.00  0.00    +0.000 A 
ATOM     17  C   UNL     1       4.358   5.023  19.183  0.00  0.00    +0.000 A 
ENDBRANCH   2  11
BRANCH   7  18
ATOM     18  C   UNL     1       0.819  12.336  19.659  0.00  0.00    +0.000 A 
ATOM     19  C   UNL     1       1.315  12.912  20.815  0.00  0.00    +0.000 A 
ATOM     20  C   UNL     1       0.325  13.646  21.508  0.00  0.00    +0.000 A 
ATOM     21  C   UNL     1      -0.857  13.742  20.819  0.00  0.00    +0.000 A 
ATOM     22  S   UNL     1      -0.786  12.884  19.344  0.00  0.00    +0.000 S 
BRANCH  20  23
ATOM     23  O   UNL     1       0.472  14.214  22.718  0.00  0.00    +0.000 OA
ATOM     24  H   UNL     1       0.715  13.546  23.379  0.00  0.00    +0.000 HD
ENDBRANCH  20  23
ENDBRANCH   7  18
TORSDOF 3
ENDMDL
MODEL 7
REMARK VINA RESULT:      -6.2      1.551      1.872
REMARK  Name = 
REMARK  3 active torsions:
REMARK  status: ('A' for Active; 'I' for Inactive)
REMARK    1  A    between atoms: C_2  and  C_3
REMARK    2  A    between atoms: C_14  and  C_16
REMARK    3  A    between atoms: C_18  and  O_19
REMARK                            x       y       z     vdW  Elec       q    Type
REMARK                         _______ _______ _______ _____ _____    ______ ____
ROOT
ATOM      1  O   UNL     1       1.601   5.692  21.133  0.00  0.00    +0.000 OA
ATOM      2  C   UNL     1       2.052   6.354  20.198  0.00  0.00    +0.000 C 
ATOM      3  N   UNL     1       1.783   7.719  20.051  0.00  0.00    +0.000 N 
ATOM      4  C   UNL     1       2.155   8.570  18.899  0.00  0.00    +0.000 C 
ATOM      5  C   UNL     1       0.979   9.389  18.371  0.00  0.00    +0.000 C 
ATOM      6  N   UNL     1       0.316  10.100  19.458  0.00  0.00    +0.000 N 
ATOM      7  C   UNL     1       0.276  11.496  19.408  0.00  0.00    +0.000 C 
ATOM      8  O   UNL     1       0.759  12.081  18.435  0.00  0.00    +0.000 OA
ATOM      9  C   UNL     1      -0.160   9.193  20.514  0.00  0.00    +0.000 C 
ATOM     10  C   UNL     1       1.030   8.413  21.106  0.00  0.00    +0.000 C 
ENDROOT
BRANCH   2  11
ATOM     11  C   UNL     1       2.868   5.634  19.180  0.00  0.00    +0.000 A 
ATOM     12  C   UNL     1       2.207   4.833  18.236  0.00  0.00    +0.000 A 
ATOM     13  C   UNL     1       2.932   4.217  17.210  0.00  0.00    +0.000 A 
ATOM     14  C   UNL     1       4.304   4.416  17.124  0.00  0.00    +0.000 A 
ATOM     15  F   UNL     1       4.991   3.877  16.110  0.00  0.00    +0.000 F 
ATOM     16  C   UNL     1       4.979   5.163  18.083  0.00  0.00    +0.000 A 
ATOM     17  C   UNL     1       4.266   5.726  19.141  0.00  0.00    +0.000 A 
ENDBRANCH   2  11
BRANCH   7  18
ATOM     18  C   UNL     1      -0.349  12.237  20.493  0.00  0.00    +0.000 A 
ATOM     19  C   UNL     1       0.178  12.793  21.644  0.00  0.00    +0.000 A 
ATOM     20  C   UNL     1      -0.825  13.344  22.474  0.00  0.00    +0.000 A 
ATOM     21  C   UNL     1      -2.069  13.334  21.895  0.00  0.00    +0.000 A 
ATOM     22  S   UNL     1      -2.032  12.594  20.357  0.00  0.00    +0.000 S 
BRANCH  20  23
ATOM     23  O   UNL     1      -0.638  13.844  23.708  0.00  0.00    +0.000 OA
ATOM     24  H   UNL     1       0.086  14.491  23.705  0.00  0.00    +0.000 HD
ENDBRANCH  20  23
ENDBRANCH   7  18
TORSDOF 3
ENDMDL
MODEL 8
REMARK VINA RESULT:      -6.2      4.373      8.296
REMARK  Name = 
REMARK  3 active torsions:
REMARK  status: ('A' for Active; 'I' for Inactive)
REMARK    1  A    between atoms: C_2  and  C_3
REMARK    2  A    between atoms: C_14  and  C_16
REMARK    3  A    between atoms: C_18  and  O_19
REMARK                            x       y       z     vdW  Elec       q    Type
REMARK                         _______ _______ _______ _____ _____    ______ ____
ROOT
ATOM      1  O   UNL     1       1.037  10.125  18.065  0.00  0.00    +0.000 OA
ATOM      2  C   UNL     1       1.210   9.436  19.070  0.00  0.00    +0.000 C 
ATOM      3  N   UNL     1       2.081   8.341  19.084  0.00  0.00    +0.000 N 
ATOM      4  C   UNL     1       2.254   7.369  20.186  0.00  0.00    +0.000 C 
ATOM      5  C   UNL     1       2.175   5.921  19.709  0.00  0.00    +0.000 C 
ATOM      6  N   UNL     1       3.059   5.705  18.568  0.00  0.00    +0.000 N 
ATOM      7  C   UNL     1       4.087   4.767  18.696  0.00  0.00    +0.000 C 
ATOM      8  O   UNL     1       4.192   4.123  19.743  0.00  0.00    +0.000 OA
ATOM      9  C   UNL     1       2.753   6.604  17.444  0.00  0.00    +0.000 C 
ATOM     10  C   UNL     1       2.900   8.070  17.894  0.00  0.00    +0.000 C 
ENDROOT
BRANCH   2  11
ATOM     11  C   UNL     1       0.412   9.779  20.281  0.00  0.00    +0.000 A 
ATOM     12  C   UNL     1       0.247   8.801  21.274  0.00  0.00    +0.000 A 
ATOM     13  C   UNL     1      -0.417   9.116  22.464  0.00  0.00    +0.000 A 
ATOM     14  C   UNL     1      -0.895  10.406  22.662  0.00  0.00    +0.000 A 
ATOM     15  F   UNL     1      -1.478  10.726  23.824  0.00  0.00    +0.000 F 
ATOM     16  C   UNL     1      -0.785  11.369  21.666  0.00  0.00    +0.000 A 
ATOM     17  C   UNL     1      -0.179  11.038  20.455  0.00  0.00    +0.000 A 
ENDBRANCH   2  11
BRANCH   7  18
ATOM     18  C   UNL     1       5.005   4.551  17.588  0.00  0.00    +0.000 A 
ATOM     19  C   UNL     1       4.809   4.010  16.330  0.00  0.00    +0.000 A 
ATOM     20  C   UNL     1       6.018   3.905  15.605  0.00  0.00    +0.000 A 
ATOM     21  C   UNL     1       7.083   4.487  16.245  0.00  0.00    +0.000 A 
ATOM     22  S   UNL     1       6.626   5.112  17.767  0.00  0.00    +0.000 S 
BRANCH  20  23
ATOM     23  O   UNL     1       6.168   3.311  14.408  0.00  0.00    +0.000 OA
ATOM     24  H   UNL     1       6.632   3.902  13.793  0.00  0.00    +0.000 HD
ENDBRANCH  20  23
ENDBRANCH   7  18
TORSDOF 3
ENDMDL
MODEL 9
REMARK VINA RESULT:      -6.1      2.598      3.651
REMARK  Name = 
REMARK  3 active torsions:
REMARK  status: ('A' for Active; 'I' for Inactive)
REMARK    1  A    between atoms: C_2  and  C_3
REMARK    2  A    between atoms: C_14  and  C_16
REMARK    3  A    between atoms: C_18  and  O_19
REMARK                            x       y       z     vdW  Elec       q    Type
REMARK                         _______ _______ _______ _____ _____    ______ ____
ROOT
ATOM      1  O   UNL     1       2.259   9.254  17.299  0.00  0.00    +0.000 OA
ATOM      2  C   UNL     1       2.038   8.657  18.353  0.00  0.00    +0.000 C 
ATOM      3  N   UNL     1       1.206   9.181  19.348  0.00  0.00    +0.000 N 
ATOM      4  C   UNL     1       0.988   8.618  20.699  0.00  0.00    +0.000 C 
ATOM      5  C   UNL     1       1.151   9.661  21.802  0.00  0.00    +0.000 C 
ATOM      6  N   UNL     1       0.358  10.851  21.509  0.00  0.00    +0.000 N 
ATOM      7  C   UNL     1      -0.644  11.218  22.411  0.00  0.00    +0.000 C 
ATOM      8  O   UNL     1      -0.801  10.559  23.442  0.00  0.00    +0.000 OA
ATOM      9  C   UNL     1       0.713  11.455  20.214  0.00  0.00    +0.000 C 
ATOM     10  C   UNL     1       0.483  10.434  19.083  0.00  0.00    +0.000 C 
ENDROOT
BRANCH   2  11
ATOM     11  C   UNL     1       2.735   7.357  18.562  0.00  0.00    +0.000 A 
ATOM     12  C   UNL     1       2.390   6.583  19.681  0.00  0.00    +0.000 A 
ATOM     13  C   UNL     1       2.957   5.317  19.860  0.00  0.00    +0.000 A 
ATOM     14  C   UNL     1       3.850   4.826  18.915  0.00  0.00    +0.000 A 
ATOM     15  F   UNL     1       4.347   3.591  19.052  0.00  0.00    +0.000 F 
ATOM     16  C   UNL     1       4.241   5.602  17.830  0.00  0.00    +0.000 A 
ATOM     17  C   UNL     1       3.724   6.889  17.686  0.00  0.00    +0.000 A 
ENDBRANCH   2  11
BRANCH   7  18
ATOM     18  C   UNL     1      -1.472  12.380  22.131  0.00  0.00    +0.000 A 
ATOM     19  C   UNL     1      -2.552  12.551  21.284  0.00  0.00    +0.000 A 
ATOM     20  C   UNL     1      -2.996  13.893  21.256  0.00  0.00    +0.000 A 
ATOM     21  C   UNL     1      -2.359  14.691  22.172  0.00  0.00    +0.000 A 
ATOM     22  S   UNL     1      -1.167  13.820  23.030  0.00  0.00    +0.000 S 
BRANCH  20  23
ATOM     23  O   UNL     1      -3.944  14.391  20.442  0.00  0.00    +0.000 OA
ATOM     24  H   UNL     1      -3.561  14.623  19.580  0.00  0.00    +0.000 HD
ENDBRANCH  20  23
ENDBRANCH   7  18
TORSDOF 3
ENDMDL
