MODEL 1
REMARK VINA RESULT:      -7.1      0.000      0.000
REMARK  Name = 
REMARK  15 active torsions:
REMARK  status: ('A' for Active; 'I' for Inactive)
REMARK    1  A    between atoms: C_1  and  C_2
REMARK    2  A    between atoms: C_2  and  C_3
REMARK    3  A    between atoms: C_3  and  C_4
REMARK    4  A    between atoms: C_4  and  C_5
REMARK    5  A    between atoms: C_5  and  C_6
REMARK    6  A    between atoms: C_6  and  C_7
REMARK    7  A    between atoms: C_7  and  C_8
REMARK    8  A    between atoms: C_8  and  C_9
REMARK    9  A    between atoms: C_9  and  C_10
REMARK   10  A    between atoms: C_10  and  C_11
REMARK   11  A    between atoms: C_12  and  C_13
REMARK   12  A    between atoms: N_17  and  C1*_18
REMARK   13  A    between atoms: C3*_20  and  O3*_21
REMARK   14  A    between atoms: C4*_22  and  C5*_23
REMARK   15  A    between atoms: C5*_23  and  O5*_24
REMARK                            x       y       z     vdW  Elec       q    Type
REMARK                         _______ _______ _______ _____ _____    ______ ____
ROOT
ATOM      1  C   UNL     1       1.256   7.438  20.844  0.00  0.00    +0.000 A 
ATOM      2  C   UNL     1       2.082   7.721  19.834  0.00  0.00    +0.000 A 
ATOM      3  C   UNL     1       2.609   6.468  19.406  0.00  0.00    +0.000 A 
ATOM      4  C   UNL     1       3.497   6.048  18.504  0.00  0.00    +0.000 A 
ATOM      5  N   UNL     1       3.807   4.693  18.385  0.00  0.00    +0.000 N 
ATOM      6  C   UNL     1       3.161   3.728  19.210  0.00  0.00    +0.000 A 
ATOM      7  O   UNL     1       3.426   2.532  19.108  0.00  0.00    +0.000 OA
ATOM      8  N   UNL     1       2.231   4.157  20.149  0.00  0.00    +0.000 NA
ATOM      9  C   UNL     1       2.012   5.421  20.224  0.00  0.00    +0.000 A 
ATOM     10  O   UNL     1       1.153   6.035  21.125  0.00  0.00    +0.000 OA
ENDROOT
BRANCH   5  11
ATOM     11  C1* UNL     1       4.851   4.237  17.436  0.00  0.00    +0.000 C 
ATOM     12  C2* UNL     1       4.963   5.033  16.134  0.00  0.00    +0.000 C 
ATOM     13  C3* UNL     1       6.428   4.896  15.763  0.00  0.00    +0.000 C 
ATOM     14  C4* UNL     1       7.134   4.807  17.113  0.00  0.00    +0.000 C 
ATOM     15  O4* UNL     1       6.163   4.286  18.059  0.00  0.00    +0.000 OA
BRANCH  13  16
ATOM     16  O3* UNL     1       6.629   3.711  14.994  0.00  0.00    +0.000 OA
ATOM     17  H3* UNL     1       7.068   3.938  14.156  0.00  0.00    +0.000 HD
ENDBRANCH  13  16
BRANCH  14  18
ATOM     18  C5* UNL     1       7.640   6.181  17.587  0.00  0.00    +0.000 C 
BRANCH  18  19
ATOM     19  O5* UNL     1       7.228   7.240  16.728  0.00  0.00    +0.000 OA
ATOM     20  H5* UNL     1       6.277   7.391  16.866  0.00  0.00    +0.000 HD
ENDBRANCH  18  19
ENDBRANCH  14  18
ENDBRANCH   5  11
BRANCH   1  22
ATOM     21  C   UNL     1      -0.044   9.261  22.281  0.00  0.00    +0.000 C 
ATOM     22  C   UNL     1       0.534   8.421  21.644  0.00  0.00    +0.000 C 
BRANCH  21  23
ATOM     23  C   UNL     1      -0.753  10.334  23.058  0.00  0.00    +0.000 C 
BRANCH  23  24
ATOM     24  C   UNL     1      -1.104  11.562  22.204  0.00  0.00    +0.000 C 
BRANCH  24  25
ATOM     25  C   UNL     1       0.090  12.135  21.436  0.00  0.00    +0.000 C 
BRANCH  25  26
ATOM     26  C   UNL     1      -0.350  12.671  20.076  0.00  0.00    +0.000 C 
BRANCH  26  27
ATOM     27  C   UNL     1      -1.587  11.935  19.572  0.00  0.00    +0.000 C 
BRANCH  27  28
ATOM     28  C   UNL     1      -1.502  11.725  18.066  0.00  0.00    +0.000 C 
BRANCH  28  29
ATOM     29  C   UNL     1      -1.546  10.240  17.738  0.00  0.00    +0.000 C 
BRANCH  29  30
ATOM     30  C   UNL     1      -2.987   9.778  17.579  0.00  0.00    +0.000 C 
BRANCH  30  32
ATOM     31  C   UNL     1      -2.922  10.134  15.111  0.00  0.00    +0.000 C 
ATOM     32  C   UNL     1      -3.645  10.479  16.398  0.00  0.00    +0.000 C 
ENDBRANCH  30  32
ENDBRANCH  29  30
ENDBRANCH  28  29
ENDBRANCH  27  28
ENDBRANCH  26  27
ENDBRANCH  25  26
ENDBRANCH  24  25
ENDBRANCH  23  24
ENDBRANCH  21  23
ENDBRANCH   1  22
TORSDOF 14
ENDMDL
MODEL 2
REMARK VINA RESULT:      -6.9      7.347     10.755
REMARK  Name = 
REMARK  15 active torsions:
REMARK  status: ('A' for Active; 'I' for Inactive)
REMARK    1  A    between atoms: C_1  and  C_2
REMARK    2  A    between atoms: C_2  and  C_3
REMARK    3  A    between atoms: C_3  and  C_4
REMARK    4  A    between atoms: C_4  and  C_5
REMARK    5  A    between atoms: C_5  and  C_6
REMARK    6  A    between atoms: C_6  and  C_7
REMARK    7  A    between atoms: C_7  and  C_8
REMARK    8  A    between atoms: C_8  and  C_9
REMARK    9  A    between atoms: C_9  and  C_10
REMARK   10  A    between atoms: C_10  and  C_11
REMARK   11  A    between atoms: C_12  and  C_13
REMARK   12  A    between atoms: N_17  and  C1*_18
REMARK   13  A    between atoms: C3*_20  and  O3*_21
REMARK   14  A    between atoms: C4*_22  and  C5*_23
REMARK   15  A    between atoms: C5*_23  and  O5*_24
REMARK                            x       y       z     vdW  Elec       q    Type
REMARK                         _______ _______ _______ _____ _____    ______ ____
ROOT
ATOM      1  C   UNL     1       8.851  10.193  18.659  0.00  0.00    +0.000 A 
ATOM      2  C   UNL     1       9.262  11.237  17.935  0.00  0.00    +0.000 A 
ATOM      3  C   UNL     1       9.580  12.256  18.879  0.00  0.00    +0.000 A 
ATOM      4  C   UNL     1       9.987  13.526  18.834  0.00  0.00    +0.000 A 
ATOM      5  N   UNL     1      10.165  14.259  20.007  0.00  0.00    +0.000 N 
ATOM      6  C   UNL     1       9.940  13.658  21.278  0.00  0.00    +0.000 A 
ATOM      7  O   UNL     1      10.099  14.298  22.316  0.00  0.00    +0.000 OA
ATOM      8  N   UNL     1       9.521  12.334  21.335  0.00  0.00    +0.000 NA
ATOM      9  C   UNL     1       9.351  11.725  20.216  0.00  0.00    +0.000 A 
ATOM     10  O   UNL     1       8.899  10.420  20.074  0.00  0.00    +0.000 OA
ENDROOT
BRANCH   5  11
ATOM     11  C1* UNL     1      10.541  15.693  19.951  0.00  0.00    +0.000 C 
ATOM     12  C2* UNL     1      12.033  15.999  20.103  0.00  0.00    +0.000 C 
ATOM     13  C3* UNL     1      12.213  17.276  19.305  0.00  0.00    +0.000 C 
ATOM     14  C4* UNL     1      11.179  17.153  18.189  0.00  0.00    +0.000 C 
ATOM     15  O4* UNL     1      10.131  16.279  18.686  0.00  0.00    +0.000 OA
BRANCH  13  16
ATOM     16  O3* UNL     1      11.951  18.410  20.131  0.00  0.00    +0.000 OA
ATOM     17  H3* UNL     1      11.819  19.196  19.573  0.00  0.00    +0.000 HD
ENDBRANCH  13  16
BRANCH  14  18
ATOM     18  C5* UNL     1      11.788  16.561  16.906  0.00  0.00    +0.000 C 
BRANCH  18  19
ATOM     19  O5* UNL     1      10.802  16.002  16.042  0.00  0.00    +0.000 OA
ATOM     20  H5* UNL     1      10.249  15.396  16.565  0.00  0.00    +0.000 HD
ENDBRANCH  18  19
ENDBRANCH  14  18
ENDBRANCH   5  11
BRANCH   1  22
ATOM     21  C   UNL     1       7.940   7.882  17.703  0.00  0.00    +0.000 C 
ATOM     22  C   UNL     1       8.356   8.933  18.114  0.00  0.00    +0.000 C 
BRANCH  21  23
ATOM     23  C   UNL     1       7.414   6.560  17.221  0.00  0.00    +0.000 C 
BRANCH  23  24
ATOM     24  C   UNL     1       7.285   5.519  18.342  0.00  0.00    +0.000 C 
BRANCH  24  25
ATOM     25  C   UNL     1       5.912   4.843  18.394  0.00  0.00    +0.000 C 
BRANCH  25  26
ATOM     26  C   UNL     1       5.073   5.230  17.178  0.00  0.00    +0.000 C 
BRANCH  26  27
ATOM     27  C   UNL     1       3.806   5.965  17.599  0.00  0.00    +0.000 C 
BRANCH  27  28
ATOM     28  C   UNL     1       3.524   5.732  19.077  0.00  0.00    +0.000 C 
BRANCH  28  29
ATOM     29  C   UNL     1       2.132   5.146  19.262  0.00  0.00    +0.000 C 
BRANCH  29  30
ATOM     30  C   UNL     1       1.755   4.297  18.057  0.00  0.00    +0.000 C 
BRANCH  30  32
ATOM     31  C   UNL     1       2.773   2.025  17.903  0.00  0.00    +0.000 C 
ATOM     32  C   UNL     1       1.617   2.834  18.456  0.00  0.00    +0.000 C 
ENDBRANCH  30  32
ENDBRANCH  29  30
ENDBRANCH  28  29
ENDBRANCH  27  28
ENDBRANCH  26  27
ENDBRANCH  25  26
ENDBRANCH  24  25
ENDBRANCH  23  24
ENDBRANCH  21  23
ENDBRANCH   1  22
TORSDOF 14
ENDMDL
MODEL 3
REMARK VINA RESULT:      -6.8      3.447      9.483
REMARK  Name = 
REMARK  15 active torsions:
REMARK  status: ('A' for Active; 'I' for Inactive)
REMARK    1  A    between atoms: C_1  and  C_2
REMARK    2  A    between atoms: C_2  and  C_3
REMARK    3  A    between atoms: C_3  and  C_4
REMARK    4  A    between atoms: C_4  and  C_5
REMARK    5  A    between atoms: C_5  and  C_6
REMARK    6  A    between atoms: C_6  and  C_7
REMARK    7  A    between atoms: C_7  and  C_8
REMARK    8  A    between atoms: C_8  and  C_9
REMARK    9  A    between atoms: C_9  and  C_10
REMARK   10  A    between atoms: C_10  and  C_11
REMARK   11  A    between atoms: C_12  and  C_13
REMARK   12  A    between atoms: N_17  and  C1*_18
REMARK   13  A    between atoms: C3*_20  and  O3*_21
REMARK   14  A    between atoms: C4*_22  and  C5*_23
REMARK   15  A    between atoms: C5*_23  and  O5*_24
REMARK                            x       y       z     vdW  Elec       q    Type
REMARK                         _______ _______ _______ _____ _____    ______ ____
ROOT
ATOM      1  C   UNL     1       2.899   7.152  18.411  0.00  0.00    +0.000 A 
ATOM      2  C   UNL     1       2.494   8.353  17.993  0.00  0.00    +0.000 A 
ATOM      3  C   UNL     1       1.747   8.904  19.075  0.00  0.00    +0.000 A 
ATOM      4  C   UNL     1       1.044  10.014  19.302  0.00  0.00    +0.000 A 
ATOM      5  N   UNL     1       0.386  10.207  20.516  0.00  0.00    +0.000 N 
ATOM      6  C   UNL     1       0.471   9.230  21.548  0.00  0.00    +0.000 A 
ATOM      7  O   UNL     1      -0.103   9.394  22.623  0.00  0.00    +0.000 OA
ATOM      8  N   UNL     1       1.206   8.071  21.323  0.00  0.00    +0.000 NA
ATOM      9  C   UNL     1       1.765   7.946  20.173  0.00  0.00    +0.000 A 
ATOM     10  O   UNL     1       2.500   6.846  19.754  0.00  0.00    +0.000 OA
ENDROOT
BRANCH   5  11
ATOM     11  C1* UNL     1      -0.459  11.406  20.736  0.00  0.00    +0.000 C 
ATOM     12  C2* UNL     1       0.016  12.691  20.054  0.00  0.00    +0.000 C 
ATOM     13  C3* UNL     1      -1.272  13.452  19.800  0.00  0.00    +0.000 C 
ATOM     14  C4* UNL     1      -2.302  12.349  19.570  0.00  0.00    +0.000 C 
ATOM     15  O4* UNL     1      -1.813  11.170  20.263  0.00  0.00    +0.000 OA
BRANCH  13  16
ATOM     16  O3* UNL     1      -1.605  14.242  20.941  0.00  0.00    +0.000 OA
ATOM     17  H3* UNL     1      -0.987  14.991  21.009  0.00  0.00    +0.000 HD
ENDBRANCH  13  16
BRANCH  14  18
ATOM     18  C5* UNL     1      -2.484  12.038  18.075  0.00  0.00    +0.000 C 
BRANCH  18  19
ATOM     19  O5* UNL     1      -1.327  12.358  17.306  0.00  0.00    +0.000 OA
ATOM     20  H5* UNL     1      -0.998  11.539  16.897  0.00  0.00    +0.000 HD
ENDBRANCH  18  19
ENDBRANCH  14  18
ENDBRANCH   5  11
BRANCH   1  22
ATOM     21  C   UNL     1       4.234   5.399  16.919  0.00  0.00    +0.000 C 
ATOM     22  C   UNL     1       3.646   6.189  17.609  0.00  0.00    +0.000 C 
BRANCH  21  23
ATOM     23  C   UNL     1       4.947   4.417  16.032  0.00  0.00    +0.000 C 
BRANCH  23  24
ATOM     24  C   UNL     1       6.280   3.933  16.620  0.00  0.00    +0.000 C 
BRANCH  24  25
ATOM     25  C   UNL     1       7.320   5.046  16.774  0.00  0.00    +0.000 C 
BRANCH  25  26
ATOM     26  C   UNL     1       7.683   5.246  18.244  0.00  0.00    +0.000 C 
BRANCH  26  27
ATOM     27  C   UNL     1       7.867   6.725  18.565  0.00  0.00    +0.000 C 
BRANCH  27  28
ATOM     28  C   UNL     1       7.566   7.576  17.338  0.00  0.00    +0.000 C 
BRANCH  28  29
ATOM     29  C   UNL     1       7.811   9.046  17.644  0.00  0.00    +0.000 C 
BRANCH  29  30
ATOM     30  C   UNL     1       8.756   9.187  18.828  0.00  0.00    +0.000 C 
BRANCH  30  32
ATOM     31  C   UNL     1       9.751  10.923  20.318  0.00  0.00    +0.000 C 
ATOM     32  C   UNL     1       9.308  10.604  18.904  0.00  0.00    +0.000 C 
ENDBRANCH  30  32
ENDBRANCH  29  30
ENDBRANCH  28  29
ENDBRANCH  27  28
ENDBRANCH  26  27
ENDBRANCH  25  26
ENDBRANCH  24  25
ENDBRANCH  23  24
ENDBRANCH  21  23
ENDBRANCH   1  22
TORSDOF 14
ENDMDL
MODEL 4
REMARK VINA RESULT:      -6.8      0.988      1.079
REMARK  Name = 
REMARK  15 active torsions:
REMARK  status: ('A' for Active; 'I' for Inactive)
REMARK    1  A    between atoms: C_1  and  C_2
REMARK    2  A    between atoms: C_2  and  C_3
REMARK    3  A    between atoms: C_3  and  C_4
REMARK    4  A    between atoms: C_4  and  C_5
REMARK    5  A    between atoms: C_5  and  C_6
REMARK    6  A    between atoms: C_6  and  C_7
REMARK    7  A    between atoms: C_7  and  C_8
REMARK    8  A    between atoms: C_8  and  C_9
REMARK    9  A    between atoms: C_9  and  C_10
REMARK   10  A    between atoms: C_10  and  C_11
REMARK   11  A    between atoms: C_12  and  C_13
REMARK   12  A    between atoms: N_17  and  C1*_18
REMARK   13  A    between atoms: C3*_20  and  O3*_21
REMARK   14  A    between atoms: C4*_22  and  C5*_23
REMARK   15  A    between atoms: C5*_23  and  O5*_24
REMARK                            x       y       z     vdW  Elec       q    Type
REMARK                         _______ _______ _______ _____ _____    ______ ____
ROOT
ATOM      1  C   UNL     1       1.165   7.866  20.698  0.00  0.00    +0.000 A 
ATOM      2  C   UNL     1       1.905   8.139  19.621  0.00  0.00    +0.000 A 
ATOM      3  C   UNL     1       2.513   6.904  19.251  0.00  0.00    +0.000 A 
ATOM      4  C   UNL     1       3.382   6.490  18.327  0.00  0.00    +0.000 A 
ATOM      5  N   UNL     1       3.799   5.160  18.284  0.00  0.00    +0.000 N 
ATOM      6  C   UNL     1       3.286   4.211  19.214  0.00  0.00    +0.000 A 
ATOM      7  O   UNL     1       3.646   3.036  19.180  0.00  0.00    +0.000 OA
ATOM      8  N   UNL     1       2.376   4.632  20.177  0.00  0.00    +0.000 NA
ATOM      9  C   UNL     1       2.055   5.876  20.176  0.00  0.00    +0.000 A 
ATOM     10  O   UNL     1       1.198   6.484  21.083  0.00  0.00    +0.000 OA
ENDROOT
BRANCH   5  11
ATOM     11  C1* UNL     1       4.824   4.721  17.307  0.00  0.00    +0.000 C 
ATOM     12  C2* UNL     1       5.427   5.821  16.431  0.00  0.00    +0.000 C 
ATOM     13  C3* UNL     1       6.825   5.311  16.138  0.00  0.00    +0.000 C 
ATOM     14  C4* UNL     1       7.189   4.518  17.390  0.00  0.00    +0.000 C 
ATOM     15  O4* UNL     1       5.939   4.083  17.987  0.00  0.00    +0.000 OA
BRANCH  13  16
ATOM     16  O3* UNL     1       6.808   4.474  14.982  0.00  0.00    +0.000 OA
ATOM     17  H3* UNL     1       7.688   4.080  14.852  0.00  0.00    +0.000 HD
ENDBRANCH  13  16
BRANCH  14  18
ATOM     18  C5* UNL     1       7.981   5.369  18.398  0.00  0.00    +0.000 C 
BRANCH  18  19
ATOM     19  O5* UNL     1       7.281   5.554  19.625  0.00  0.00    +0.000 OA
ATOM     20  H5* UNL     1       7.656   4.944  20.284  0.00  0.00    +0.000 HD
ENDBRANCH  18  19
ENDBRANCH  14  18
ENDBRANCH   5  11
BRANCH   1  22
ATOM     21  C   UNL     1      -0.203   9.635  22.139  0.00  0.00    +0.000 C 
ATOM     22  C   UNL     1       0.407   8.845  21.470  0.00  0.00    +0.000 C 
BRANCH  21  23
ATOM     23  C   UNL     1      -0.954  10.608  23.004  0.00  0.00    +0.000 C 
BRANCH  23  24
ATOM     24  C   UNL     1      -1.495  11.814  22.222  0.00  0.00    +0.000 C 
BRANCH  24  25
ATOM     25  C   UNL     1      -0.534  12.324  21.144  0.00  0.00    +0.000 C 
BRANCH  25  26
ATOM     26  C   UNL     1      -1.299  13.048  20.038  0.00  0.00    +0.000 C 
BRANCH  26  27
ATOM     27  C   UNL     1      -0.766  12.663  18.663  0.00  0.00    +0.000 C 
BRANCH  27  28
ATOM     28  C   UNL     1      -0.165  11.264  18.699  0.00  0.00    +0.000 C 
BRANCH  28  29
ATOM     29  C   UNL     1      -1.172  10.246  18.184  0.00  0.00    +0.000 C 
BRANCH  29  30
ATOM     30  C   UNL     1      -2.111  10.896  17.179  0.00  0.00    +0.000 C 
BRANCH  30  32
ATOM     31  C   UNL     1      -4.569  11.252  16.950  0.00  0.00    +0.000 C 
ATOM     32  C   UNL     1      -3.481  10.233  17.222  0.00  0.00    +0.000 C 
ENDBRANCH  30  32
ENDBRANCH  29  30
ENDBRANCH  28  29
ENDBRANCH  27  28
ENDBRANCH  26  27
ENDBRANCH  25  26
ENDBRANCH  24  25
ENDBRANCH  23  24
ENDBRANCH  21  23
ENDBRANCH   1  22
TORSDOF 14
ENDMDL
MODEL 5
REMARK VINA RESULT:      -6.7      1.669      2.786
REMARK  Name = 
REMARK  15 active torsions:
REMARK  status: ('A' for Active; 'I' for Inactive)
REMARK    1  A    between atoms: C_1  and  C_2
REMARK    2  A    between atoms: C_2  and  C_3
REMARK    3  A    between atoms: C_3  and  C_4
REMARK    4  A    between atoms: C_4  and  C_5
REMARK    5  A    between atoms: C_5  and  C_6
REMARK    6  A    between atoms: C_6  and  C_7
REMARK    7  A    between atoms: C_7  and  C_8
REMARK    8  A    between atoms: C_8  and  C_9
REMARK    9  A    between atoms: C_9  and  C_10
REMARK   10  A    between atoms: C_10  and  C_11
REMARK   11  A    between atoms: C_12  and  C_13
REMARK   12  A    between atoms: N_17  and  C1*_18
REMARK   13  A    between atoms: C3*_20  and  O3*_21
REMARK   14  A    between atoms: C4*_22  and  C5*_23
REMARK   15  A    between atoms: C5*_23  and  O5*_24
REMARK                            x       y       z     vdW  Elec       q    Type
REMARK                         _______ _______ _______ _____ _____    ______ ____
ROOT
ATOM      1  C   UNL     1       1.189   7.869  20.856  0.00  0.00    +0.000 A 
ATOM      2  C   UNL     1       1.959   7.978  19.771  0.00  0.00    +0.000 A 
ATOM      3  C   UNL     1       2.491   6.675  19.545  0.00  0.00    +0.000 A 
ATOM      4  C   UNL     1       3.343   6.111  18.688  0.00  0.00    +0.000 A 
ATOM      5  N   UNL     1       3.674   4.760  18.795  0.00  0.00    +0.000 N 
ATOM      6  C   UNL     1       3.087   3.950  19.809  0.00  0.00    +0.000 A 
ATOM      7  O   UNL     1       3.371   2.758  19.907  0.00  0.00    +0.000 OA
ATOM      8  N   UNL     1       2.194   4.528  20.703  0.00  0.00    +0.000 NA
ATOM      9  C   UNL     1       1.955   5.783  20.565  0.00  0.00    +0.000 A 
ATOM     10  O   UNL     1       1.126   6.537  21.385  0.00  0.00    +0.000 OA
ENDROOT
BRANCH   5  11
ATOM     11  C1* UNL     1       4.680   4.155  17.890  0.00  0.00    +0.000 C 
ATOM     12  C2* UNL     1       4.798   4.788  16.502  0.00  0.00    +0.000 C 
ATOM     13  C3* UNL     1       6.248   4.550  16.128  0.00  0.00    +0.000 C 
ATOM     14  C4* UNL     1       6.977   4.590  17.468  0.00  0.00    +0.000 C 
ATOM     15  O4* UNL     1       6.006   4.223  18.483  0.00  0.00    +0.000 OA
BRANCH  13  16
ATOM     16  O3* UNL     1       6.388   3.276  15.500  0.00  0.00    +0.000 OA
ATOM     17  H3* UNL     1       6.941   2.699  16.056  0.00  0.00    +0.000 HD
ENDBRANCH  13  16
BRANCH  14  18
ATOM     18  C5* UNL     1       7.545   5.988  17.770  0.00  0.00    +0.000 C 
BRANCH  18  19
ATOM     19  O5* UNL     1       7.651   6.798  16.603  0.00  0.00    +0.000 OA
ATOM     20  H5* UNL     1       7.016   6.467  15.945  0.00  0.00    +0.000 HD
ENDBRANCH  18  19
ENDBRANCH  14  18
ENDBRANCH   5  11
BRANCH   1  22
ATOM     21  C   UNL     1      -0.069   9.904  22.019  0.00  0.00    +0.000 C 
ATOM     22  C   UNL     1       0.486   8.971  21.504  0.00  0.00    +0.000 C 
BRANCH  21  23
ATOM     23  C   UNL     1      -0.743  11.092  22.646  0.00  0.00    +0.000 C 
BRANCH  23  24
ATOM     24  C   UNL     1      -1.541  11.932  21.638  0.00  0.00    +0.000 C 
BRANCH  24  25
ATOM     25  C   UNL     1      -0.685  12.942  20.870  0.00  0.00    +0.000 C 
BRANCH  25  26
ATOM     26  C   UNL     1      -0.957  12.851  19.370  0.00  0.00    +0.000 C 
BRANCH  26  27
ATOM     27  C   UNL     1      -0.005  11.866  18.701  0.00  0.00    +0.000 C 
BRANCH  27  28
ATOM     28  C   UNL     1       1.395  12.003  19.282  0.00  0.00    +0.000 C 
BRANCH  28  29
ATOM     29  C   UNL     1       2.362  12.496  18.216  0.00  0.00    +0.000 C 
BRANCH  29  30
ATOM     30  C   UNL     1       3.080  13.749  18.695  0.00  0.00    +0.000 C 
BRANCH  30  32
ATOM     31  C   UNL     1       2.989  16.049  17.732  0.00  0.00    +0.000 C 
ATOM     32  C   UNL     1       2.211  14.980  18.473  0.00  0.00    +0.000 C 
ENDBRANCH  30  32
ENDBRANCH  29  30
ENDBRANCH  28  29
ENDBRANCH  27  28
ENDBRANCH  26  27
ENDBRANCH  25  26
ENDBRANCH  24  25
ENDBRANCH  23  24
ENDBRANCH  21  23
ENDBRANCH   1  22
TORSDOF 14
ENDMDL
MODEL 6
REMARK VINA RESULT:      -6.7      4.227      9.638
REMARK  Name = 
REMARK  15 active torsions:
REMARK  status: ('A' for Active; 'I' for Inactive)
REMARK    1  A    between atoms: C_1  and  C_2
REMARK    2  A    between atoms: C_2  and  C_3
REMARK    3  A    between atoms: C_3  and  C_4
REMARK    4  A    between atoms: C_4  and  C_5
REMARK    5  A    between atoms: C_5  and  C_6
REMARK    6  A    between atoms: C_6  and  C_7
REMARK    7  A    between atoms: C_7  and  C_8
REMARK    8  A    between atoms: C_8  and  C_9
REMARK    9  A    between atoms: C_9  and  C_10
REMARK   10  A    between atoms: C_10  and  C_11
REMARK   11  A    between atoms: C_12  and  C_13
REMARK   12  A    between atoms: N_17  and  C1*_18
REMARK   13  A    between atoms: C3*_20  and  O3*_21
REMARK   14  A    between atoms: C4*_22  and  C5*_23
REMARK   15  A    between atoms: C5*_23  and  O5*_24
REMARK                            x       y       z     vdW  Elec       q    Type
REMARK                         _______ _______ _______ _____ _____    ______ ____
ROOT
ATOM      1  C   UNL     1       1.730   8.775  18.469  0.00  0.00    +0.000 A 
ATOM      2  C   UNL     1       1.619   9.173  19.738  0.00  0.00    +0.000 A 
ATOM      3  C   UNL     1       0.464  10.006  19.780  0.00  0.00    +0.000 A 
ATOM      4  C   UNL     1      -0.166  10.745  20.695  0.00  0.00    +0.000 A 
ATOM      5  N   UNL     1      -1.294  11.492  20.355  0.00  0.00    +0.000 N 
ATOM      6  C   UNL     1      -1.809  11.462  19.029  0.00  0.00    +0.000 A 
ATOM      7  O   UNL     1      -2.805  12.115  18.723  0.00  0.00    +0.000 OA
ATOM      8  N   UNL     1      -1.163  10.691  18.070  0.00  0.00    +0.000 NA
ATOM      9  C   UNL     1      -0.115  10.048  18.443  0.00  0.00    +0.000 A 
ATOM     10  O   UNL     1       0.681   9.264  17.620  0.00  0.00    +0.000 OA
ENDROOT
BRANCH   5  11
ATOM     11  C1* UNL     1      -1.945  12.373  21.355  0.00  0.00    +0.000 C 
ATOM     12  C2* UNL     1      -1.580  12.108  22.817  0.00  0.00    +0.000 C 
ATOM     13  C3* UNL     1      -1.722  13.471  23.468  0.00  0.00    +0.000 C 
ATOM     14  C4* UNL     1      -1.344  14.443  22.354  0.00  0.00    +0.000 C 
ATOM     15  O4* UNL     1      -1.616  13.766  21.099  0.00  0.00    +0.000 OA
BRANCH  13  16
ATOM     16  O3* UNL     1      -3.069  13.671  23.895  0.00  0.00    +0.000 OA
ATOM     17  H3* UNL     1      -3.175  13.335  24.803  0.00  0.00    +0.000 HD
ENDBRANCH  13  16
BRANCH  14  18
ATOM     18  C5* UNL     1       0.140  14.843  22.421  0.00  0.00    +0.000 C 
BRANCH  18  19
ATOM     19  O5* UNL     1       0.462  15.899  21.519  0.00  0.00    +0.000 OA
ATOM     20  H5* UNL     1       0.778  15.503  20.689  0.00  0.00    +0.000 HD
ENDBRANCH  18  19
ENDBRANCH  14  18
ENDBRANCH   5  11
BRANCH   1  22
ATOM     21  C   UNL     1       3.715   7.272  17.531  0.00  0.00    +0.000 C 
ATOM     22  C   UNL     1       2.811   7.954  17.934  0.00  0.00    +0.000 C 
BRANCH  21  23
ATOM     23  C   UNL     1       4.854   6.412  17.059  0.00  0.00    +0.000 C 
BRANCH  23  24
ATOM     24  C   UNL     1       5.489   5.585  18.186  0.00  0.00    +0.000 C 
BRANCH  24  25
ATOM     25  C   UNL     1       4.746   4.278  18.478  0.00  0.00    +0.000 C 
BRANCH  25  26
ATOM     26  C   UNL     1       4.154   3.696  17.197  0.00  0.00    +0.000 C 
BRANCH  26  27
ATOM     27  C   UNL     1       2.796   3.056  17.464  0.00  0.00    +0.000 C 
BRANCH  27  28
ATOM     28  C   UNL     1       1.760   4.124  17.789  0.00  0.00    +0.000 C 
BRANCH  28  29
ATOM     29  C   UNL     1       1.106   3.832  19.131  0.00  0.00    +0.000 C 
BRANCH  29  30
ATOM     30  C   UNL     1       1.590   4.822  20.179  0.00  0.00    +0.000 C 
BRANCH  30  32
ATOM     31  C   UNL     1       1.663   2.731  21.536  0.00  0.00    +0.000 C 
ATOM     32  C   UNL     1       2.289   4.094  21.319  0.00  0.00    +0.000 C 
ENDBRANCH  30  32
ENDBRANCH  29  30
ENDBRANCH  28  29
ENDBRANCH  27  28
ENDBRANCH  26  27
ENDBRANCH  25  26
ENDBRANCH  24  25
ENDBRANCH  23  24
ENDBRANCH  21  23
ENDBRANCH   1  22
TORSDOF 14
ENDMDL
MODEL 7
REMARK VINA RESULT:      -6.7      3.243      9.078
REMARK  Name = 
REMARK  15 active torsions:
REMARK  status: ('A' for Active; 'I' for Inactive)
REMARK    1  A    between atoms: C_1  and  C_2
REMARK    2  A    between atoms: C_2  and  C_3
REMARK    3  A    between atoms: C_3  and  C_4
REMARK    4  A    between atoms: C_4  and  C_5
REMARK    5  A    between atoms: C_5  and  C_6
REMARK    6  A    between atoms: C_6  and  C_7
REMARK    7  A    between atoms: C_7  and  C_8
REMARK    8  A    between atoms: C_8  and  C_9
REMARK    9  A    between atoms: C_9  and  C_10
REMARK   10  A    between atoms: C_10  and  C_11
REMARK   11  A    between atoms: C_12  and  C_13
REMARK   12  A    between atoms: N_17  and  C1*_18
REMARK   13  A    between atoms: C3*_20  and  O3*_21
REMARK   14  A    between atoms: C4*_22  and  C5*_23
REMARK   15  A    between atoms: C5*_23  and  O5*_24
REMARK                            x       y       z     vdW  Elec       q    Type
REMARK                         _______ _______ _______ _____ _____    ______ ____
ROOT
ATOM      1  C   UNL     1       2.866   7.989  18.085  0.00  0.00    +0.000 A 
ATOM      2  C   UNL     1       2.249   9.149  17.846  0.00  0.00    +0.000 A 
ATOM      3  C   UNL     1       1.417   9.381  18.979  0.00  0.00    +0.000 A 
ATOM      4  C   UNL     1       0.525  10.300  19.355  0.00  0.00    +0.000 A 
ATOM      5  N   UNL     1      -0.156  10.179  20.567  0.00  0.00    +0.000 N 
ATOM      6  C   UNL     1       0.107   9.085  21.438  0.00  0.00    +0.000 A 
ATOM      7  O   UNL     1      -0.487   8.974  22.510  0.00  0.00    +0.000 OA
ATOM      8  N   UNL     1       1.038   8.125  21.058  0.00  0.00    +0.000 NA
ATOM      9  C   UNL     1       1.609   8.283  19.918  0.00  0.00    +0.000 A 
ATOM     10  O   UNL     1       2.530   7.411  19.355  0.00  0.00    +0.000 OA
ENDROOT
BRANCH   5  11
ATOM     11  C1* UNL     1      -1.202  11.159  20.945  0.00  0.00    +0.000 C 
ATOM     12  C2* UNL     1      -0.836  12.127  22.073  0.00  0.00    +0.000 C 
ATOM     13  C3* UNL     1      -1.648  13.367  21.751  0.00  0.00    +0.000 C 
ATOM     14  C4* UNL     1      -1.722  13.363  20.226  0.00  0.00    +0.000 C 
ATOM     15  O4* UNL     1      -1.568  11.982  19.804  0.00  0.00    +0.000 OA
BRANCH  13  16
ATOM     16  O3* UNL     1      -2.947  13.265  22.333  0.00  0.00    +0.000 OA
ATOM     17  H3* UNL     1      -2.898  12.734  23.147  0.00  0.00    +0.000 HD
ENDBRANCH  13  16
BRANCH  14  18
ATOM     18  C5* UNL     1      -0.616  14.228  19.597  0.00  0.00    +0.000 C 
BRANCH  18  19
ATOM     19  O5* UNL     1       0.595  13.505  19.396  0.00  0.00    +0.000 OA
ATOM     20  H5* UNL     1       1.183  13.683  20.149  0.00  0.00    +0.000 HD
ENDBRANCH  18  19
ENDBRANCH  14  18
ENDBRANCH   5  11
BRANCH   1  22
ATOM     21  C   UNL     1       4.502   6.720  16.414  0.00  0.00    +0.000 C 
ATOM     22  C   UNL     1       3.773   7.312  17.165  0.00  0.00    +0.000 C 
BRANCH  21  23
ATOM     23  C   UNL     1       5.394   5.952  15.480  0.00  0.00    +0.000 C 
BRANCH  23  24
ATOM     24  C   UNL     1       6.684   5.459  16.151  0.00  0.00    +0.000 C 
BRANCH  24  25
ATOM     25  C   UNL     1       7.243   6.434  17.190  0.00  0.00    +0.000 C 
BRANCH  25  26
ATOM     26  C   UNL     1       7.366   5.757  18.554  0.00  0.00    +0.000 C 
BRANCH  26  27
ATOM     27  C   UNL     1       6.366   4.614  18.689  0.00  0.00    +0.000 C 
BRANCH  27  28
ATOM     28  C   UNL     1       5.149   5.064  19.485  0.00  0.00    +0.000 C 
BRANCH  28  29
ATOM     29  C   UNL     1       4.045   4.021  19.395  0.00  0.00    +0.000 C 
BRANCH  29  30
ATOM     30  C   UNL     1       4.147   3.260  18.082  0.00  0.00    +0.000 C 
BRANCH  30  32
ATOM     31  C   UNL     1       1.824   4.166  18.005  0.00  0.00    +0.000 C 
ATOM     32  C   UNL     1       2.957   3.577  17.187  0.00  0.00    +0.000 C 
ENDBRANCH  30  32
ENDBRANCH  29  30
ENDBRANCH  28  29
ENDBRANCH  27  28
ENDBRANCH  26  27
ENDBRANCH  25  26
ENDBRANCH  24  25
ENDBRANCH  23  24
ENDBRANCH  21  23
ENDBRANCH   1  22
TORSDOF 14
ENDMDL
MODEL 8
REMARK VINA RESULT:      -6.7      6.863     10.566
REMARK  Name = 
REMARK  15 active torsions:
REMARK  status: ('A' for Active; 'I' for Inactive)
REMARK    1  A    between atoms: C_1  and  C_2
REMARK    2  A    between atoms: C_2  and  C_3
REMARK    3  A    between atoms: C_3  and  C_4
REMARK    4  A    between atoms: C_4  and  C_5
REMARK    5  A    between atoms: C_5  and  C_6
REMARK    6  A    between atoms: C_6  and  C_7
REMARK    7  A    between atoms: C_7  and  C_8
REMARK    8  A    between atoms: C_8  and  C_9
REMARK    9  A    between atoms: C_9  and  C_10
REMARK   10  A    between atoms: C_10  and  C_11
REMARK   11  A    between atoms: C_12  and  C_13
REMARK   12  A    between atoms: N_17  and  C1*_18
REMARK   13  A    between atoms: C3*_20  and  O3*_21
REMARK   14  A    between atoms: C4*_22  and  C5*_23
REMARK   15  A    between atoms: C5*_23  and  O5*_24
REMARK                            x       y       z     vdW  Elec       q    Type
REMARK                         _______ _______ _______ _____ _____    ______ ____
ROOT
ATOM      1  C   UNL     1       8.652   9.882  18.393  0.00  0.00    +0.000 A 
ATOM      2  C   UNL     1       8.426  10.964  17.643  0.00  0.00    +0.000 A 
ATOM      3  C   UNL     1       8.961  12.060  18.380  0.00  0.00    +0.000 A 
ATOM      4  C   UNL     1       9.025  13.385  18.237  0.00  0.00    +0.000 A 
ATOM      5  N   UNL     1       9.614  14.181  19.219  0.00  0.00    +0.000 N 
ATOM      6  C   UNL     1      10.180  13.591  20.385  0.00  0.00    +0.000 A 
ATOM      7  O   UNL     1      10.704  14.287  21.253  0.00  0.00    +0.000 OA
ATOM      8  N   UNL     1      10.122  12.211  20.540  0.00  0.00    +0.000 NA
ATOM      9  C   UNL     1       9.543  11.540  19.611  0.00  0.00    +0.000 A 
ATOM     10  O   UNL     1       9.354  10.165  19.612  0.00  0.00    +0.000 OA
ENDROOT
BRANCH   5  11
ATOM     11  C1* UNL     1       9.613  15.659  19.094  0.00  0.00    +0.000 C 
ATOM     12  C2* UNL     1       8.984  16.221  17.817  0.00  0.00    +0.000 C 
ATOM     13  C3* UNL     1       8.453  17.573  18.252  0.00  0.00    +0.000 C 
ATOM     14  C4* UNL     1       8.072  17.357  19.714  0.00  0.00    +0.000 C 
ATOM     15  O4* UNL     1       8.896  16.265  20.203  0.00  0.00    +0.000 OA
BRANCH  13  16
ATOM     16  O3* UNL     1       9.471  18.564  18.123  0.00  0.00    +0.000 OA
ATOM     17  H3* UNL     1       9.078  19.449  18.221  0.00  0.00    +0.000 HD
ENDBRANCH  13  16
BRANCH  14  18
ATOM     18  C5* UNL     1       6.584  16.999  19.873  0.00  0.00    +0.000 C 
BRANCH  18  19
ATOM     19  O5* UNL     1       5.750  17.727  18.976  0.00  0.00    +0.000 OA
ATOM     20  H5* UNL     1       5.163  18.298  19.501  0.00  0.00    +0.000 HD
ENDBRANCH  18  19
ENDBRANCH  14  18
ENDBRANCH   5  11
BRANCH   1  22
ATOM     21  C   UNL     1       7.824   7.426  17.793  0.00  0.00    +0.000 C 
ATOM     22  C   UNL     1       8.217   8.528  18.071  0.00  0.00    +0.000 C 
BRANCH  21  23
ATOM     23  C   UNL     1       7.303   6.063  17.434  0.00  0.00    +0.000 C 
BRANCH  23  24
ATOM     24  C   UNL     1       5.789   6.046  17.176  0.00  0.00    +0.000 C 
BRANCH  24  25
ATOM     25  C   UNL     1       5.015   5.138  18.136  0.00  0.00    +0.000 C 
BRANCH  25  26
ATOM     26  C   UNL     1       3.807   4.519  17.438  0.00  0.00    +0.000 C 
BRANCH  26  27
ATOM     27  C   UNL     1       2.510   5.165  17.913  0.00  0.00    +0.000 C 
BRANCH  27  28
ATOM     28  C   UNL     1       1.349   4.190  17.772  0.00  0.00    +0.000 C 
BRANCH  28  29
ATOM     29  C   UNL     1       1.347   3.203  18.931  0.00  0.00    +0.000 C 
BRANCH  29  30
ATOM     30  C   UNL     1       0.925   3.901  20.216  0.00  0.00    +0.000 C 
BRANCH  30  32
ATOM     31  C   UNL     1       3.008   2.678  20.840  0.00  0.00    +0.000 C 
ATOM     32  C   UNL     1       1.934   3.632  21.324  0.00  0.00    +0.000 C 
ENDBRANCH  30  32
ENDBRANCH  29  30
ENDBRANCH  28  29
ENDBRANCH  27  28
ENDBRANCH  26  27
ENDBRANCH  25  26
ENDBRANCH  24  25
ENDBRANCH  23  24
ENDBRANCH  21  23
ENDBRANCH   1  22
TORSDOF 14
ENDMDL
MODEL 9
REMARK VINA RESULT:      -6.6      4.727     10.446
REMARK  Name = 
REMARK  15 active torsions:
REMARK  status: ('A' for Active; 'I' for Inactive)
REMARK    1  A    between atoms: C_1  and  C_2
REMARK    2  A    between atoms: C_2  and  C_3
REMARK    3  A    between atoms: C_3  and  C_4
REMARK    4  A    between atoms: C_4  and  C_5
REMARK    5  A    between atoms: C_5  and  C_6
REMARK    6  A    between atoms: C_6  and  C_7
REMARK    7  A    between atoms: C_7  and  C_8
REMARK    8  A    between atoms: C_8  and  C_9
REMARK    9  A    between atoms: C_9  and  C_10
REMARK   10  A    between atoms: C_10  and  C_11
REMARK   11  A    between atoms: C_12  and  C_13
REMARK   12  A    between atoms: N_17  and  C1*_18
REMARK   13  A    between atoms: C3*_20  and  O3*_21
REMARK   14  A    between atoms: C4*_22  and  C5*_23
REMARK   15  A    between atoms: C5*_23  and  O5*_24
REMARK                            x       y       z     vdW  Elec       q    Type
REMARK                         _______ _______ _______ _____ _____    ______ ____
ROOT
ATOM      1  C   UNL     1       0.745   9.730  19.314  0.00  0.00    +0.000 A 
ATOM      2  C   UNL     1       0.690   9.708  20.648  0.00  0.00    +0.000 A 
ATOM      3  C   UNL     1      -0.354  10.610  21.004  0.00  0.00    +0.000 A 
ATOM      4  C   UNL     1      -0.884  11.082  22.133  0.00  0.00    +0.000 A 
ATOM      5  N   UNL     1      -1.913  12.024  22.099  0.00  0.00    +0.000 N 
ATOM      6  C   UNL     1      -2.435  12.481  20.856  0.00  0.00    +0.000 A 
ATOM      7  O   UNL     1      -3.344  13.308  20.818  0.00  0.00    +0.000 OA
ATOM      8  N   UNL     1      -1.892  11.990  19.674  0.00  0.00    +0.000 NA
ATOM      9  C   UNL     1      -0.929  11.146  19.777  0.00  0.00    +0.000 A 
ATOM     10  O   UNL     1      -0.239  10.582  18.712  0.00  0.00    +0.000 OA
ENDROOT
BRANCH   5  11
ATOM     11  C1* UNL     1      -2.446  12.605  23.355  0.00  0.00    +0.000 C 
ATOM     12  C2* UNL     1      -2.675  14.118  23.346  0.00  0.00    +0.000 C 
ATOM     13  C3* UNL     1      -3.823  14.306  24.319  0.00  0.00    +0.000 C 
ATOM     14  C4* UNL     1      -4.640  13.026  24.165  0.00  0.00    +0.000 C 
ATOM     15  O4* UNL     1      -3.724  12.001  23.695  0.00  0.00    +0.000 OA
BRANCH  13  16
ATOM     16  O3* UNL     1      -3.321  14.443  25.648  0.00  0.00    +0.000 OA
ATOM     17  H3* UNL     1      -3.197  15.386  25.853  0.00  0.00    +0.000 HD
ENDBRANCH  13  16
BRANCH  14  18
ATOM     18  C5* UNL     1      -5.792  13.198  23.160  0.00  0.00    +0.000 C 
BRANCH  18  19
ATOM     19  O5* UNL     1      -5.788  12.194  22.149  0.00  0.00    +0.000 OA
ATOM     20  H5* UNL     1      -6.071  12.603  21.313  0.00  0.00    +0.000 HD
ENDBRANCH  18  19
ENDBRANCH  14  18
ENDBRANCH   5  11
BRANCH   1  22
ATOM     21  C   UNL     1       2.541   8.415  17.856  0.00  0.00    +0.000 C 
ATOM     22  C   UNL     1       1.714   9.006  18.499  0.00  0.00    +0.000 C 
BRANCH  21  23
ATOM     23  C   UNL     1       3.596   7.680  17.077  0.00  0.00    +0.000 C 
BRANCH  23  24
ATOM     24  C   UNL     1       4.359   6.651  17.923  0.00  0.00    +0.000 C 
BRANCH  24  25
ATOM     25  C   UNL     1       3.528   5.415  18.279  0.00  0.00    +0.000 C 
BRANCH  25  26
ATOM     26  C   UNL     1       3.446   5.238  19.793  0.00  0.00    +0.000 C 
BRANCH  26  27
ATOM     27  C   UNL     1       2.119   5.760  20.333  0.00  0.00    +0.000 C 
BRANCH  27  28
ATOM     28  C   UNL     1       1.118   4.622  20.473  0.00  0.00    +0.000 C 
BRANCH  28  29
ATOM     29  C   UNL     1       1.836   3.330  20.832  0.00  0.00    +0.000 C 
BRANCH  29  30
ATOM     30  C   UNL     1       1.237   2.163  20.062  0.00  0.00    +0.000 C 
BRANCH  30  32
ATOM     31  C   UNL     1       2.598   1.994  17.978  0.00  0.00    +0.000 C 
ATOM     32  C   UNL     1       1.272   2.437  18.565  0.00  0.00    +0.000 C 
ENDBRANCH  30  32
ENDBRANCH  29  30
ENDBRANCH  28  29
ENDBRANCH  27  28
ENDBRANCH  26  27
ENDBRANCH  25  26
ENDBRANCH  24  25
ENDBRANCH  23  24
ENDBRANCH  21  23
ENDBRANCH   1  22
TORSDOF 14
ENDMDL
