MODEL 1
REMARK VINA RESULT:      -6.2      0.000      0.000
REMARK  Name = 
REMARK  3 active torsions:
REMARK  status: ('A' for Active; 'I' for Inactive)
REMARK    1  A    between atoms: C_1  and  N_2
REMARK    2  A    between atoms: C_6  and  C_7
REMARK    3  A    between atoms: C_12  and  C_13
REMARK                            x       y       z     vdW  Elec       q    Type
REMARK                         _______ _______ _______ _____ _____    ______ ____
ROOT
ATOM      1  C   UNL     1       2.012   5.614  20.501  0.00  0.00    +0.000 C 
ATOM      2  O   UNL     1       1.097   6.047  21.197  0.00  0.00    +0.000 OA
ATOM      3  N   UNL     1       2.618   6.266  19.452  0.00  0.00    +0.000 N 
ATOM      4  C   UNL     1       2.282   7.546  19.115  0.00  0.00    +0.000 A 
ATOM      5  N   UNL     1       1.536   8.386  19.779  0.00  0.00    +0.000 NA
ATOM      6  C   UNL     1       1.365   9.535  19.042  0.00  0.00    +0.000 A 
ATOM      7  C   UNL     1       2.007   9.559  17.821  0.00  0.00    +0.000 A 
ATOM      8  S   UNL     1       2.902   8.100  17.624  0.00  0.00    +0.000 S 
ATOM      9  H   UNL     1       3.306   5.779  18.884  0.00  0.00    +0.000 HD
ENDROOT
BRANCH   1  15
ATOM     10  C   UNL     1       4.004   2.989  17.460  0.00  0.00    +0.000 C 
ATOM     11  N   UNL     1       2.944   3.441  18.370  0.00  0.00    +0.000 NA
ATOM     12  C   UNL     1       1.895   2.410  18.457  0.00  0.00    +0.000 C 
ATOM     13  C   UNL     1       0.770   2.830  19.404  0.00  0.00    +0.000 C 
ATOM     14  C   UNL     1       1.305   3.197  20.785  0.00  0.00    +0.000 C 
ATOM     15  C   UNL     1       2.480   4.173  20.713  0.00  0.00    +0.000 C 
ATOM     16  C   UNL     1       3.529   3.718  19.698  0.00  0.00    +0.000 C 
ENDBRANCH   1  15
BRANCH   6  17
ATOM     17  C   UNL     1       0.499  10.673  19.562  0.00  0.00    +0.000 C 
ATOM     18  C   UNL     1      -0.995  10.585  19.309  0.00  0.00    +0.000 C 
ATOM     19  C   UNL     1      -0.474  10.370  20.686  0.00  0.00    +0.000 C 
ENDBRANCH   6  17
TORSDOF 2
ENDMDL
MODEL 2
REMARK VINA RESULT:      -6.2      1.890      2.216
REMARK  Name = 
REMARK  3 active torsions:
REMARK  status: ('A' for Active; 'I' for Inactive)
REMARK    1  A    between atoms: C_1  and  N_2
REMARK    2  A    between atoms: C_6  and  C_7
REMARK    3  A    between atoms: C_12  and  C_13
REMARK                            x       y       z     vdW  Elec       q    Type
REMARK                         _______ _______ _______ _____ _____    ______ ____
ROOT
ATOM      1  C   UNL     1       2.375   6.666  19.821  0.00  0.00    +0.000 C 
ATOM      2  O   UNL     1       2.521   7.127  18.691  0.00  0.00    +0.000 OA
ATOM      3  N   UNL     1       1.787   7.301  20.890  0.00  0.00    +0.000 N 
ATOM      4  C   UNL     1       1.228   8.540  20.768  0.00  0.00    +0.000 A 
ATOM      5  N   UNL     1       0.987   9.213  19.676  0.00  0.00    +0.000 NA
ATOM      6  C   UNL     1       0.508  10.461  19.997  0.00  0.00    +0.000 A 
ATOM      7  C   UNL     1       0.370  10.716  21.346  0.00  0.00    +0.000 A 
ATOM      8  S   UNL     1       0.812   9.308  22.235  0.00  0.00    +0.000 S 
ATOM      9  H   UNL     1       1.800   6.863  21.807  0.00  0.00    +0.000 HD
ENDROOT
BRANCH   1  15
ATOM     10  C   UNL     1       2.617   3.137  17.066  0.00  0.00    +0.000 C 
ATOM     11  N   UNL     1       2.179   3.916  18.231  0.00  0.00    +0.000 NA
ATOM     12  C   UNL     1       1.420   3.048  19.149  0.00  0.00    +0.000 C 
ATOM     13  C   UNL     1       0.949   3.812  20.387  0.00  0.00    +0.000 C 
ATOM     14  C   UNL     1       2.111   4.495  21.102  0.00  0.00    +0.000 C 
ATOM     15  C   UNL     1       2.989   5.303  20.145  0.00  0.00    +0.000 C 
ATOM     16  C   UNL     1       3.362   4.493  18.903  0.00  0.00    +0.000 C 
ENDBRANCH   1  15
BRANCH   6  17
ATOM     17  C   UNL     1       0.183  11.475  18.910  0.00  0.00    +0.000 C 
ATOM     18  C   UNL     1      -1.225  11.464  18.344  0.00  0.00    +0.000 C 
ATOM     19  C   UNL     1      -0.807  12.576  19.239  0.00  0.00    +0.000 C 
ENDBRANCH   6  17
TORSDOF 2
ENDMDL
MODEL 3
REMARK VINA RESULT:      -6.2      1.750      2.380
REMARK  Name = 
REMARK  3 active torsions:
REMARK  status: ('A' for Active; 'I' for Inactive)
REMARK    1  A    between atoms: C_1  and  N_2
REMARK    2  A    between atoms: C_6  and  C_7
REMARK    3  A    between atoms: C_12  and  C_13
REMARK                            x       y       z     vdW  Elec       q    Type
REMARK                         _______ _______ _______ _____ _____    ______ ____
ROOT
ATOM      1  C   UNL     1       2.946   5.013  20.155  0.00  0.00    +0.000 C 
ATOM      2  O   UNL     1       2.185   4.716  21.074  0.00  0.00    +0.000 OA
ATOM      3  N   UNL     1       2.980   6.209  19.479  0.00  0.00    +0.000 N 
ATOM      4  C   UNL     1       2.170   7.252  19.828  0.00  0.00    +0.000 A 
ATOM      5  N   UNL     1       1.423   7.374  20.891  0.00  0.00    +0.000 NA
ATOM      6  C   UNL     1       0.688   8.533  20.810  0.00  0.00    +0.000 A 
ATOM      7  C   UNL     1       0.904   9.297  19.682  0.00  0.00    +0.000 A 
ATOM      8  S   UNL     1       2.119   8.547  18.716  0.00  0.00    +0.000 S 
ATOM      9  H   UNL     1       3.589   6.317  18.673  0.00  0.00    +0.000 HD
ENDROOT
BRANCH   1  15
ATOM     10  C   UNL     1       6.059   5.584  16.980  0.00  0.00    +0.000 C 
ATOM     11  N   UNL     1       4.821   5.075  17.585  0.00  0.00    +0.000 NA
ATOM     12  C   UNL     1       4.224   4.055  16.705  0.00  0.00    +0.000 C 
ATOM     13  C   UNL     1       2.935   3.485  17.298  0.00  0.00    +0.000 C 
ATOM     14  C   UNL     1       3.156   2.943  18.707  0.00  0.00    +0.000 C 
ATOM     15  C   UNL     1       3.888   3.940  19.606  0.00  0.00    +0.000 C 
ATOM     16  C   UNL     1       5.128   4.514  18.917  0.00  0.00    +0.000 C 
ENDBRANCH   1  15
BRANCH   6  17
ATOM     17  C   UNL     1      -0.303   8.905  21.902  0.00  0.00    +0.000 C 
ATOM     18  C   UNL     1       0.260   9.469  23.194  0.00  0.00    +0.000 C 
ATOM     19  C   UNL     1      -0.456  10.372  22.254  0.00  0.00    +0.000 C 
ENDBRANCH   6  17
TORSDOF 2
ENDMDL
MODEL 4
REMARK VINA RESULT:      -6.1      3.168      6.098
REMARK  Name = 
REMARK  3 active torsions:
REMARK  status: ('A' for Active; 'I' for Inactive)
REMARK    1  A    between atoms: C_1  and  N_2
REMARK    2  A    between atoms: C_6  and  C_7
REMARK    3  A    between atoms: C_12  and  C_13
REMARK                            x       y       z     vdW  Elec       q    Type
REMARK                         _______ _______ _______ _____ _____    ______ ____
ROOT
ATOM      1  C   UNL     1       2.641   3.273  17.925  0.00  0.00    +0.000 C 
ATOM      2  O   UNL     1       3.052   2.256  17.371  0.00  0.00    +0.000 OA
ATOM      3  N   UNL     1       3.167   4.538  17.802  0.00  0.00    +0.000 N 
ATOM      4  C   UNL     1       4.209   4.801  16.960  0.00  0.00    +0.000 A 
ATOM      5  N   UNL     1       4.727   4.023  16.049  0.00  0.00    +0.000 NA
ATOM      6  C   UNL     1       5.826   4.632  15.491  0.00  0.00    +0.000 A 
ATOM      7  C   UNL     1       6.120   5.889  15.977  0.00  0.00    +0.000 A 
ATOM      8  S   UNL     1       4.933   6.336  17.143  0.00  0.00    +0.000 S 
ATOM      9  H   UNL     1       2.805   5.293  18.377  0.00  0.00    +0.000 HD
ENDROOT
BRANCH   1  15
ATOM     10  C   UNL     1       1.519   6.298  21.038  0.00  0.00    +0.000 C 
ATOM     11  N   UNL     1       2.025   5.025  20.510  0.00  0.00    +0.000 NA
ATOM     12  C   UNL     1       2.229   4.075  21.618  0.00  0.00    +0.000 C 
ATOM     13  C   UNL     1       2.746   2.727  21.117  0.00  0.00    +0.000 C 
ATOM     14  C   UNL     1       1.835   2.139  20.044  0.00  0.00    +0.000 C 
ATOM     15  C   UNL     1       1.506   3.149  18.943  0.00  0.00    +0.000 C 
ATOM     16  C   UNL     1       1.061   4.491  19.525  0.00  0.00    +0.000 C 
ENDBRANCH   1  15
BRANCH   6  17
ATOM     17  C   UNL     1       6.652   3.926  14.425  0.00  0.00    +0.000 C 
ATOM     18  C   UNL     1       6.001   3.703  13.072  0.00  0.00    +0.000 C 
ATOM     19  C   UNL     1       7.073   4.725  13.207  0.00  0.00    +0.000 C 
ENDBRANCH   6  17
TORSDOF 2
ENDMDL
MODEL 5
REMARK VINA RESULT:      -6.0      0.870      1.060
REMARK  Name = 
REMARK  3 active torsions:
REMARK  status: ('A' for Active; 'I' for Inactive)
REMARK    1  A    between atoms: C_1  and  N_2
REMARK    2  A    between atoms: C_6  and  C_7
REMARK    3  A    between atoms: C_12  and  C_13
REMARK                            x       y       z     vdW  Elec       q    Type
REMARK                         _______ _______ _______ _____ _____    ______ ____
ROOT
ATOM      1  C   UNL     1       2.359   5.353  20.237  0.00  0.00    +0.000 C 
ATOM      2  O   UNL     1       1.495   5.540  21.091  0.00  0.00    +0.000 OA
ATOM      3  N   UNL     1       2.755   6.246  19.269  0.00  0.00    +0.000 N 
ATOM      4  C   UNL     1       2.242   7.511  19.208  0.00  0.00    +0.000 A 
ATOM      5  N   UNL     1       1.498   8.123  20.088  0.00  0.00    +0.000 NA
ATOM      6  C   UNL     1       1.113   9.348  19.596  0.00  0.00    +0.000 A 
ATOM      7  C   UNL     1       1.592   9.662  18.341  0.00  0.00    +0.000 A 
ATOM      8  S   UNL     1       2.608   8.385  17.788  0.00  0.00    +0.000 S 
ATOM      9  H   UNL     1       3.415   5.956  18.554  0.00  0.00    +0.000 HD
ENDROOT
BRANCH   1  15
ATOM     10  C   UNL     1       4.701   3.767  16.759  0.00  0.00    +0.000 C 
ATOM     11  N   UNL     1       3.582   3.864  17.704  0.00  0.00    +0.000 NA
ATOM     12  C   UNL     1       2.671   2.721  17.512  0.00  0.00    +0.000 C 
ATOM     13  C   UNL     1       1.491   2.770  18.483  0.00  0.00    +0.000 C 
ATOM     14  C   UNL     1       1.960   2.869  19.932  0.00  0.00    +0.000 C 
ATOM     15  C   UNL     1       3.003   3.970  20.132  0.00  0.00    +0.000 C 
ATOM     16  C   UNL     1       4.113   3.893  19.083  0.00  0.00    +0.000 C 
ENDBRANCH   1  15
BRANCH   6  17
ATOM     17  C   UNL     1       0.200  10.260  20.402  0.00  0.00    +0.000 C 
ATOM     18  C   UNL     1       0.786  11.567  20.904  0.00  0.00    +0.000 C 
ATOM     19  C   UNL     1      -0.199  11.588  19.789  0.00  0.00    +0.000 C 
ENDBRANCH   6  17
TORSDOF 2
ENDMDL
MODEL 6
REMARK VINA RESULT:      -6.0      1.967      3.008
REMARK  Name = 
REMARK  3 active torsions:
REMARK  status: ('A' for Active; 'I' for Inactive)
REMARK    1  A    between atoms: C_1  and  N_2
REMARK    2  A    between atoms: C_6  and  C_7
REMARK    3  A    between atoms: C_12  and  C_13
REMARK                            x       y       z     vdW  Elec       q    Type
REMARK                         _______ _______ _______ _____ _____    ______ ____
ROOT
ATOM      1  C   UNL     1       2.671   6.554  18.767  0.00  0.00    +0.000 C 
ATOM      2  O   UNL     1       2.173   5.875  19.663  0.00  0.00    +0.000 OA
ATOM      3  N   UNL     1       2.418   7.882  18.514  0.00  0.00    +0.000 N 
ATOM      4  C   UNL     1       1.597   8.620  19.317  0.00  0.00    +0.000 A 
ATOM      5  N   UNL     1       1.099   8.295  20.479  0.00  0.00    +0.000 NA
ATOM      6  C   UNL     1       0.240   9.281  20.906  0.00  0.00    +0.000 A 
ATOM      7  C   UNL     1       0.111  10.364  20.062  0.00  0.00    +0.000 A 
ATOM      8  S   UNL     1       1.153  10.151  18.706  0.00  0.00    +0.000 S 
ATOM      9  H   UNL     1       2.816   8.323  17.690  0.00  0.00    +0.000 HD
ENDROOT
BRANCH   1  15
ATOM     10  C   UNL     1       3.346   2.142  18.342  0.00  0.00    +0.000 C 
ATOM     11  N   UNL     1       3.684   3.539  18.640  0.00  0.00    +0.000 NA
ATOM     12  C   UNL     1       5.137   3.661  18.857  0.00  0.00    +0.000 C 
ATOM     13  C   UNL     1       5.542   5.104  19.160  0.00  0.00    +0.000 C 
ATOM     14  C   UNL     1       5.060   6.063  18.076  0.00  0.00    +0.000 C 
ATOM     15  C   UNL     1       3.579   5.869  17.744  0.00  0.00    +0.000 C 
ATOM     16  C   UNL     1       3.240   4.395  17.519  0.00  0.00    +0.000 C 
ENDBRANCH   1  15
BRANCH   6  17
ATOM     17  C   UNL     1      -0.516   9.140  22.219  0.00  0.00    +0.000 C 
ATOM     18  C   UNL     1       0.222   9.511  23.492  0.00  0.00    +0.000 C 
ATOM     19  C   UNL     1      -0.853  10.406  22.984  0.00  0.00    +0.000 C 
ENDBRANCH   6  17
TORSDOF 2
ENDMDL
MODEL 7
REMARK VINA RESULT:      -5.8      4.034      6.074
REMARK  Name = 
REMARK  3 active torsions:
REMARK  status: ('A' for Active; 'I' for Inactive)
REMARK    1  A    between atoms: C_1  and  N_2
REMARK    2  A    between atoms: C_6  and  C_7
REMARK    3  A    between atoms: C_12  and  C_13
REMARK                            x       y       z     vdW  Elec       q    Type
REMARK                         _______ _______ _______ _____ _____    ______ ____
ROOT
ATOM      1  C   UNL     1       4.277   5.804  17.441  0.00  0.00    +0.000 C 
ATOM      2  O   UNL     1       4.134   6.300  18.556  0.00  0.00    +0.000 OA
ATOM      3  N   UNL     1       3.774   4.597  17.016  0.00  0.00    +0.000 N 
ATOM      4  C   UNL     1       2.976   3.831  17.817  0.00  0.00    +0.000 A 
ATOM      5  N   UNL     1       2.425   4.156  18.955  0.00  0.00    +0.000 NA
ATOM      6  C   UNL     1       1.781   3.063  19.486  0.00  0.00    +0.000 A 
ATOM      7  C   UNL     1       1.834   1.914  18.724  0.00  0.00    +0.000 A 
ATOM      8  S   UNL     1       2.683   2.243  17.262  0.00  0.00    +0.000 S 
ATOM      9  H   UNL     1       4.029   4.238  16.100  0.00  0.00    +0.000 HD
ENDROOT
BRANCH   1  15
ATOM     10  C   UNL     1       6.190   3.949  13.836  0.00  0.00    +0.000 C 
ATOM     11  N   UNL     1       6.128   4.575  15.163  0.00  0.00    +0.000 NA
ATOM     12  C   UNL     1       7.490   4.908  15.617  0.00  0.00    +0.000 C 
ATOM     13  C   UNL     1       7.478   5.573  16.993  0.00  0.00    +0.000 C 
ATOM     14  C   UNL     1       6.569   6.799  17.017  0.00  0.00    +0.000 C 
ATOM     15  C   UNL     1       5.186   6.509  16.433  0.00  0.00    +0.000 C 
ATOM     16  C   UNL     1       5.282   5.784  15.090  0.00  0.00    +0.000 C 
ENDBRANCH   1  15
BRANCH   6  17
ATOM     17  C   UNL     1       1.085   3.149  20.836  0.00  0.00    +0.000 C 
ATOM     18  C   UNL     1       1.617   2.269  21.952  0.00  0.00    +0.000 C 
ATOM     19  C   UNL     1       1.860   3.736  22.000  0.00  0.00    +0.000 C 
ENDBRANCH   6  17
TORSDOF 2
ENDMDL
MODEL 8
REMARK VINA RESULT:      -5.8      2.271      3.168
REMARK  Name = 
REMARK  3 active torsions:
REMARK  status: ('A' for Active; 'I' for Inactive)
REMARK    1  A    between atoms: C_1  and  N_2
REMARK    2  A    between atoms: C_6  and  C_7
REMARK    3  A    between atoms: C_12  and  C_13
REMARK                            x       y       z     vdW  Elec       q    Type
REMARK                         _______ _______ _______ _____ _____    ______ ____
ROOT
ATOM      1  C   UNL     1       3.112   5.377  19.563  0.00  0.00    +0.000 C 
ATOM      2  O   UNL     1       2.493   4.969  20.543  0.00  0.00    +0.000 OA
ATOM      3  N   UNL     1       2.981   6.612  18.973  0.00  0.00    +0.000 N 
ATOM      4  C   UNL     1       2.153   7.568  19.488  0.00  0.00    +0.000 A 
ATOM      5  N   UNL     1       1.538   7.568  20.639  0.00  0.00    +0.000 NA
ATOM      6  C   UNL     1       0.723   8.672  20.729  0.00  0.00    +0.000 A 
ATOM      7  C   UNL     1       0.745   9.517  19.638  0.00  0.00    +0.000 A 
ATOM      8  S   UNL     1       1.877   8.921  18.484  0.00  0.00    +0.000 S 
ATOM      9  H   UNL     1       3.477   6.814  18.109  0.00  0.00    +0.000 HD
ENDROOT
BRANCH   1  15
ATOM     10  C   UNL     1       7.551   5.811  19.114  0.00  0.00    +0.000 C 
ATOM     11  N   UNL     1       6.147   5.761  18.688  0.00  0.00    +0.000 NA
ATOM     12  C   UNL     1       6.077   5.759  17.215  0.00  0.00    +0.000 C 
ATOM     13  C   UNL     1       4.632   5.696  16.720  0.00  0.00    +0.000 C 
ATOM     14  C   UNL     1       3.886   4.505  17.313  0.00  0.00    +0.000 C 
ATOM     15  C   UNL     1       4.048   4.414  18.831  0.00  0.00    +0.000 C 
ATOM     16  C   UNL     1       5.512   4.551  19.251  0.00  0.00    +0.000 C 
ENDBRANCH   1  15
BRANCH   6  17
ATOM     17  C   UNL     1      -0.147   8.901  21.955  0.00  0.00    +0.000 C 
ATOM     18  C   UNL     1       0.518   9.497  23.182  0.00  0.00    +0.000 C 
ATOM     19  C   UNL     1      -0.415  10.332  22.379  0.00  0.00    +0.000 C 
ENDBRANCH   6  17
TORSDOF 2
ENDMDL
MODEL 9
REMARK VINA RESULT:      -5.8      2.081      2.559
REMARK  Name = 
REMARK  3 active torsions:
REMARK  status: ('A' for Active; 'I' for Inactive)
REMARK    1  A    between atoms: C_1  and  N_2
REMARK    2  A    between atoms: C_6  and  C_7
REMARK    3  A    between atoms: C_12  and  C_13
REMARK                            x       y       z     vdW  Elec       q    Type
REMARK                         _______ _______ _______ _____ _____    ______ ____
ROOT
ATOM      1  C   UNL     1       2.351   6.697  19.731  0.00  0.00    +0.000 C 
ATOM      2  O   UNL     1       2.747   7.283  18.726  0.00  0.00    +0.000 OA
ATOM      3  N   UNL     1       1.636   7.249  20.769  0.00  0.00    +0.000 N 
ATOM      4  C   UNL     1       1.228   8.552  20.743  0.00  0.00    +0.000 A 
ATOM      5  N   UNL     1       1.259   9.388  19.741  0.00  0.00    +0.000 NA
ATOM      6  C   UNL     1       0.849  10.631  20.162  0.00  0.00    +0.000 A 
ATOM      7  C   UNL     1       0.487  10.719  21.491  0.00  0.00    +0.000 A 
ATOM      8  S   UNL     1       0.621   9.162  22.218  0.00  0.00    +0.000 S 
ATOM      9  H   UNL     1       1.437   6.695  21.596  0.00  0.00    +0.000 HD
ENDROOT
BRANCH   1  15
ATOM     10  C   UNL     1       5.131   4.316  17.143  0.00  0.00    +0.000 C 
ATOM     11  N   UNL     1       3.857   4.700  17.763  0.00  0.00    +0.000 NA
ATOM     12  C   UNL     1       2.838   3.675  17.477  0.00  0.00    +0.000 C 
ATOM     13  C   UNL     1       1.492   4.025  18.112  0.00  0.00    +0.000 C 
ATOM     14  C   UNL     1       1.626   4.271  19.612  0.00  0.00    +0.000 C 
ATOM     15  C   UNL     1       2.762   5.239  19.943  0.00  0.00    +0.000 C 
ATOM     16  C   UNL     1       4.055   4.860  19.219  0.00  0.00    +0.000 C 
ENDBRANCH   1  15
BRANCH   6  17
ATOM     17  C   UNL     1       0.828  11.812  19.204  0.00  0.00    +0.000 C 
ATOM     18  C   UNL     1       1.782  12.958  19.487  0.00  0.00    +0.000 C 
ATOM     19  C   UNL     1       2.053  12.049  18.341  0.00  0.00    +0.000 C 
ENDBRANCH   6  17
TORSDOF 2
ENDMDL
