MODEL 1
REMARK VINA RESULT:      -7.2      0.000      0.000
REMARK  Name = 
REMARK  12 active torsions:
REMARK  status: ('A' for Active; 'I' for Inactive)
REMARK    1  A    between atoms: C_1  and  C_2
REMARK    2  A    between atoms: C_2  and  O_3
REMARK    3  A    between atoms: O_3  and  P_4
REMARK    4  A    between atoms: P_4  and  O_6
REMARK    5  A    between atoms: P_4  and  C_9
REMARK    6  A    between atoms: O_6  and  C_7
REMARK    7  A    between atoms: C_7  and  C_8
REMARK    8  A    between atoms: C_9  and  N_10
REMARK    9  A    between atoms: C_9  and  C_19
REMARK   10  A    between atoms: N_10  and  C_11
REMARK   11  A    between atoms: C_12  and  C_13
REMARK   12  A    between atoms: C_17  and  C_18
REMARK                            x       y       z     vdW  Elec       q    Type
REMARK                         _______ _______ _______ _____ _____    ______ ____
ROOT
ATOM      1  C   UNL     1       5.133   4.382  17.458  0.00  0.00    +0.000 C 
ENDROOT
BRANCH   1   2
ATOM      2  C   UNL     1       5.757   4.149  16.073  0.00  0.00    +0.000 A 
ATOM      3  C   UNL     1       5.070   3.478  15.041  0.00  0.00    +0.000 A 
ATOM      4  C   UNL     1       5.508   3.542  13.705  0.00  0.00    +0.000 A 
ATOM      5  C   UNL     1       6.628   4.299  13.434  0.00  0.00    +0.000 A 
ATOM      6  C   UNL     1       7.339   4.920  14.425  0.00  0.00    +0.000 A 
ATOM      7  C   UNL     1       6.966   4.819  15.757  0.00  0.00    +0.000 A 
ATOM      8  O   UNL     1       8.337   5.701  13.943  0.00  0.00    +0.000 OA
ATOM      9  C   UNL     1       8.206   5.460  12.524  0.00  0.00    +0.000 C 
ATOM     10  O   UNL     1       7.108   4.589  12.190  0.00  0.00    +0.000 OA
ENDBRANCH   1   2
BRANCH   1  11
ATOM     11  P   UNL     1       4.392   6.000  17.883  0.00  0.00    +0.000 P 
ATOM     12  O   UNL     1       4.532   6.435  16.409  0.00  0.00    +0.000 OA
BRANCH  11  13
ATOM     13  O   UNL     1       3.692   7.530  18.285  0.00  0.00    +0.000 OA
BRANCH  13  15
ATOM     14  C   UNL     1       1.916   9.094  17.857  0.00  0.00    +0.000 C 
ATOM     15  C   UNL     1       2.289   7.638  18.060  0.00  0.00    +0.000 C 
ENDBRANCH  13  15
ENDBRANCH  11  13
BRANCH  11  16
ATOM     16  O   UNL     1       5.745   6.447  18.742  0.00  0.00    +0.000 OA
BRANCH  16  17
ATOM     17  C   UNL     1       6.532   5.447  19.386  0.00  0.00    +0.000 C 
ATOM     18  C   UNL     1       8.003   5.806  19.244  0.00  0.00    +0.000 C 
ENDBRANCH  16  17
ENDBRANCH  11  16
ENDBRANCH   1  11
BRANCH   1  19
ATOM     19  N   UNL     1       4.101   3.350  17.808  0.00  0.00    +0.000 N 
ATOM     20  H   UNL     1       4.138   2.577  17.148  0.00  0.00    +0.000 HD
BRANCH  19  21
ATOM     21  C   UNL     1       3.117   3.259  18.775  0.00  0.00    +0.000 A 
ATOM     22  C   UNL     1       1.791   3.742  18.673  0.00  0.00    +0.000 A 
ATOM     23  C   UNL     1       1.119   4.170  17.401  0.00  0.00    +0.000 C 
ATOM     24  C   UNL     1       0.930   3.736  19.813  0.00  0.00    +0.000 A 
ATOM     25  C   UNL     1       1.324   3.196  21.030  0.00  0.00    +0.000 A 
ATOM     26  C   UNL     1       2.584   2.637  21.119  0.00  0.00    +0.000 A 
ATOM     27  C   UNL     1       3.474   2.666  20.023  0.00  0.00    +0.000 A 
ATOM     28  C   UNL     1       4.828   2.037  20.237  0.00  0.00    +0.000 C 
ENDBRANCH  19  21
ENDBRANCH   1  19
TORSDOF 8
ENDMDL
MODEL 2
REMARK VINA RESULT:      -7.1      1.835      5.289
REMARK  Name = 
REMARK  12 active torsions:
REMARK  status: ('A' for Active; 'I' for Inactive)
REMARK    1  A    between atoms: C_1  and  C_2
REMARK    2  A    between atoms: C_2  and  O_3
REMARK    3  A    between atoms: O_3  and  P_4
REMARK    4  A    between atoms: P_4  and  O_6
REMARK    5  A    between atoms: P_4  and  C_9
REMARK    6  A    between atoms: O_6  and  C_7
REMARK    7  A    between atoms: C_7  and  C_8
REMARK    8  A    between atoms: C_9  and  N_10
REMARK    9  A    between atoms: C_9  and  C_19
REMARK   10  A    between atoms: N_10  and  C_11
REMARK   11  A    between atoms: C_12  and  C_13
REMARK   12  A    between atoms: C_17  and  C_18
REMARK                            x       y       z     vdW  Elec       q    Type
REMARK                         _______ _______ _______ _____ _____    ______ ____
ROOT
ATOM      1  C   UNL     1       3.989   5.774  17.350  0.00  0.00    +0.000 C 
ENDROOT
BRANCH   1   2
ATOM      2  C   UNL     1       3.006   6.731  18.041  0.00  0.00    +0.000 A 
ATOM      3  C   UNL     1       2.684   6.620  19.410  0.00  0.00    +0.000 A 
ATOM      4  C   UNL     1       2.043   7.666  20.100  0.00  0.00    +0.000 A 
ATOM      5  C   UNL     1       1.751   8.815  19.395  0.00  0.00    +0.000 A 
ATOM      6  C   UNL     1       2.009   8.926  18.055  0.00  0.00    +0.000 A 
ATOM      7  C   UNL     1       2.582   7.887  17.337  0.00  0.00    +0.000 A 
ATOM      8  O   UNL     1       1.751  10.168  17.574  0.00  0.00    +0.000 OA
ATOM      9  C   UNL     1       1.248  10.818  18.763  0.00  0.00    +0.000 C 
ATOM     10  O   UNL     1       1.265   9.972  19.929  0.00  0.00    +0.000 OA
ENDBRANCH   1   2
BRANCH   1  11
ATOM     11  P   UNL     1       5.785   6.128  17.350  0.00  0.00    +0.000 P 
ATOM     12  O   UNL     1       5.598   7.000  16.090  0.00  0.00    +0.000 OA
BRANCH  11  13
ATOM     13  O   UNL     1       7.482   6.462  17.350  0.00  0.00    +0.000 OA
BRANCH  13  15
ATOM     14  C   UNL     1       8.130   8.709  17.906  0.00  0.00    +0.000 C 
ATOM     15  C   UNL     1       7.941   7.294  18.412  0.00  0.00    +0.000 C 
ENDBRANCH  13  15
ENDBRANCH  11  13
BRANCH  11  16
ATOM     16  O   UNL     1       6.141   4.562  16.914  0.00  0.00    +0.000 OA
BRANCH  16  17
ATOM     17  C   UNL     1       6.988   4.319  15.793  0.00  0.00    +0.000 C 
ATOM     18  C   UNL     1       6.134   3.890  14.610  0.00  0.00    +0.000 C 
ENDBRANCH  16  17
ENDBRANCH  11  16
ENDBRANCH   1  11
BRANCH   1  19
ATOM     19  N   UNL     1       3.847   4.357  17.822  0.00  0.00    +0.000 N 
ATOM     20  H   UNL     1       4.495   3.752  17.323  0.00  0.00    +0.000 HD
BRANCH  19  21
ATOM     21  C   UNL     1       3.013   3.720  18.723  0.00  0.00    +0.000 A 
ATOM     22  C   UNL     1       1.604   3.623  18.641  0.00  0.00    +0.000 A 
ATOM     23  C   UNL     1       0.782   3.928  17.423  0.00  0.00    +0.000 C 
ATOM     24  C   UNL     1       0.853   3.085  19.731  0.00  0.00    +0.000 A 
ATOM     25  C   UNL     1       1.467   2.574  20.867  0.00  0.00    +0.000 A 
ATOM     26  C   UNL     1       2.847   2.577  20.921  0.00  0.00    +0.000 A 
ATOM     27  C   UNL     1       3.616   3.141  19.879  0.00  0.00    +0.000 A 
ATOM     28  C   UNL     1       5.114   3.101  20.050  0.00  0.00    +0.000 C 
ENDBRANCH  19  21
ENDBRANCH   1  19
TORSDOF 8
ENDMDL
MODEL 3
REMARK VINA RESULT:      -7.1      2.582      6.033
REMARK  Name = 
REMARK  12 active torsions:
REMARK  status: ('A' for Active; 'I' for Inactive)
REMARK    1  A    between atoms: C_1  and  C_2
REMARK    2  A    between atoms: C_2  and  O_3
REMARK    3  A    between atoms: O_3  and  P_4
REMARK    4  A    between atoms: P_4  and  O_6
REMARK    5  A    between atoms: P_4  and  C_9
REMARK    6  A    between atoms: O_6  and  C_7
REMARK    7  A    between atoms: C_7  and  C_8
REMARK    8  A    between atoms: C_9  and  N_10
REMARK    9  A    between atoms: C_9  and  C_19
REMARK   10  A    between atoms: N_10  and  C_11
REMARK   11  A    between atoms: C_12  and  C_13
REMARK   12  A    between atoms: C_17  and  C_18
REMARK                            x       y       z     vdW  Elec       q    Type
REMARK                         _______ _______ _______ _____ _____    ______ ____
ROOT
ATOM      1  C   UNL     1       3.590   6.766  17.947  0.00  0.00    +0.000 C 
ENDROOT
BRANCH   1   2
ATOM      2  C   UNL     1       2.690   7.891  18.484  0.00  0.00    +0.000 A 
ATOM      3  C   UNL     1       2.061   8.823  17.631  0.00  0.00    +0.000 A 
ATOM      4  C   UNL     1       1.009   9.639  18.087  0.00  0.00    +0.000 A 
ATOM      5  C   UNL     1       0.601   9.488  19.396  0.00  0.00    +0.000 A 
ATOM      6  C   UNL     1       1.229   8.626  20.254  0.00  0.00    +0.000 A 
ATOM      7  C   UNL     1       2.309   7.857  19.849  0.00  0.00    +0.000 A 
ATOM      8  O   UNL     1       0.610   8.544  21.458  0.00  0.00    +0.000 OA
ATOM      9  C   UNL     1      -0.459   9.499  21.277  0.00  0.00    +0.000 C 
ATOM     10  O   UNL     1      -0.486  10.087  19.962  0.00  0.00    +0.000 OA
ENDBRANCH   1   2
BRANCH   1  11
ATOM     11  P   UNL     1       5.342   7.094  17.536  0.00  0.00    +0.000 P 
ATOM     12  O   UNL     1       5.067   6.657  16.081  0.00  0.00    +0.000 OA
BRANCH  11  13
ATOM     13  O   UNL     1       6.999   7.405  17.147  0.00  0.00    +0.000 OA
BRANCH  13  15
ATOM     14  C   UNL     1       8.541   8.768  18.390  0.00  0.00    +0.000 C 
ATOM     15  C   UNL     1       7.435   8.745  17.354  0.00  0.00    +0.000 C 
ENDBRANCH  13  15
ENDBRANCH  11  13
BRANCH  11  16
ATOM     16  O   UNL     1       5.847   5.792  18.439  0.00  0.00    +0.000 OA
BRANCH  16  17
ATOM     17  C   UNL     1       7.186   5.320  18.307  0.00  0.00    +0.000 C 
ATOM     18  C   UNL     1       7.896   5.457  19.645  0.00  0.00    +0.000 C 
ENDBRANCH  16  17
ENDBRANCH  11  16
ENDBRANCH   1  11
BRANCH   1  19
ATOM     19  N   UNL     1       3.592   5.555  18.834  0.00  0.00    +0.000 N 
ATOM     20  H   UNL     1       4.214   5.700  19.625  0.00  0.00    +0.000 HD
BRANCH  19  21
ATOM     21  C   UNL     1       2.987   4.313  18.772  0.00  0.00    +0.000 A 
ATOM     22  C   UNL     1       3.168   3.339  17.761  0.00  0.00    +0.000 A 
ATOM     23  C   UNL     1       4.264   3.345  16.736  0.00  0.00    +0.000 C 
ATOM     24  C   UNL     1       2.348   2.170  17.730  0.00  0.00    +0.000 A 
ATOM     25  C   UNL     1       1.407   1.905  18.716  0.00  0.00    +0.000 A 
ATOM     26  C   UNL     1       1.284   2.801  19.760  0.00  0.00    +0.000 A 
ATOM     27  C   UNL     1       2.049   3.988  19.796  0.00  0.00    +0.000 A 
ATOM     28  C   UNL     1       1.823   4.900  20.976  0.00  0.00    +0.000 C 
ENDBRANCH  19  21
ENDBRANCH   1  19
TORSDOF 8
ENDMDL
MODEL 4
REMARK VINA RESULT:      -7.1      2.119      5.928
REMARK  Name = 
REMARK  12 active torsions:
REMARK  status: ('A' for Active; 'I' for Inactive)
REMARK    1  A    between atoms: C_1  and  C_2
REMARK    2  A    between atoms: C_2  and  O_3
REMARK    3  A    between atoms: O_3  and  P_4
REMARK    4  A    between atoms: P_4  and  O_6
REMARK    5  A    between atoms: P_4  and  C_9
REMARK    6  A    between atoms: O_6  and  C_7
REMARK    7  A    between atoms: C_7  and  C_8
REMARK    8  A    between atoms: C_9  and  N_10
REMARK    9  A    between atoms: C_9  and  C_19
REMARK   10  A    between atoms: N_10  and  C_11
REMARK   11  A    between atoms: C_12  and  C_13
REMARK   12  A    between atoms: C_17  and  C_18
REMARK                            x       y       z     vdW  Elec       q    Type
REMARK                         _______ _______ _______ _____ _____    ______ ____
ROOT
ATOM      1  C   UNL     1       3.815   6.224  17.910  0.00  0.00    +0.000 C 
ENDROOT
BRANCH   1   2
ATOM      2  C   UNL     1       2.988   7.418  18.414  0.00  0.00    +0.000 A 
ATOM      3  C   UNL     1       2.469   8.396  17.541  0.00  0.00    +0.000 A 
ATOM      4  C   UNL     1       1.470   9.295  17.957  0.00  0.00    +0.000 A 
ATOM      5  C   UNL     1       1.001   9.178  19.249  0.00  0.00    +0.000 A 
ATOM      6  C   UNL     1       1.523   8.269  20.129  0.00  0.00    +0.000 A 
ATOM      7  C   UNL     1       2.553   7.415  19.764  0.00  0.00    +0.000 A 
ATOM      8  O   UNL     1       0.854   8.238  21.308  0.00  0.00    +0.000 OA
ATOM      9  C   UNL     1      -0.128   9.275  21.088  0.00  0.00    +0.000 C 
ATOM     10  O   UNL     1      -0.056   9.863  19.774  0.00  0.00    +0.000 OA
ENDBRANCH   1   2
BRANCH   1  11
ATOM     11  P   UNL     1       5.595   6.419  17.535  0.00  0.00    +0.000 P 
ATOM     12  O   UNL     1       5.224   7.067  16.184  0.00  0.00    +0.000 OA
BRANCH  11  13
ATOM     13  O   UNL     1       7.278   6.603  17.180  0.00  0.00    +0.000 OA
BRANCH  13  15
ATOM     14  C   UNL     1       7.945   8.838  17.760  0.00  0.00    +0.000 C 
ATOM     15  C   UNL     1       8.021   7.369  18.123  0.00  0.00    +0.000 C 
ENDBRANCH  13  15
ENDBRANCH  11  13
BRANCH  11  16
ATOM     16  O   UNL     1       5.784   4.776  17.348  0.00  0.00    +0.000 OA
BRANCH  16  17
ATOM     17  C   UNL     1       6.760   4.279  16.435  0.00  0.00    +0.000 C 
ATOM     18  C   UNL     1       6.068   3.860  15.147  0.00  0.00    +0.000 C 
ENDBRANCH  16  17
ENDBRANCH  11  16
ENDBRANCH   1  11
BRANCH   1  19
ATOM     19  N   UNL     1       3.710   5.027  18.810  0.00  0.00    +0.000 N 
ATOM     20  H   UNL     1       4.598   4.857  19.275  0.00  0.00    +0.000 HD
BRANCH  19  21
ATOM     21  C   UNL     1       2.709   4.113  19.086  0.00  0.00    +0.000 A 
ATOM     22  C   UNL     1       2.135   3.853  20.353  0.00  0.00    +0.000 A 
ATOM     23  C   UNL     1       2.287   4.719  21.570  0.00  0.00    +0.000 C 
ATOM     24  C   UNL     1       1.231   2.760  20.526  0.00  0.00    +0.000 A 
ATOM     25  C   UNL     1       0.826   1.966  19.461  0.00  0.00    +0.000 A 
ATOM     26  C   UNL     1       1.306   2.266  18.202  0.00  0.00    +0.000 A 
ATOM     27  C   UNL     1       2.234   3.312  18.006  0.00  0.00    +0.000 A 
ATOM     28  C   UNL     1       2.701   3.542  16.590  0.00  0.00    +0.000 C 
ENDBRANCH  19  21
ENDBRANCH   1  19
TORSDOF 8
ENDMDL
MODEL 5
REMARK VINA RESULT:      -7.1      1.689      5.345
REMARK  Name = 
REMARK  12 active torsions:
REMARK  status: ('A' for Active; 'I' for Inactive)
REMARK    1  A    between atoms: C_1  and  C_2
REMARK    2  A    between atoms: C_2  and  O_3
REMARK    3  A    between atoms: O_3  and  P_4
REMARK    4  A    between atoms: P_4  and  O_6
REMARK    5  A    between atoms: P_4  and  C_9
REMARK    6  A    between atoms: O_6  and  C_7
REMARK    7  A    between atoms: C_7  and  C_8
REMARK    8  A    between atoms: C_9  and  N_10
REMARK    9  A    between atoms: C_9  and  C_19
REMARK   10  A    between atoms: N_10  and  C_11
REMARK   11  A    between atoms: C_12  and  C_13
REMARK   12  A    between atoms: C_17  and  C_18
REMARK                            x       y       z     vdW  Elec       q    Type
REMARK                         _______ _______ _______ _____ _____    ______ ____
ROOT
ATOM      1  C   UNL     1       3.947   5.425  17.279  0.00  0.00    +0.000 C 
ENDROOT
BRANCH   1   2
ATOM      2  C   UNL     1       3.383   6.673  17.976  0.00  0.00    +0.000 A 
ATOM      3  C   UNL     1       3.034   7.840  17.263  0.00  0.00    +0.000 A 
ATOM      4  C   UNL     1       2.240   8.845  17.846  0.00  0.00    +0.000 A 
ATOM      5  C   UNL     1       1.799   8.645  19.138  0.00  0.00    +0.000 A 
ATOM      6  C   UNL     1       2.165   7.544  19.865  0.00  0.00    +0.000 A 
ATOM      7  C   UNL     1       2.999   6.570  19.337  0.00  0.00    +0.000 A 
ATOM      8  O   UNL     1       1.540   7.480  21.067  0.00  0.00    +0.000 OA
ATOM      9  C   UNL     1       0.770   8.702  21.036  0.00  0.00    +0.000 C 
ATOM     10  O   UNL     1       0.912   9.437  19.805  0.00  0.00    +0.000 OA
ENDBRANCH   1   2
BRANCH   1  11
ATOM     11  P   UNL     1       5.594   5.470  16.482  0.00  0.00    +0.000 P 
ATOM     12  O   UNL     1       5.903   4.079  17.075  0.00  0.00    +0.000 OA
BRANCH  11  13
ATOM     13  O   UNL     1       7.150   5.513  15.728  0.00  0.00    +0.000 OA
BRANCH  13  15
ATOM     14  C   UNL     1       5.862   4.369  14.052  0.00  0.00    +0.000 C 
ATOM     15  C   UNL     1       7.233   4.872  14.459  0.00  0.00    +0.000 C 
ENDBRANCH  13  15
ENDBRANCH  11  13
BRANCH  11  16
ATOM     16  O   UNL     1       6.115   6.663  17.518  0.00  0.00    +0.000 OA
BRANCH  16  17
ATOM     17  C   UNL     1       7.501   6.762  17.838  0.00  0.00    +0.000 C 
ATOM     18  C   UNL     1       7.769   6.000  19.126  0.00  0.00    +0.000 C 
ENDBRANCH  16  17
ENDBRANCH  11  16
ENDBRANCH   1  11
BRANCH   1  19
ATOM     19  N   UNL     1       3.951   4.217  18.169  0.00  0.00    +0.000 N 
ATOM     20  H   UNL     1       4.842   3.731  18.099  0.00  0.00    +0.000 HD
BRANCH  19  21
ATOM     21  C   UNL     1       3.014   3.624  18.994  0.00  0.00    +0.000 A 
ATOM     22  C   UNL     1       1.609   3.645  18.823  0.00  0.00    +0.000 A 
ATOM     23  C   UNL     1       0.894   4.053  17.568  0.00  0.00    +0.000 C 
ATOM     24  C   UNL     1       0.749   3.139  19.845  0.00  0.00    +0.000 A 
ATOM     25  C   UNL     1       1.246   2.545  20.998  0.00  0.00    +0.000 A 
ATOM     26  C   UNL     1       2.616   2.433  21.137  0.00  0.00    +0.000 A 
ATOM     27  C   UNL     1       3.493   2.963  20.165  0.00  0.00    +0.000 A 
ATOM     28  C   UNL     1       4.969   2.795  20.426  0.00  0.00    +0.000 C 
ENDBRANCH  19  21
ENDBRANCH   1  19
TORSDOF 8
ENDMDL
MODEL 6
REMARK VINA RESULT:      -6.9      2.215      5.896
REMARK  Name = 
REMARK  12 active torsions:
REMARK  status: ('A' for Active; 'I' for Inactive)
REMARK    1  A    between atoms: C_1  and  C_2
REMARK    2  A    between atoms: C_2  and  O_3
REMARK    3  A    between atoms: O_3  and  P_4
REMARK    4  A    between atoms: P_4  and  O_6
REMARK    5  A    between atoms: P_4  and  C_9
REMARK    6  A    between atoms: O_6  and  C_7
REMARK    7  A    between atoms: C_7  and  C_8
REMARK    8  A    between atoms: C_9  and  N_10
REMARK    9  A    between atoms: C_9  and  C_19
REMARK   10  A    between atoms: N_10  and  C_11
REMARK   11  A    between atoms: C_12  and  C_13
REMARK   12  A    between atoms: C_17  and  C_18
REMARK                            x       y       z     vdW  Elec       q    Type
REMARK                         _______ _______ _______ _____ _____    ______ ____
ROOT
ATOM      1  C   UNL     1       3.761   6.317  18.075  0.00  0.00    +0.000 C 
ENDROOT
BRANCH   1   2
ATOM      2  C   UNL     1       2.909   7.520  18.509  0.00  0.00    +0.000 A 
ATOM      3  C   UNL     1       2.410   8.462  17.585  0.00  0.00    +0.000 A 
ATOM      4  C   UNL     1       1.390   9.365  17.938  0.00  0.00    +0.000 A 
ATOM      5  C   UNL     1       0.881   9.290  19.218  0.00  0.00    +0.000 A 
ATOM      6  C   UNL     1       1.384   8.418  20.146  0.00  0.00    +0.000 A 
ATOM      7  C   UNL     1       2.432   7.562  19.844  0.00  0.00    +0.000 A 
ATOM      8  O   UNL     1       0.678   8.422  21.303  0.00  0.00    +0.000 OA
ATOM      9  C   UNL     1      -0.305   9.442  21.016  0.00  0.00    +0.000 C 
ATOM     10  O   UNL     1      -0.197   9.983  19.685  0.00  0.00    +0.000 OA
ENDBRANCH   1   2
BRANCH   1  11
ATOM     11  P   UNL     1       5.562   6.502  17.805  0.00  0.00    +0.000 P 
ATOM     12  O   UNL     1       5.273   7.202  16.460  0.00  0.00    +0.000 OA
BRANCH  11  13
ATOM     13  O   UNL     1       7.264   6.677  17.551  0.00  0.00    +0.000 OA
BRANCH  13  15
ATOM     14  C   UNL     1       8.457   8.570  18.430  0.00  0.00    +0.000 C 
ATOM     15  C   UNL     1       7.703   7.997  17.246  0.00  0.00    +0.000 C 
ENDBRANCH  13  15
ENDBRANCH  11  13
BRANCH  11  16
ATOM     16  O   UNL     1       5.743   4.865  17.571  0.00  0.00    +0.000 OA
BRANCH  16  17
ATOM     17  C   UNL     1       6.812   4.384  16.760  0.00  0.00    +0.000 C 
ATOM     18  C   UNL     1       6.263   3.991  15.397  0.00  0.00    +0.000 C 
ENDBRANCH  16  17
ENDBRANCH  11  16
ENDBRANCH   1  11
BRANCH   1  19
ATOM     19  N   UNL     1       3.598   5.134  18.983  0.00  0.00    +0.000 N 
ATOM     20  H   UNL     1       4.367   5.091  19.647  0.00  0.00    +0.000 HD
BRANCH  19  21
ATOM     21  C   UNL     1       2.681   4.102  19.068  0.00  0.00    +0.000 A 
ATOM     22  C   UNL     1       2.254   3.267  18.009  0.00  0.00    +0.000 A 
ATOM     23  C   UNL     1       2.928   3.147  16.673  0.00  0.00    +0.000 C 
ATOM     24  C   UNL     1       1.172   2.354  18.200  0.00  0.00    +0.000 A 
ATOM     25  C   UNL     1       0.554   2.193  19.433  0.00  0.00    +0.000 A 
ATOM     26  C   UNL     1       1.022   2.935  20.500  0.00  0.00    +0.000 A 
ATOM     27  C   UNL     1       2.060   3.878  20.333  0.00  0.00    +0.000 A 
ATOM     28  C   UNL     1       2.482   4.640  21.564  0.00  0.00    +0.000 C 
ENDBRANCH  19  21
ENDBRANCH   1  19
TORSDOF 8
ENDMDL
MODEL 7
REMARK VINA RESULT:      -6.9      0.280      1.697
REMARK  Name = 
REMARK  12 active torsions:
REMARK  status: ('A' for Active; 'I' for Inactive)
REMARK    1  A    between atoms: C_1  and  C_2
REMARK    2  A    between atoms: C_2  and  O_3
REMARK    3  A    between atoms: O_3  and  P_4
REMARK    4  A    between atoms: P_4  and  O_6
REMARK    5  A    between atoms: P_4  and  C_9
REMARK    6  A    between atoms: O_6  and  C_7
REMARK    7  A    between atoms: C_7  and  C_8
REMARK    8  A    between atoms: C_9  and  N_10
REMARK    9  A    between atoms: C_9  and  C_19
REMARK   10  A    between atoms: N_10  and  C_11
REMARK   11  A    between atoms: C_12  and  C_13
REMARK   12  A    between atoms: C_17  and  C_18
REMARK                            x       y       z     vdW  Elec       q    Type
REMARK                         _______ _______ _______ _____ _____    ______ ____
ROOT
ATOM      1  C   UNL     1       5.049   4.500  17.261  0.00  0.00    +0.000 C 
ENDROOT
BRANCH   1   2
ATOM      2  C   UNL     1       5.720   4.240  15.902  0.00  0.00    +0.000 A 
ATOM      3  C   UNL     1       5.064   3.554  14.859  0.00  0.00    +0.000 A 
ATOM      4  C   UNL     1       5.550   3.592  13.538  0.00  0.00    +0.000 A 
ATOM      5  C   UNL     1       6.684   4.339  13.293  0.00  0.00    +0.000 A 
ATOM      6  C   UNL     1       7.363   4.972  14.298  0.00  0.00    +0.000 A 
ATOM      7  C   UNL     1       6.943   4.898  15.618  0.00  0.00    +0.000 A 
ATOM      8  O   UNL     1       8.382   5.739  13.838  0.00  0.00    +0.000 OA
ATOM      9  C   UNL     1       8.299   5.475  12.420  0.00  0.00    +0.000 C 
ATOM     10  O   UNL     1       7.209   4.603  12.062  0.00  0.00    +0.000 OA
ENDBRANCH   1   2
BRANCH   1  11
ATOM     11  P   UNL     1       4.402   6.162  17.674  0.00  0.00    +0.000 P 
ATOM     12  O   UNL     1       4.605   6.590  16.205  0.00  0.00    +0.000 OA
BRANCH  11  13
ATOM     13  O   UNL     1       3.791   7.732  18.065  0.00  0.00    +0.000 OA
BRANCH  13  15
ATOM     14  C   UNL     1       1.727   8.944  17.841  0.00  0.00    +0.000 C 
ATOM     15  C   UNL     1       2.433   7.771  18.491  0.00  0.00    +0.000 C 
ENDBRANCH  13  15
ENDBRANCH  11  13
BRANCH  11  16
ATOM     16  O   UNL     1       5.760   6.520  18.566  0.00  0.00    +0.000 OA
BRANCH  16  17
ATOM     17  C   UNL     1       6.444   5.476  19.257  0.00  0.00    +0.000 C 
ATOM     18  C   UNL     1       7.940   5.748  19.211  0.00  0.00    +0.000 C 
ENDBRANCH  16  17
ENDBRANCH  11  16
ENDBRANCH   1  11
BRANCH   1  19
ATOM     19  N   UNL     1       3.933   3.539  17.549  0.00  0.00    +0.000 N 
ATOM     20  H   UNL     1       3.740   2.968  16.730  0.00  0.00    +0.000 HD
BRANCH  19  21
ATOM     21  C   UNL     1       3.113   3.312  18.638  0.00  0.00    +0.000 A 
ATOM     22  C   UNL     1       3.469   2.649  19.836  0.00  0.00    +0.000 A 
ATOM     23  C   UNL     1       4.871   2.333  20.270  0.00  0.00    +0.000 C 
ATOM     24  C   UNL     1       2.473   2.331  20.810  0.00  0.00    +0.000 A 
ATOM     25  C   UNL     1       1.148   2.720  20.661  0.00  0.00    +0.000 A 
ATOM     26  C   UNL     1       0.804   3.450  19.540  0.00  0.00    +0.000 A 
ATOM     27  C   UNL     1       1.756   3.742  18.539  0.00  0.00    +0.000 A 
ATOM     28  C   UNL     1       1.265   4.534  17.353  0.00  0.00    +0.000 C 
ENDBRANCH  19  21
ENDBRANCH   1  19
TORSDOF 8
ENDMDL
MODEL 8
REMARK VINA RESULT:      -6.9      2.438      6.012
REMARK  Name = 
REMARK  12 active torsions:
REMARK  status: ('A' for Active; 'I' for Inactive)
REMARK    1  A    between atoms: C_1  and  C_2
REMARK    2  A    between atoms: C_2  and  O_3
REMARK    3  A    between atoms: O_3  and  P_4
REMARK    4  A    between atoms: P_4  and  O_6
REMARK    5  A    between atoms: P_4  and  C_9
REMARK    6  A    between atoms: O_6  and  C_7
REMARK    7  A    between atoms: C_7  and  C_8
REMARK    8  A    between atoms: C_9  and  N_10
REMARK    9  A    between atoms: C_9  and  C_19
REMARK   10  A    between atoms: N_10  and  C_11
REMARK   11  A    between atoms: C_12  and  C_13
REMARK   12  A    between atoms: C_17  and  C_18
REMARK                            x       y       z     vdW  Elec       q    Type
REMARK                         _______ _______ _______ _____ _____    ______ ____
ROOT
ATOM      1  C   UNL     1       3.631   6.721  17.789  0.00  0.00    +0.000 C 
ENDROOT
BRANCH   1   2
ATOM      2  C   UNL     1       2.750   7.831  18.384  0.00  0.00    +0.000 A 
ATOM      3  C   UNL     1       2.064   8.762  17.575  0.00  0.00    +0.000 A 
ATOM      4  C   UNL     1       1.030   9.562  18.095  0.00  0.00    +0.000 A 
ATOM      5  C   UNL     1       0.697   9.396  19.423  0.00  0.00    +0.000 A 
ATOM      6  C   UNL     1       1.380   8.536  20.238  0.00  0.00    +0.000 A 
ATOM      7  C   UNL     1       2.446   7.782  19.768  0.00  0.00    +0.000 A 
ATOM      8  O   UNL     1       0.831   8.437  21.474  0.00  0.00    +0.000 OA
ATOM      9  C   UNL     1      -0.258   9.380  21.360  0.00  0.00    +0.000 C 
ATOM     10  O   UNL     1      -0.364   9.978  20.054  0.00  0.00    +0.000 OA
ENDBRANCH   1   2
BRANCH   1  11
ATOM     11  P   UNL     1       5.363   7.066  17.310  0.00  0.00    +0.000 P 
ATOM     12  O   UNL     1       4.973   6.886  15.827  0.00  0.00    +0.000 OA
BRANCH  11  13
ATOM     13  O   UNL     1       7.001   7.392  16.857  0.00  0.00    +0.000 OA
BRANCH  13  15
ATOM     14  C   UNL     1       8.487   8.143  18.592  0.00  0.00    +0.000 C 
ATOM     15  C   UNL     1       7.579   8.552  17.449  0.00  0.00    +0.000 C 
ENDBRANCH  13  15
ENDBRANCH  11  13
BRANCH  11  16
ATOM     16  O   UNL     1       5.877   5.617  17.946  0.00  0.00    +0.000 OA
BRANCH  16  17
ATOM     17  C   UNL     1       6.873   4.861  17.260  0.00  0.00    +0.000 C 
ATOM     18  C   UNL     1       8.004   4.540  18.224  0.00  0.00    +0.000 C 
ENDBRANCH  16  17
ENDBRANCH  11  16
ENDBRANCH   1  11
BRANCH   1  19
ATOM     19  N   UNL     1       3.677   5.494  18.652  0.00  0.00    +0.000 N 
ATOM     20  H   UNL     1       4.512   5.502  19.232  0.00  0.00    +0.000 HD
BRANCH  19  21
ATOM     21  C   UNL     1       2.875   4.375  18.779  0.00  0.00    +0.000 A 
ATOM     22  C   UNL     1       2.045   4.055  19.880  0.00  0.00    +0.000 A 
ATOM     23  C   UNL     1       1.650   5.005  20.973  0.00  0.00    +0.000 C 
ATOM     24  C   UNL     1       1.404   2.781  19.956  0.00  0.00    +0.000 A 
ATOM     25  C   UNL     1       1.505   1.845  18.935  0.00  0.00    +0.000 A 
ATOM     26  C   UNL     1       2.236   2.179  17.812  0.00  0.00    +0.000 A 
ATOM     27  C   UNL     1       2.917   3.413  17.726  0.00  0.00    +0.000 A 
ATOM     28  C   UNL     1       3.695   3.667  16.458  0.00  0.00    +0.000 C 
ENDBRANCH  19  21
ENDBRANCH   1  19
TORSDOF 8
ENDMDL
MODEL 9
REMARK VINA RESULT:      -6.8      2.551      5.791
REMARK  Name = 
REMARK  12 active torsions:
REMARK  status: ('A' for Active; 'I' for Inactive)
REMARK    1  A    between atoms: C_1  and  C_2
REMARK    2  A    between atoms: C_2  and  O_3
REMARK    3  A    between atoms: O_3  and  P_4
REMARK    4  A    between atoms: P_4  and  O_6
REMARK    5  A    between atoms: P_4  and  C_9
REMARK    6  A    between atoms: O_6  and  C_7
REMARK    7  A    between atoms: C_7  and  C_8
REMARK    8  A    between atoms: C_9  and  N_10
REMARK    9  A    between atoms: C_9  and  C_19
REMARK   10  A    between atoms: N_10  and  C_11
REMARK   11  A    between atoms: C_12  and  C_13
REMARK   12  A    between atoms: C_17  and  C_18
REMARK                            x       y       z     vdW  Elec       q    Type
REMARK                         _______ _______ _______ _____ _____    ______ ____
ROOT
ATOM      1  C   UNL     1       3.490   6.659  17.975  0.00  0.00    +0.000 C 
ENDROOT
BRANCH   1   2
ATOM      2  C   UNL     1       2.501   7.705  18.511  0.00  0.00    +0.000 A 
ATOM      3  C   UNL     1       1.914   7.601  19.789  0.00  0.00    +0.000 A 
ATOM      4  C   UNL     1       1.269   8.697  20.391  0.00  0.00    +0.000 A 
ATOM      5  C   UNL     1       1.241   9.887  19.694  0.00  0.00    +0.000 A 
ATOM      6  C   UNL     1       1.760   9.998  18.432  0.00  0.00    +0.000 A 
ATOM      7  C   UNL     1       2.344   8.917  17.790  0.00  0.00    +0.000 A 
ATOM      8  O   UNL     1       1.732  11.271  17.965  0.00  0.00    +0.000 OA
ATOM      9  C   UNL     1       1.084  11.947  19.066  0.00  0.00    +0.000 C 
ATOM     10  O   UNL     1       0.788  11.080  20.177  0.00  0.00    +0.000 OA
ENDBRANCH   1   2
BRANCH   1  11
ATOM     11  P   UNL     1       5.206   7.133  17.553  0.00  0.00    +0.000 P 
ATOM     12  O   UNL     1       4.941   6.733  16.086  0.00  0.00    +0.000 OA
BRANCH  11  13
ATOM     13  O   UNL     1       6.829   7.582  17.154  0.00  0.00    +0.000 OA
BRANCH  13  15
ATOM     14  C   UNL     1       8.499   8.942  18.223  0.00  0.00    +0.000 C 
ATOM     15  C   UNL     1       7.186   8.925  17.467  0.00  0.00    +0.000 C 
ENDBRANCH  13  15
ENDBRANCH  11  13
BRANCH  11  16
ATOM     16  O   UNL     1       5.822   5.838  18.396  0.00  0.00    +0.000 OA
BRANCH  16  17
ATOM     17  C   UNL     1       7.176   5.442  18.189  0.00  0.00    +0.000 C 
ATOM     18  C   UNL     1       7.932   5.550  19.505  0.00  0.00    +0.000 C 
ENDBRANCH  16  17
ENDBRANCH  11  16
ENDBRANCH   1  11
BRANCH   1  19
ATOM     19  N   UNL     1       3.600   5.457  18.866  0.00  0.00    +0.000 N 
ATOM     20  H   UNL     1       4.232   5.648  19.639  0.00  0.00    +0.000 HD
BRANCH  19  21
ATOM     21  C   UNL     1       3.080   4.176  18.827  0.00  0.00    +0.000 A 
ATOM     22  C   UNL     1       3.220   3.243  17.772  0.00  0.00    +0.000 A 
ATOM     23  C   UNL     1       4.199   3.355  16.639  0.00  0.00    +0.000 C 
ATOM     24  C   UNL     1       2.486   2.018  17.788  0.00  0.00    +0.000 A 
ATOM     25  C   UNL     1       1.675   1.661  18.857  0.00  0.00    +0.000 A 
ATOM     26  C   UNL     1       1.601   2.519  19.936  0.00  0.00    +0.000 A 
ATOM     27  C   UNL     1       2.280   3.757  19.931  0.00  0.00    +0.000 A 
ATOM     28  C   UNL     1       2.118   4.620  21.158  0.00  0.00    +0.000 C 
ENDBRANCH  19  21
ENDBRANCH   1  19
TORSDOF 8
ENDMDL
