MODEL 1
REMARK VINA RESULT:      -7.2      0.000      0.000
REMARK  Name = 
REMARK  14 active torsions:
REMARK  status: ('A' for Active; 'I' for Inactive)
REMARK    1  A    between atoms: C_1  and  C_2
REMARK    2  A    between atoms: C_2  and  C_3
REMARK    3  A    between atoms: C_3  and  C_4
REMARK    4  A    between atoms: C_4  and  C_5
REMARK    5  A    between atoms: C_5  and  C_6
REMARK    6  A    between atoms: C_6  and  C_7
REMARK    7  A    between atoms: C_7  and  C_8
REMARK    8  A    between atoms: C_8  and  S_9
REMARK    9  A    between atoms: S_9  and  N_12
REMARK   10  A    between atoms: N_12  and  C_13
REMARK   11  A    between atoms: C_16  and  C_17
REMARK   12  A    between atoms: C_17  and  C_18
REMARK   13  A    between atoms: C_18  and  O_20
REMARK   14  A    between atoms: C_21  and  O_22
REMARK                            x       y       z     vdW  Elec       q    Type
REMARK                         _______ _______ _______ _____ _____    ______ ____
ROOT
ATOM      1  N   UNL     1       6.017   3.834  18.597  0.00  0.00    +0.000 NA
ATOM      2  H   UNL     1       6.434   3.595  19.502  0.00  0.00    +0.000 HD
ENDROOT
BRANCH   1   3
ATOM      3  C   UNL     1       4.533   3.636  18.687  0.00  0.00    +0.000 C 
ATOM      4  C   UNL     1       3.939   2.967  17.444  0.00  0.00    +0.000 C 
ATOM      5  C   UNL     1       2.789   2.077  17.955  0.00  0.00    +0.000 C 
ATOM      6  C   UNL     1       2.741   2.233  19.488  0.00  0.00    +0.000 C 
ATOM      7  C   UNL     1       4.173   2.644  19.810  0.00  0.00    +0.000 C 
BRANCH   7   8
ATOM      8  O   UNL     1       5.054   1.510  19.749  0.00  0.00    +0.000 OA
ATOM      9  H   UNL     1       4.719   0.806  20.328  0.00  0.00    +0.000 HD
ENDBRANCH   7   8
BRANCH   6  10
ATOM     10  C   UNL     1       1.738   3.300  19.973  0.00  0.00    +0.000 C 
BRANCH  10  11
ATOM     11  C   UNL     1       2.074   3.840  21.341  0.00  0.00    +0.000 C 
ATOM     12  O   UNL     1       2.093   3.190  22.374  0.00  0.00    +0.000 OA
BRANCH  11  13
ATOM     13  O   UNL     1       2.348   5.167  21.321  0.00  0.00    +0.000 OA
ATOM     14  H   UNL     1       2.600   5.534  22.190  0.00  0.00    +0.000 HD
ENDBRANCH  11  13
ENDBRANCH  10  11
ENDBRANCH   6  10
ENDBRANCH   1   3
BRANCH   1  15
ATOM     15  S   UNL     1       6.389   5.461  18.247  0.00  0.00    +0.000 S 
ATOM     16  O   UNL     1       7.464   5.854  19.129  0.00  0.00    +0.000 OA
ATOM     17  O   UNL     1       5.138   6.189  18.230  0.00  0.00    +0.000 OA
BRANCH  15  18
ATOM     18  C   UNL     1       7.065   5.415  16.592  0.00  0.00    +0.000 C 
BRANCH  18  19
ATOM     19  C   UNL     1       5.951   5.848  15.642  0.00  0.00    +0.000 C 
BRANCH  19  20
ATOM     20  C   UNL     1       5.299   4.688  14.913  0.00  0.00    +0.000 C 
BRANCH  20  21
ATOM     21  C   UNL     1       6.390   3.860  14.218  0.00  0.00    +0.000 C 
BRANCH  21  22
ATOM     22  C   UNL     1       6.356   4.077  12.710  0.00  0.00    +0.000 C 
BRANCH  22  23
ATOM     23  C   UNL     1       6.619   2.773  11.960  0.00  0.00    +0.000 C 
BRANCH  23  25
ATOM     24  C   UNL     1       4.223   3.248  11.359  0.00  0.00    +0.000 C 
ATOM     25  C   UNL     1       5.314   2.194  11.422  0.00  0.00    +0.000 C 
ENDBRANCH  23  25
ENDBRANCH  22  23
ENDBRANCH  21  22
ENDBRANCH  20  21
ENDBRANCH  19  20
ENDBRANCH  18  19
ENDBRANCH  15  18
ENDBRANCH   1  15
TORSDOF 13
ENDMDL
MODEL 2
REMARK VINA RESULT:      -7.1      0.747      1.102
REMARK  Name = 
REMARK  14 active torsions:
REMARK  status: ('A' for Active; 'I' for Inactive)
REMARK    1  A    between atoms: C_1  and  C_2
REMARK    2  A    between atoms: C_2  and  C_3
REMARK    3  A    between atoms: C_3  and  C_4
REMARK    4  A    between atoms: C_4  and  C_5
REMARK    5  A    between atoms: C_5  and  C_6
REMARK    6  A    between atoms: C_6  and  C_7
REMARK    7  A    between atoms: C_7  and  C_8
REMARK    8  A    between atoms: C_8  and  S_9
REMARK    9  A    between atoms: S_9  and  N_12
REMARK   10  A    between atoms: N_12  and  C_13
REMARK   11  A    between atoms: C_16  and  C_17
REMARK   12  A    between atoms: C_17  and  C_18
REMARK   13  A    between atoms: C_18  and  O_20
REMARK   14  A    between atoms: C_21  and  O_22
REMARK                            x       y       z     vdW  Elec       q    Type
REMARK                         _______ _______ _______ _____ _____    ______ ____
ROOT
ATOM      1  N   UNL     1       5.963   3.891  18.514  0.00  0.00    +0.000 NA
ATOM      2  H   UNL     1       6.467   3.251  19.137  0.00  0.00    +0.000 HD
ENDROOT
BRANCH   1   3
ATOM      3  C   UNL     1       4.499   3.573  18.583  0.00  0.00    +0.000 C 
ATOM      4  C   UNL     1       4.001   2.764  17.382  0.00  0.00    +0.000 C 
ATOM      5  C   UNL     1       2.915   1.820  17.934  0.00  0.00    +0.000 C 
ATOM      6  C   UNL     1       2.808   2.086  19.449  0.00  0.00    +0.000 C 
ATOM      7  C   UNL     1       4.190   2.641  19.771  0.00  0.00    +0.000 C 
BRANCH   7   8
ATOM      8  O   UNL     1       5.165   1.586  19.819  0.00  0.00    +0.000 OA
ATOM      9  H   UNL     1       5.146   1.164  20.694  0.00  0.00    +0.000 HD
ENDBRANCH   7   8
BRANCH   6  10
ATOM     10  C   UNL     1       1.705   3.096  19.825  0.00  0.00    +0.000 C 
BRANCH  10  11
ATOM     11  C   UNL     1       1.946   3.754  21.162  0.00  0.00    +0.000 C 
ATOM     12  O   UNL     1       2.239   4.928  21.330  0.00  0.00    +0.000 OA
BRANCH  11  13
ATOM     13  O   UNL     1       1.819   2.889  22.196  0.00  0.00    +0.000 OA
ATOM     14  H   UNL     1       1.040   3.054  22.760  0.00  0.00    +0.000 HD
ENDBRANCH  11  13
ENDBRANCH  10  11
ENDBRANCH   6  10
ENDBRANCH   1   3
BRANCH   1  15
ATOM     15  S   UNL     1       6.260   5.489  19.029  0.00  0.00    +0.000 S 
ATOM     16  O   UNL     1       7.312   5.432  20.018  0.00  0.00    +0.000 OA
ATOM     17  O   UNL     1       4.976   6.079  19.345  0.00  0.00    +0.000 OA
BRANCH  15  18
ATOM     18  C   UNL     1       6.943   6.301  17.590  0.00  0.00    +0.000 C 
BRANCH  18  19
ATOM     19  C   UNL     1       5.779   6.585  16.644  0.00  0.00    +0.000 C 
BRANCH  19  20
ATOM     20  C   UNL     1       5.595   5.518  15.580  0.00  0.00    +0.000 C 
BRANCH  20  21
ATOM     21  C   UNL     1       6.973   5.111  15.038  0.00  0.00    +0.000 C 
BRANCH  21  22
ATOM     22  C   UNL     1       6.867   4.628  13.597  0.00  0.00    +0.000 C 
BRANCH  22  23
ATOM     23  C   UNL     1       5.965   3.401  13.493  0.00  0.00    +0.000 C 
BRANCH  23  25
ATOM     24  C   UNL     1       4.333   3.556  11.586  0.00  0.00    +0.000 C 
ATOM     25  C   UNL     1       5.696   3.057  12.031  0.00  0.00    +0.000 C 
ENDBRANCH  23  25
ENDBRANCH  22  23
ENDBRANCH  21  22
ENDBRANCH  20  21
ENDBRANCH  19  20
ENDBRANCH  18  19
ENDBRANCH  15  18
ENDBRANCH   1  15
TORSDOF 13
ENDMDL
MODEL 3
REMARK VINA RESULT:      -6.7      1.478      1.755
REMARK  Name = 
REMARK  14 active torsions:
REMARK  status: ('A' for Active; 'I' for Inactive)
REMARK    1  A    between atoms: C_1  and  C_2
REMARK    2  A    between atoms: C_2  and  C_3
REMARK    3  A    between atoms: C_3  and  C_4
REMARK    4  A    between atoms: C_4  and  C_5
REMARK    5  A    between atoms: C_5  and  C_6
REMARK    6  A    between atoms: C_6  and  C_7
REMARK    7  A    between atoms: C_7  and  C_8
REMARK    8  A    between atoms: C_8  and  S_9
REMARK    9  A    between atoms: S_9  and  N_12
REMARK   10  A    between atoms: N_12  and  C_13
REMARK   11  A    between atoms: C_16  and  C_17
REMARK   12  A    between atoms: C_17  and  C_18
REMARK   13  A    between atoms: C_18  and  O_20
REMARK   14  A    between atoms: C_21  and  O_22
REMARK                            x       y       z     vdW  Elec       q    Type
REMARK                         _______ _______ _______ _____ _____    ______ ____
ROOT
ATOM      1  N   UNL     1       6.011   3.879  18.645  0.00  0.00    +0.000 NA
ATOM      2  H   UNL     1       6.561   3.259  19.248  0.00  0.00    +0.000 HD
ENDROOT
BRANCH   1   3
ATOM      3  C   UNL     1       4.568   3.481  18.736  0.00  0.00    +0.000 C 
ATOM      4  C   UNL     1       4.103   2.626  17.554  0.00  0.00    +0.000 C 
ATOM      5  C   UNL     1       3.078   1.631  18.133  0.00  0.00    +0.000 C 
ATOM      6  C   UNL     1       2.972   1.916  19.645  0.00  0.00    +0.000 C 
ATOM      7  C   UNL     1       4.324   2.553  19.943  0.00  0.00    +0.000 C 
BRANCH   7   8
ATOM      8  O   UNL     1       5.357   1.555  19.996  0.00  0.00    +0.000 OA
ATOM      9  H   UNL     1       5.731   1.520  20.892  0.00  0.00    +0.000 HD
ENDBRANCH   7   8
BRANCH   6  10
ATOM     10  C   UNL     1       1.818   2.868  20.018  0.00  0.00    +0.000 C 
BRANCH  10  11
ATOM     11  C   UNL     1       0.899   3.158  18.857  0.00  0.00    +0.000 C 
ATOM     12  O   UNL     1       0.005   2.426  18.463  0.00  0.00    +0.000 OA
BRANCH  11  13
ATOM     13  O   UNL     1       1.177   4.340  18.258  0.00  0.00    +0.000 OA
ATOM     14  H   UNL     1       0.579   4.562  17.519  0.00  0.00    +0.000 HD
ENDBRANCH  11  13
ENDBRANCH  10  11
ENDBRANCH   6  10
ENDBRANCH   1   3
BRANCH   1  15
ATOM     15  S   UNL     1       6.230   5.483  19.181  0.00  0.00    +0.000 S 
ATOM     16  O   UNL     1       7.275   5.462  20.180  0.00  0.00    +0.000 OA
ATOM     17  O   UNL     1       4.918   6.011  19.491  0.00  0.00    +0.000 OA
BRANCH  15  18
ATOM     18  C   UNL     1       6.889   6.341  17.757  0.00  0.00    +0.000 C 
BRANCH  18  19
ATOM     19  C   UNL     1       5.696   6.847  16.950  0.00  0.00    +0.000 C 
BRANCH  19  20
ATOM     20  C   UNL     1       5.336   5.948  15.782  0.00  0.00    +0.000 C 
BRANCH  20  21
ATOM     21  C   UNL     1       6.624   5.342  15.205  0.00  0.00    +0.000 C 
BRANCH  21  22
ATOM     22  C   UNL     1       6.373   3.931  14.685  0.00  0.00    +0.000 C 
BRANCH  22  23
ATOM     23  C   UNL     1       5.223   3.912  13.681  0.00  0.00    +0.000 C 
BRANCH  23  25
ATOM     24  C   UNL     1       4.512   3.080  11.416  0.00  0.00    +0.000 C 
ATOM     25  C   UNL     1       5.684   3.322  12.352  0.00  0.00    +0.000 C 
ENDBRANCH  23  25
ENDBRANCH  22  23
ENDBRANCH  21  22
ENDBRANCH  20  21
ENDBRANCH  19  20
ENDBRANCH  18  19
ENDBRANCH  15  18
ENDBRANCH   1  15
TORSDOF 13
ENDMDL
MODEL 4
REMARK VINA RESULT:      -6.7      3.307      5.426
REMARK  Name = 
REMARK  14 active torsions:
REMARK  status: ('A' for Active; 'I' for Inactive)
REMARK    1  A    between atoms: C_1  and  C_2
REMARK    2  A    between atoms: C_2  and  C_3
REMARK    3  A    between atoms: C_3  and  C_4
REMARK    4  A    between atoms: C_4  and  C_5
REMARK    5  A    between atoms: C_5  and  C_6
REMARK    6  A    between atoms: C_6  and  C_7
REMARK    7  A    between atoms: C_7  and  C_8
REMARK    8  A    between atoms: C_8  and  S_9
REMARK    9  A    between atoms: S_9  and  N_12
REMARK   10  A    between atoms: N_12  and  C_13
REMARK   11  A    between atoms: C_16  and  C_17
REMARK   12  A    between atoms: C_17  and  C_18
REMARK   13  A    between atoms: C_18  and  O_20
REMARK   14  A    between atoms: C_21  and  O_22
REMARK                            x       y       z     vdW  Elec       q    Type
REMARK                         _______ _______ _______ _____ _____    ______ ____
ROOT
ATOM      1  N   UNL     1       5.615   3.668  18.779  0.00  0.00    +0.000 NA
ATOM      2  H   UNL     1       6.010   3.118  19.549  0.00  0.00    +0.000 HD
ENDROOT
BRANCH   1   3
ATOM      3  C   UNL     1       4.126   3.491  18.778  0.00  0.00    +0.000 C 
ATOM      4  C   UNL     1       3.557   3.177  17.392  0.00  0.00    +0.000 C 
ATOM      5  C   UNL     1       2.376   2.216  17.632  0.00  0.00    +0.000 C 
ATOM      6  C   UNL     1       2.285   1.978  19.152  0.00  0.00    +0.000 C 
ATOM      7  C   UNL     1       3.714   2.256  19.603  0.00  0.00    +0.000 C 
BRANCH   7   8
ATOM      8  O   UNL     1       4.575   1.153  19.276  0.00  0.00    +0.000 OA
ATOM      9  H   UNL     1       5.446   1.488  19.004  0.00  0.00    +0.000 HD
ENDBRANCH   7   8
BRANCH   6  10
ATOM     10  C   UNL     1       1.288   2.912  19.868  0.00  0.00    +0.000 C 
BRANCH  10  11
ATOM     11  C   UNL     1       1.652   3.160  21.312  0.00  0.00    +0.000 C 
ATOM     12  O   UNL     1       1.521   2.358  22.223  0.00  0.00    +0.000 OA
BRANCH  11  13
ATOM     13  O   UNL     1       2.141   4.407  21.516  0.00  0.00    +0.000 OA
ATOM     14  H   UNL     1       2.307   4.621  22.454  0.00  0.00    +0.000 HD
ENDBRANCH  11  13
ENDBRANCH  10  11
ENDBRANCH   6  10
ENDBRANCH   1   3
BRANCH   1  15
ATOM     15  S   UNL     1       6.030   5.305  19.018  0.00  0.00    +0.000 S 
ATOM     16  O   UNL     1       7.177   5.331  19.897  0.00  0.00    +0.000 OA
ATOM     17  O   UNL     1       4.812   6.005  19.366  0.00  0.00    +0.000 OA
BRANCH  15  18
ATOM     18  C   UNL     1       6.592   5.860  17.414  0.00  0.00    +0.000 C 
BRANCH  18  19
ATOM     19  C   UNL     1       7.741   6.836  17.657  0.00  0.00    +0.000 C 
BRANCH  19  20
ATOM     20  C   UNL     1       7.282   8.271  17.836  0.00  0.00    +0.000 C 
BRANCH  20  21
ATOM     21  C   UNL     1       8.469   9.210  17.573  0.00  0.00    +0.000 C 
BRANCH  21  22
ATOM     22  C   UNL     1       8.888   9.924  18.853  0.00  0.00    +0.000 C 
BRANCH  22  23
ATOM     23  C   UNL     1       9.489  11.294  18.547  0.00  0.00    +0.000 C 
BRANCH  23  25
ATOM     24  C   UNL     1      11.784  12.242  18.150  0.00  0.00    +0.000 C 
ATOM     25  C   UNL     1      10.926  11.372  19.052  0.00  0.00    +0.000 C 
ENDBRANCH  23  25
ENDBRANCH  22  23
ENDBRANCH  21  22
ENDBRANCH  20  21
ENDBRANCH  19  20
ENDBRANCH  18  19
ENDBRANCH  15  18
ENDBRANCH   1  15
TORSDOF 13
ENDMDL
MODEL 5
REMARK VINA RESULT:      -6.7      1.414      1.767
REMARK  Name = 
REMARK  14 active torsions:
REMARK  status: ('A' for Active; 'I' for Inactive)
REMARK    1  A    between atoms: C_1  and  C_2
REMARK    2  A    between atoms: C_2  and  C_3
REMARK    3  A    between atoms: C_3  and  C_4
REMARK    4  A    between atoms: C_4  and  C_5
REMARK    5  A    between atoms: C_5  and  C_6
REMARK    6  A    between atoms: C_6  and  C_7
REMARK    7  A    between atoms: C_7  and  C_8
REMARK    8  A    between atoms: C_8  and  S_9
REMARK    9  A    between atoms: S_9  and  N_12
REMARK   10  A    between atoms: N_12  and  C_13
REMARK   11  A    between atoms: C_16  and  C_17
REMARK   12  A    between atoms: C_17  and  C_18
REMARK   13  A    between atoms: C_18  and  O_20
REMARK   14  A    between atoms: C_21  and  O_22
REMARK                            x       y       z     vdW  Elec       q    Type
REMARK                         _______ _______ _______ _____ _____    ______ ____
ROOT
ATOM      1  N   UNL     1       6.081   3.756  18.720  0.00  0.00    +0.000 NA
ATOM      2  H   UNL     1       6.556   3.243  19.469  0.00  0.00    +0.000 HD
ENDROOT
BRANCH   1   3
ATOM      3  C   UNL     1       4.618   3.428  18.767  0.00  0.00    +0.000 C 
ATOM      4  C   UNL     1       4.154   2.575  17.584  0.00  0.00    +0.000 C 
ATOM      5  C   UNL     1       3.063   1.640  18.143  0.00  0.00    +0.000 C 
ATOM      6  C   UNL     1       2.920   1.958  19.645  0.00  0.00    +0.000 C 
ATOM      7  C   UNL     1       4.290   2.536  19.979  0.00  0.00    +0.000 C 
BRANCH   7   8
ATOM      8  O   UNL     1       5.271   1.491  20.086  0.00  0.00    +0.000 OA
ATOM      9  H   UNL     1       5.239   0.931  19.292  0.00  0.00    +0.000 HD
ENDBRANCH   7   8
BRANCH   6  10
ATOM     10  C   UNL     1       1.801   2.970  19.961  0.00  0.00    +0.000 C 
BRANCH  10  11
ATOM     11  C   UNL     1       0.981   3.334  18.748  0.00  0.00    +0.000 C 
ATOM     12  O   UNL     1       1.156   4.316  18.044  0.00  0.00    +0.000 OA
BRANCH  11  13
ATOM     13  O   UNL     1      -0.016   2.449  18.511  0.00  0.00    +0.000 OA
ATOM     14  H   UNL     1      -0.717   2.447  19.191  0.00  0.00    +0.000 HD
ENDBRANCH  11  13
ENDBRANCH  10  11
ENDBRANCH   6  10
ENDBRANCH   1   3
BRANCH   1  15
ATOM     15  S   UNL     1       6.334   5.425  18.966  0.00  0.00    +0.000 S 
ATOM     16  O   UNL     1       7.207   5.562  20.109  0.00  0.00    +0.000 OA
ATOM     17  O   UNL     1       5.034   6.060  18.945  0.00  0.00    +0.000 OA
BRANCH  15  18
ATOM     18  C   UNL     1       7.269   5.949  17.533  0.00  0.00    +0.000 C 
BRANCH  18  19
ATOM     19  C   UNL     1       7.285   4.774  16.558  0.00  0.00    +0.000 C 
BRANCH  19  20
ATOM     20  C   UNL     1       7.142   5.195  15.107  0.00  0.00    +0.000 C 
BRANCH  20  21
ATOM     21  C   UNL     1       5.668   5.069  14.695  0.00  0.00    +0.000 C 
BRANCH  21  22
ATOM     22  C   UNL     1       5.402   3.718  14.042  0.00  0.00    +0.000 C 
BRANCH  22  23
ATOM     23  C   UNL     1       6.246   3.540  12.783  0.00  0.00    +0.000 C 
BRANCH  23  25
ATOM     24  C   UNL     1       4.176   3.288  11.375  0.00  0.00    +0.000 C 
ATOM     25  C   UNL     1       5.510   2.675  11.764  0.00  0.00    +0.000 C 
ENDBRANCH  23  25
ENDBRANCH  22  23
ENDBRANCH  21  22
ENDBRANCH  20  21
ENDBRANCH  19  20
ENDBRANCH  18  19
ENDBRANCH  15  18
ENDBRANCH   1  15
TORSDOF 13
ENDMDL
MODEL 6
REMARK VINA RESULT:      -6.7      1.970      2.887
REMARK  Name = 
REMARK  14 active torsions:
REMARK  status: ('A' for Active; 'I' for Inactive)
REMARK    1  A    between atoms: C_1  and  C_2
REMARK    2  A    between atoms: C_2  and  C_3
REMARK    3  A    between atoms: C_3  and  C_4
REMARK    4  A    between atoms: C_4  and  C_5
REMARK    5  A    between atoms: C_5  and  C_6
REMARK    6  A    between atoms: C_6  and  C_7
REMARK    7  A    between atoms: C_7  and  C_8
REMARK    8  A    between atoms: C_8  and  S_9
REMARK    9  A    between atoms: S_9  and  N_12
REMARK   10  A    between atoms: N_12  and  C_13
REMARK   11  A    between atoms: C_16  and  C_17
REMARK   12  A    between atoms: C_17  and  C_18
REMARK   13  A    between atoms: C_18  and  O_20
REMARK   14  A    between atoms: C_21  and  O_22
REMARK                            x       y       z     vdW  Elec       q    Type
REMARK                         _______ _______ _______ _____ _____    ______ ____
ROOT
ATOM      1  N   UNL     1       5.479   6.793  18.114  0.00  0.00    +0.000 NA
ATOM      2  H   UNL     1       5.113   7.438  17.406  0.00  0.00    +0.000 HD
ENDROOT
BRANCH   1   3
ATOM      3  C   UNL     1       4.529   5.641  18.249  0.00  0.00    +0.000 C 
ATOM      4  C   UNL     1       4.359   5.167  19.696  0.00  0.00    +0.000 C 
ATOM      5  C   UNL     1       2.889   4.721  19.821  0.00  0.00    +0.000 C 
ATOM      6  C   UNL     1       2.226   4.953  18.449  0.00  0.00    +0.000 C 
ATOM      7  C   UNL     1       3.097   6.054  17.857  0.00  0.00    +0.000 C 
BRANCH   7   8
ATOM      8  O   UNL     1       2.785   7.325  18.451  0.00  0.00    +0.000 OA
ATOM      9  H   UNL     1       2.983   8.037  17.820  0.00  0.00    +0.000 HD
ENDBRANCH   7   8
BRANCH   6  10
ATOM     10  C   UNL     1       2.220   3.705  17.543  0.00  0.00    +0.000 C 
BRANCH  10  11
ATOM     11  C   UNL     1       1.755   2.462  18.261  0.00  0.00    +0.000 C 
ATOM     12  O   UNL     1       0.651   2.303  18.758  0.00  0.00    +0.000 OA
BRANCH  11  13
ATOM     13  O   UNL     1       2.715   1.509  18.321  0.00  0.00    +0.000 OA
ATOM     14  H   UNL     1       3.572   1.782  17.941  0.00  0.00    +0.000 HD
ENDBRANCH  11  13
ENDBRANCH  10  11
ENDBRANCH   6  10
ENDBRANCH   1   3
BRANCH   1  15
ATOM     15  S   UNL     1       7.015   6.253  17.606  0.00  0.00    +0.000 S 
ATOM     16  O   UNL     1       7.725   5.813  18.785  0.00  0.00    +0.000 OA
ATOM     17  O   UNL     1       7.566   7.282  16.749  0.00  0.00    +0.000 OA
BRANCH  15  18
ATOM     18  C   UNL     1       6.673   4.794  16.630  0.00  0.00    +0.000 C 
BRANCH  18  19
ATOM     19  C   UNL     1       6.108   5.274  15.295  0.00  0.00    +0.000 C 
BRANCH  19  20
ATOM     20  C   UNL     1       6.756   4.607  14.095  0.00  0.00    +0.000 C 
BRANCH  20  21
ATOM     21  C   UNL     1       5.733   3.671  13.433  0.00  0.00    +0.000 C 
BRANCH  21  22
ATOM     22  C   UNL     1       6.152   3.333  12.007  0.00  0.00    +0.000 C 
BRANCH  22  23
ATOM     23  C   UNL     1       5.040   2.593  11.268  0.00  0.00    +0.000 C 
BRANCH  23  25
ATOM     24  C   UNL     1       3.229   3.714   9.930  0.00  0.00    +0.000 C 
ATOM     25  C   UNL     1       3.740   3.390  11.323  0.00  0.00    +0.000 C 
ENDBRANCH  23  25
ENDBRANCH  22  23
ENDBRANCH  21  22
ENDBRANCH  20  21
ENDBRANCH  19  20
ENDBRANCH  18  19
ENDBRANCH  15  18
ENDBRANCH   1  15
TORSDOF 13
ENDMDL
MODEL 7
REMARK VINA RESULT:      -6.6      0.713      1.117
REMARK  Name = 
REMARK  14 active torsions:
REMARK  status: ('A' for Active; 'I' for Inactive)
REMARK    1  A    between atoms: C_1  and  C_2
REMARK    2  A    between atoms: C_2  and  C_3
REMARK    3  A    between atoms: C_3  and  C_4
REMARK    4  A    between atoms: C_4  and  C_5
REMARK    5  A    between atoms: C_5  and  C_6
REMARK    6  A    between atoms: C_6  and  C_7
REMARK    7  A    between atoms: C_7  and  C_8
REMARK    8  A    between atoms: C_8  and  S_9
REMARK    9  A    between atoms: S_9  and  N_12
REMARK   10  A    between atoms: N_12  and  C_13
REMARK   11  A    between atoms: C_16  and  C_17
REMARK   12  A    between atoms: C_17  and  C_18
REMARK   13  A    between atoms: C_18  and  O_20
REMARK   14  A    between atoms: C_21  and  O_22
REMARK                            x       y       z     vdW  Elec       q    Type
REMARK                         _______ _______ _______ _____ _____    ______ ____
ROOT
ATOM      1  N   UNL     1       5.968   3.844  19.043  0.00  0.00    +0.000 NA
ATOM      2  H   UNL     1       6.201   3.935  20.037  0.00  0.00    +0.000 HD
ENDROOT
BRANCH   1   3
ATOM      3  C   UNL     1       4.495   3.590  18.918  0.00  0.00    +0.000 C 
ATOM      4  C   UNL     1       4.088   3.073  17.535  0.00  0.00    +0.000 C 
ATOM      5  C   UNL     1       2.928   2.088  17.780  0.00  0.00    +0.000 C 
ATOM      6  C   UNL     1       2.687   2.040  19.302  0.00  0.00    +0.000 C 
ATOM      7  C   UNL     1       4.048   2.449  19.852  0.00  0.00    +0.000 C 
BRANCH   7   8
ATOM      8  O   UNL     1       4.982   1.360  19.759  0.00  0.00    +0.000 OA
ATOM      9  H   UNL     1       4.823   0.731  20.483  0.00  0.00    +0.000 HD
ENDBRANCH   7   8
BRANCH   6  10
ATOM     10  C   UNL     1       1.583   3.002  19.786  0.00  0.00    +0.000 C 
BRANCH  10  11
ATOM     11  C   UNL     1       1.824   3.510  21.187  0.00  0.00    +0.000 C 
ATOM     12  O   UNL     1       2.249   4.618  21.474  0.00  0.00    +0.000 OA
BRANCH  11  13
ATOM     13  O   UNL     1       1.531   2.585  22.132  0.00  0.00    +0.000 OA
ATOM     14  H   UNL     1       2.261   2.407  22.755  0.00  0.00    +0.000 HD
ENDBRANCH  11  13
ENDBRANCH  10  11
ENDBRANCH   6  10
ENDBRANCH   1   3
BRANCH   1  15
ATOM     15  S   UNL     1       6.400   5.292  18.253  0.00  0.00    +0.000 S 
ATOM     16  O   UNL     1       7.651   5.736  18.827  0.00  0.00    +0.000 OA
ATOM     17  O   UNL     1       5.233   6.148  18.266  0.00  0.00    +0.000 OA
BRANCH  15  18
ATOM     18  C   UNL     1       6.748   4.794  16.571  0.00  0.00    +0.000 C 
BRANCH  18  19
ATOM     19  C   UNL     1       6.070   5.811  15.656  0.00  0.00    +0.000 C 
BRANCH  19  20
ATOM     20  C   UNL     1       5.489   5.194  14.397  0.00  0.00    +0.000 C 
BRANCH  20  21
ATOM     21  C   UNL     1       6.282   3.924  14.053  0.00  0.00    +0.000 C 
BRANCH  21  22
ATOM     22  C   UNL     1       5.838   3.357  12.710  0.00  0.00    +0.000 C 
BRANCH  22  23
ATOM     23  C   UNL     1       6.965   3.431  11.682  0.00  0.00    +0.000 C 
BRANCH  23  25
ATOM     24  C   UNL     1       6.211   1.094  11.135  0.00  0.00    +0.000 C 
ATOM     25  C   UNL     1       7.401   2.029  11.265  0.00  0.00    +0.000 C 
ENDBRANCH  23  25
ENDBRANCH  22  23
ENDBRANCH  21  22
ENDBRANCH  20  21
ENDBRANCH  19  20
ENDBRANCH  18  19
ENDBRANCH  15  18
ENDBRANCH   1  15
TORSDOF 13
ENDMDL
MODEL 8
REMARK VINA RESULT:      -6.5      3.418      5.525
REMARK  Name = 
REMARK  14 active torsions:
REMARK  status: ('A' for Active; 'I' for Inactive)
REMARK    1  A    between atoms: C_1  and  C_2
REMARK    2  A    between atoms: C_2  and  C_3
REMARK    3  A    between atoms: C_3  and  C_4
REMARK    4  A    between atoms: C_4  and  C_5
REMARK    5  A    between atoms: C_5  and  C_6
REMARK    6  A    between atoms: C_6  and  C_7
REMARK    7  A    between atoms: C_7  and  C_8
REMARK    8  A    between atoms: C_8  and  S_9
REMARK    9  A    between atoms: S_9  and  N_12
REMARK   10  A    between atoms: N_12  and  C_13
REMARK   11  A    between atoms: C_16  and  C_17
REMARK   12  A    between atoms: C_17  and  C_18
REMARK   13  A    between atoms: C_18  and  O_20
REMARK   14  A    between atoms: C_21  and  O_22
REMARK                            x       y       z     vdW  Elec       q    Type
REMARK                         _______ _______ _______ _____ _____    ______ ____
ROOT
ATOM      1  N   UNL     1       5.858   4.199  18.705  0.00  0.00    +0.000 NA
ATOM      2  H   UNL     1       6.096   4.545  19.640  0.00  0.00    +0.000 HD
ENDROOT
BRANCH   1   3
ATOM      3  C   UNL     1       4.417   3.781  18.702  0.00  0.00    +0.000 C 
ATOM      4  C   UNL     1       4.009   3.036  17.428  0.00  0.00    +0.000 C 
ATOM      5  C   UNL     1       2.975   1.982  17.871  0.00  0.00    +0.000 C 
ATOM      6  C   UNL     1       2.808   2.124  19.397  0.00  0.00    +0.000 C 
ATOM      7  C   UNL     1       4.140   2.742  19.806  0.00  0.00    +0.000 C 
BRANCH   7   8
ATOM      8  O   UNL     1       5.182   1.753  19.807  0.00  0.00    +0.000 OA
ATOM      9  H   UNL     1       4.796   0.873  19.954  0.00  0.00    +0.000 HD
ENDBRANCH   7   8
BRANCH   6  10
ATOM     10  C   UNL     1       1.629   3.026  19.812  0.00  0.00    +0.000 C 
BRANCH  10  11
ATOM     11  C   UNL     1       1.806   3.627  21.185  0.00  0.00    +0.000 C 
ATOM     12  O   UNL     1       2.118   4.784  21.416  0.00  0.00    +0.000 OA
BRANCH  11  13
ATOM     13  O   UNL     1       1.595   2.727  22.175  0.00  0.00    +0.000 OA
ATOM     14  H   UNL     1       0.678   2.708  22.508  0.00  0.00    +0.000 HD
ENDBRANCH  11  13
ENDBRANCH  10  11
ENDBRANCH   6  10
ENDBRANCH   1   3
BRANCH   1  15
ATOM     15  S   UNL     1       6.125   5.455  17.583  0.00  0.00    +0.000 S 
ATOM     16  O   UNL     1       4.929   6.266  17.556  0.00  0.00    +0.000 OA
ATOM     17  O   UNL     1       6.633   4.843  16.374  0.00  0.00    +0.000 OA
BRANCH  15  18
ATOM     18  C   UNL     1       7.411   6.449  18.327  0.00  0.00    +0.000 C 
BRANCH  18  19
ATOM     19  C   UNL     1       7.773   7.537  17.318  0.00  0.00    +0.000 C 
BRANCH  19  20
ATOM     20  C   UNL     1       7.762   8.934  17.910  0.00  0.00    +0.000 C 
BRANCH  20  21
ATOM     21  C   UNL     1       8.999   9.106  18.804  0.00  0.00    +0.000 C 
BRANCH  21  22
ATOM     22  C   UNL     1       9.027  10.497  19.427  0.00  0.00    +0.000 C 
BRANCH  22  23
ATOM     23  C   UNL     1      10.360  11.192  19.159  0.00  0.00    +0.000 C 
BRANCH  23  25
ATOM     24  C   UNL     1       9.132  12.718  17.581  0.00  0.00    +0.000 C 
ATOM     25  C   UNL     1      10.356  11.841  17.778  0.00  0.00    +0.000 C 
ENDBRANCH  23  25
ENDBRANCH  22  23
ENDBRANCH  21  22
ENDBRANCH  20  21
ENDBRANCH  19  20
ENDBRANCH  18  19
ENDBRANCH  15  18
ENDBRANCH   1  15
TORSDOF 13
ENDMDL
MODEL 9
REMARK VINA RESULT:      -6.4      1.625      2.257
REMARK  Name = 
REMARK  14 active torsions:
REMARK  status: ('A' for Active; 'I' for Inactive)
REMARK    1  A    between atoms: C_1  and  C_2
REMARK    2  A    between atoms: C_2  and  C_3
REMARK    3  A    between atoms: C_3  and  C_4
REMARK    4  A    between atoms: C_4  and  C_5
REMARK    5  A    between atoms: C_5  and  C_6
REMARK    6  A    between atoms: C_6  and  C_7
REMARK    7  A    between atoms: C_7  and  C_8
REMARK    8  A    between atoms: C_8  and  S_9
REMARK    9  A    between atoms: S_9  and  N_12
REMARK   10  A    between atoms: N_12  and  C_13
REMARK   11  A    between atoms: C_16  and  C_17
REMARK   12  A    between atoms: C_17  and  C_18
REMARK   13  A    between atoms: C_18  and  O_20
REMARK   14  A    between atoms: C_21  and  O_22
REMARK                            x       y       z     vdW  Elec       q    Type
REMARK                         _______ _______ _______ _____ _____    ______ ____
ROOT
ATOM      1  N   UNL     1       5.753   3.942  17.518  0.00  0.00    +0.000 NA
ATOM      2  H   UNL     1       6.596   3.446  17.825  0.00  0.00    +0.000 HD
ENDROOT
BRANCH   1   3
ATOM      3  C   UNL     1       4.866   4.162  18.708  0.00  0.00    +0.000 C 
ATOM      4  C   UNL     1       4.605   5.643  18.999  0.00  0.00    +0.000 C 
ATOM      5  C   UNL     1       3.160   5.717  19.529  0.00  0.00    +0.000 C 
ATOM      6  C   UNL     1       2.600   4.281  19.526  0.00  0.00    +0.000 C 
ATOM      7  C   UNL     1       3.450   3.611  18.452  0.00  0.00    +0.000 C 
BRANCH   7   8
ATOM      8  O   UNL     1       3.013   4.002  17.140  0.00  0.00    +0.000 OA
ATOM      9  H   UNL     1       3.786   4.153  16.571  0.00  0.00    +0.000 HD
ENDBRANCH   7   8
BRANCH   6  10
ATOM     10  C   UNL     1       2.746   3.554  20.878  0.00  0.00    +0.000 C 
BRANCH  10  11
ATOM     11  C   UNL     1       1.455   2.932  21.351  0.00  0.00    +0.000 C 
ATOM     12  O   UNL     1       1.313   2.292  22.381  0.00  0.00    +0.000 OA
BRANCH  11  13
ATOM     13  O   UNL     1       0.433   3.140  20.487  0.00  0.00    +0.000 OA
ATOM     14  H   UNL     1       0.161   4.074  20.410  0.00  0.00    +0.000 HD
ENDBRANCH  11  13
ENDBRANCH  10  11
ENDBRANCH   6  10
ENDBRANCH   1   3
BRANCH   1  15
ATOM     15  S   UNL     1       6.226   5.431  16.834  0.00  0.00    +0.000 S 
ATOM     16  O   UNL     1       7.190   6.028  17.731  0.00  0.00    +0.000 OA
ATOM     17  O   UNL     1       5.015   6.136  16.471  0.00  0.00    +0.000 OA
BRANCH  15  18
ATOM     18  C   UNL     1       7.110   4.976  15.348  0.00  0.00    +0.000 C 
BRANCH  18  19
ATOM     19  C   UNL     1       6.413   3.746  14.774  0.00  0.00    +0.000 C 
BRANCH  19  20
ATOM     20  C   UNL     1       5.604   4.042  13.524  0.00  0.00    +0.000 C 
BRANCH  20  21
ATOM     21  C   UNL     1       6.305   3.405  12.314  0.00  0.00    +0.000 C 
BRANCH  21  22
ATOM     22  C   UNL     1       5.295   2.716  11.405  0.00  0.00    +0.000 C 
BRANCH  22  23
ATOM     23  C   UNL     1       3.915   3.357  11.530  0.00  0.00    +0.000 C 
BRANCH  23  25
ATOM     24  C   UNL     1       2.919   4.446   9.494  0.00  0.00    +0.000 C 
ATOM     25  C   UNL     1       3.109   3.144  10.252  0.00  0.00    +0.000 C 
ENDBRANCH  23  25
ENDBRANCH  22  23
ENDBRANCH  21  22
ENDBRANCH  20  21
ENDBRANCH  19  20
ENDBRANCH  18  19
ENDBRANCH  15  18
ENDBRANCH   1  15
TORSDOF 13
ENDMDL
