MODEL 1
REMARK VINA RESULT:      -8.0      0.000      0.000
REMARK  Name = 
REMARK  4 active torsions:
REMARK  status: ('A' for Active; 'I' for Inactive)
REMARK    1  A    between atoms: C_1  and  C_2
REMARK    2  A    between atoms: C_5  and  C_6
REMARK    3  A    between atoms: C_6  and  N_7
REMARK    4  A    between atoms: C_6  and  C_17
REMARK                            x       y       z     vdW  Elec       q    Type
REMARK                         _______ _______ _______ _____ _____    ______ ____
ROOT
ATOM      1  C   UNL     1       5.539   5.373  16.709  0.00  0.00    +0.000 C 
ENDROOT
BRANCH   1   2
ATOM      2  N   UNL     1       4.484   4.458  17.179  0.00  0.00    +0.000 N 
ATOM      3  C   UNL     1       3.326   4.841  17.798  0.00  0.00    +0.000 C 
ATOM      4  O   UNL     1       2.978   6.019  17.863  0.00  0.00    +0.000 OA
ATOM      5  N   UNL     1       2.598   3.783  18.334  0.00  0.00    +0.000 N 
ATOM      6  C   UNL     1       1.226   4.021  18.767  0.00  0.00    +0.000 C 
ATOM      7  C   UNL     1       1.136   4.482  20.222  0.00  0.00    +0.000 C 
ATOM      8  C   UNL     1       1.389   3.383  21.253  0.00  0.00    +0.000 C 
ATOM      9  C   UNL     1       2.711   2.637  21.092  0.00  0.00    +0.000 C 
ATOM     10  C   UNL     1       2.726   1.743  19.853  0.00  0.00    +0.000 C 
ATOM     11  C   UNL     1       3.196   2.472  18.600  0.00  0.00    +0.000 C 
ATOM     12  H   UNL     1       4.579   3.484  16.938  0.00  0.00    +0.000 HD
ENDBRANCH   1   2
BRANCH   1  17
ATOM     13  C   UNL     1       7.201   3.815  11.309  0.00  0.00    +0.000 C 
ATOM     14  C   UNL     1       6.780   4.149  12.709  0.00  0.00    +0.000 A 
ATOM     15  C   UNL     1       5.648   3.572  13.292  0.00  0.00    +0.000 A 
ATOM     16  C   UNL     1       5.244   3.944  14.582  0.00  0.00    +0.000 A 
ATOM     17  C   UNL     1       5.973   4.896  15.322  0.00  0.00    +0.000 A 
ATOM     18  C   UNL     1       7.121   5.451  14.733  0.00  0.00    +0.000 A 
ATOM     19  C   UNL     1       7.508   5.081  13.448  0.00  0.00    +0.000 A 
ATOM     20  F   UNL     1       8.597   5.650  12.914  0.00  0.00    +0.000 F 
ENDBRANCH   1  17
BRANCH   1  21
ATOM     21  C   UNL     1       6.687   5.626  17.781  0.00  0.00    +0.000 C 
ATOM     22 CL   UNL     1       7.503   7.234  17.653  0.00  0.00    +0.000 Cl
ATOM     23 CL   UNL     1       6.017   5.529  19.458  0.00  0.00    +0.000 Cl
ATOM     24 CL   UNL     1       8.022   4.395  17.687  0.00  0.00    +0.000 Cl
ENDBRANCH   1  21
TORSDOF 3
ENDMDL
MODEL 2
REMARK VINA RESULT:      -8.0      0.079      1.044
REMARK  Name = 
REMARK  4 active torsions:
REMARK  status: ('A' for Active; 'I' for Inactive)
REMARK    1  A    between atoms: C_1  and  C_2
REMARK    2  A    between atoms: C_5  and  C_6
REMARK    3  A    between atoms: C_6  and  N_7
REMARK    4  A    between atoms: C_6  and  C_17
REMARK                            x       y       z     vdW  Elec       q    Type
REMARK                         _______ _______ _______ _____ _____    ______ ____
ROOT
ATOM      1  C   UNL     1       5.568   5.392  16.690  0.00  0.00    +0.000 C 
ENDROOT
BRANCH   1   2
ATOM      2  N   UNL     1       4.485   4.504  17.148  0.00  0.00    +0.000 N 
ATOM      3  C   UNL     1       3.358   4.910  17.806  0.00  0.00    +0.000 C 
ATOM      4  O   UNL     1       3.061   6.098  17.924  0.00  0.00    +0.000 OA
ATOM      5  N   UNL     1       2.596   3.863  18.317  0.00  0.00    +0.000 N 
ATOM      6  C   UNL     1       1.245   4.141  18.790  0.00  0.00    +0.000 C 
ATOM      7  C   UNL     1       1.204   4.548  20.262  0.00  0.00    +0.000 C 
ATOM      8  C   UNL     1       1.431   3.400  21.245  0.00  0.00    +0.000 C 
ATOM      9  C   UNL     1       2.716   2.607  21.026  0.00  0.00    +0.000 C 
ATOM     10  C   UNL     1       2.668   1.762  19.754  0.00  0.00    +0.000 C 
ATOM     11  C   UNL     1       3.143   2.519  18.519  0.00  0.00    +0.000 C 
ATOM     12  H   UNL     1       4.534   3.536  16.868  0.00  0.00    +0.000 HD
ENDBRANCH   1   2
BRANCH   1  17
ATOM     13  C   UNL     1       7.224   3.803  11.297  0.00  0.00    +0.000 C 
ATOM     14  C   UNL     1       6.806   4.145  12.696  0.00  0.00    +0.000 A 
ATOM     15  C   UNL     1       5.688   3.554  13.293  0.00  0.00    +0.000 A 
ATOM     16  C   UNL     1       5.286   3.933  14.581  0.00  0.00    +0.000 A 
ATOM     17  C   UNL     1       6.003   4.906  15.306  0.00  0.00    +0.000 A 
ATOM     18  C   UNL     1       7.136   5.476  14.703  0.00  0.00    +0.000 A 
ATOM     19  C   UNL     1       7.521   5.099  13.419  0.00  0.00    +0.000 A 
ATOM     20  F   UNL     1       8.596   5.682  12.871  0.00  0.00    +0.000 F 
ENDBRANCH   1  17
BRANCH   1  21
ATOM     21  C   UNL     1       6.713   5.610  17.773  0.00  0.00    +0.000 C 
ATOM     22 CL   UNL     1       6.155   5.542  19.491  0.00  0.00    +0.000 Cl
ATOM     23 CL   UNL     1       7.991   4.342  17.604  0.00  0.00    +0.000 Cl
ATOM     24 CL   UNL     1       7.553   7.214  17.598  0.00  0.00    +0.000 Cl
ENDBRANCH   1  21
TORSDOF 3
ENDMDL
MODEL 3
REMARK VINA RESULT:      -7.9      0.058      1.049
REMARK  Name = 
REMARK  4 active torsions:
REMARK  status: ('A' for Active; 'I' for Inactive)
REMARK    1  A    between atoms: C_1  and  C_2
REMARK    2  A    between atoms: C_5  and  C_6
REMARK    3  A    between atoms: C_6  and  N_7
REMARK    4  A    between atoms: C_6  and  C_17
REMARK                            x       y       z     vdW  Elec       q    Type
REMARK                         _______ _______ _______ _____ _____    ______ ____
ROOT
ATOM      1  C   UNL     1       5.572   5.357  16.707  0.00  0.00    +0.000 C 
ENDROOT
BRANCH   1   2
ATOM      2  N   UNL     1       4.490   4.468  17.163  0.00  0.00    +0.000 N 
ATOM      3  C   UNL     1       3.351   4.876  17.801  0.00  0.00    +0.000 C 
ATOM      4  O   UNL     1       3.045   6.063  17.898  0.00  0.00    +0.000 OA
ATOM      5  N   UNL     1       2.590   3.831  18.318  0.00  0.00    +0.000 N 
ATOM      6  C   UNL     1       1.231   4.106  18.769  0.00  0.00    +0.000 C 
ATOM      7  C   UNL     1       1.169   4.534  20.235  0.00  0.00    +0.000 C 
ATOM      8  C   UNL     1       1.391   3.402  21.237  0.00  0.00    +0.000 C 
ATOM      9  C   UNL     1       2.685   2.615  21.046  0.00  0.00    +0.000 C 
ATOM     10  C   UNL     1       2.659   1.752  19.786  0.00  0.00    +0.000 C 
ATOM     11  C   UNL     1       3.145   2.493  18.547  0.00  0.00    +0.000 C 
ATOM     12  H   UNL     1       4.549   3.497  16.898  0.00  0.00    +0.000 HD
ENDBRANCH   1   2
BRANCH   1  17
ATOM     13  C   UNL     1       7.195   3.807  11.292  0.00  0.00    +0.000 C 
ATOM     14  C   UNL     1       6.785   4.139  12.696  0.00  0.00    +0.000 A 
ATOM     15  C   UNL     1       5.667   3.548  13.293  0.00  0.00    +0.000 A 
ATOM     16  C   UNL     1       5.273   3.918  14.587  0.00  0.00    +0.000 A 
ATOM     17  C   UNL     1       5.998   4.882  15.316  0.00  0.00    +0.000 A 
ATOM     18  C   UNL     1       7.130   5.452  14.712  0.00  0.00    +0.000 A 
ATOM     19  C   UNL     1       7.507   5.084  13.424  0.00  0.00    +0.000 A 
ATOM     20  F   UNL     1       8.583   5.667  12.875  0.00  0.00    +0.000 F 
ENDBRANCH   1  17
BRANCH   1  21
ATOM     21  C   UNL     1       6.724   5.565  17.785  0.00  0.00    +0.000 C 
ATOM     22 CL   UNL     1       8.061   4.352  17.708  0.00  0.00    +0.000 Cl
ATOM     23 CL   UNL     1       7.496   7.187  17.577  0.00  0.00    +0.000 Cl
ATOM     24 CL   UNL     1       6.108   5.503  19.495  0.00  0.00    +0.000 Cl
ENDBRANCH   1  21
TORSDOF 3
ENDMDL
MODEL 4
REMARK VINA RESULT:      -7.8      1.014      1.415
REMARK  Name = 
REMARK  4 active torsions:
REMARK  status: ('A' for Active; 'I' for Inactive)
REMARK    1  A    between atoms: C_1  and  C_2
REMARK    2  A    between atoms: C_5  and  C_6
REMARK    3  A    between atoms: C_6  and  N_7
REMARK    4  A    between atoms: C_6  and  C_17
REMARK                            x       y       z     vdW  Elec       q    Type
REMARK                         _______ _______ _______ _____ _____    ______ ____
ROOT
ATOM      1  C   UNL     1       5.512   5.444  16.637  0.00  0.00    +0.000 C 
ENDROOT
BRANCH   1   2
ATOM      2  N   UNL     1       4.459   4.512  17.074  0.00  0.00    +0.000 N 
ATOM      3  C   UNL     1       3.302   4.870  17.709  0.00  0.00    +0.000 C 
ATOM      4  O   UNL     1       2.954   6.045  17.820  0.00  0.00    +0.000 OA
ATOM      5  N   UNL     1       2.575   3.792  18.206  0.00  0.00    +0.000 N 
ATOM      6  C   UNL     1       1.204   4.013  18.651  0.00  0.00    +0.000 C 
ATOM      7  C   UNL     1       1.117   4.418  20.122  0.00  0.00    +0.000 C 
ATOM      8  C   UNL     1       1.372   3.281  21.111  0.00  0.00    +0.000 C 
ATOM      9  C   UNL     1       2.694   2.542  20.918  0.00  0.00    +0.000 C 
ATOM     10  C   UNL     1       2.707   1.696  19.645  0.00  0.00    +0.000 C 
ATOM     11  C   UNL     1       3.174   2.472  18.420  0.00  0.00    +0.000 C 
ATOM     12  H   UNL     1       4.554   3.547  16.796  0.00  0.00    +0.000 HD
ENDBRANCH   1   2
BRANCH   1  17
ATOM     13  C   UNL     1       7.106   3.544  11.327  0.00  0.00    +0.000 C 
ATOM     14  C   UNL     1       6.713   4.092  12.666  0.00  0.00    +0.000 A 
ATOM     15  C   UNL     1       7.607   4.829  13.448  0.00  0.00    +0.000 A 
ATOM     16  C   UNL     1       7.232   5.283  14.721  0.00  0.00    +0.000 A 
ATOM     17  C   UNL     1       5.946   5.018  15.233  0.00  0.00    +0.000 A 
ATOM     18  C   UNL     1       5.051   4.296  14.427  0.00  0.00    +0.000 A 
ATOM     19  C   UNL     1       5.437   3.842  13.169  0.00  0.00    +0.000 A 
ATOM     20  F   UNL     1       4.559   3.138  12.440  0.00  0.00    +0.000 F 
ENDBRANCH   1  17
BRANCH   1  21
ATOM     21  C   UNL     1       6.662   5.658  17.716  0.00  0.00    +0.000 C 
ATOM     22 CL   UNL     1       7.531   7.238  17.595  0.00  0.00    +0.000 Cl
ATOM     23 CL   UNL     1       5.978   5.581  19.389  0.00  0.00    +0.000 Cl
ATOM     24 CL   UNL     1       7.956   4.383  17.630  0.00  0.00    +0.000 Cl
ENDBRANCH   1  21
TORSDOF 3
ENDMDL
MODEL 5
REMARK VINA RESULT:      -7.8      1.017      1.761
REMARK  Name = 
REMARK  4 active torsions:
REMARK  status: ('A' for Active; 'I' for Inactive)
REMARK    1  A    between atoms: C_1  and  C_2
REMARK    2  A    between atoms: C_5  and  C_6
REMARK    3  A    between atoms: C_6  and  N_7
REMARK    4  A    between atoms: C_6  and  C_17
REMARK                            x       y       z     vdW  Elec       q    Type
REMARK                         _______ _______ _______ _____ _____    ______ ____
ROOT
ATOM      1  C   UNL     1       5.527   5.426  16.685  0.00  0.00    +0.000 C 
ENDROOT
BRANCH   1   2
ATOM      2  N   UNL     1       4.466   4.502  17.122  0.00  0.00    +0.000 N 
ATOM      3  C   UNL     1       3.308   4.870  17.749  0.00  0.00    +0.000 C 
ATOM      4  O   UNL     1       2.965   6.047  17.850  0.00  0.00    +0.000 OA
ATOM      5  N   UNL     1       2.573   3.799  18.248  0.00  0.00    +0.000 N 
ATOM      6  C   UNL     1       1.201   4.030  18.684  0.00  0.00    +0.000 C 
ATOM      7  C   UNL     1       1.107   4.445  20.153  0.00  0.00    +0.000 C 
ATOM      8  C   UNL     1       1.351   3.313  21.150  0.00  0.00    +0.000 C 
ATOM      9  C   UNL     1       2.670   2.566  20.969  0.00  0.00    +0.000 C 
ATOM     10  C   UNL     1       2.685   1.712  19.702  0.00  0.00    +0.000 C 
ATOM     11  C   UNL     1       3.163   2.477  18.474  0.00  0.00    +0.000 C 
ATOM     12  H   UNL     1       4.557   3.535  16.851  0.00  0.00    +0.000 HD
ENDBRANCH   1   2
BRANCH   1  17
ATOM     13  C   UNL     1       7.042   3.563  11.339  0.00  0.00    +0.000 C 
ATOM     14  C   UNL     1       6.671   4.102  12.688  0.00  0.00    +0.000 A 
ATOM     15  C   UNL     1       7.594   4.788  13.483  0.00  0.00    +0.000 A 
ATOM     16  C   UNL     1       7.238   5.233  14.764  0.00  0.00    +0.000 A 
ATOM     17  C   UNL     1       5.943   5.009  15.273  0.00  0.00    +0.000 A 
ATOM     18  C   UNL     1       5.019   4.338  14.455  0.00  0.00    +0.000 A 
ATOM     19  C   UNL     1       5.386   3.893  13.188  0.00  0.00    +0.000 A 
ATOM     20  F   UNL     1       4.481   3.238  12.447  0.00  0.00    +0.000 F 
ENDBRANCH   1  17
BRANCH   1  21
ATOM     21  C   UNL     1       6.688   5.615  17.756  0.00  0.00    +0.000 C 
ATOM     22 CL   UNL     1       8.005   4.379  17.672  0.00  0.00    +0.000 Cl
ATOM     23 CL   UNL     1       7.487   7.223  17.543  0.00  0.00    +0.000 Cl
ATOM     24 CL   UNL     1       6.083   5.563  19.470  0.00  0.00    +0.000 Cl
ENDBRANCH   1  21
TORSDOF 3
ENDMDL
MODEL 6
REMARK VINA RESULT:      -7.8      1.008      1.752
REMARK  Name = 
REMARK  4 active torsions:
REMARK  status: ('A' for Active; 'I' for Inactive)
REMARK    1  A    between atoms: C_1  and  C_2
REMARK    2  A    between atoms: C_5  and  C_6
REMARK    3  A    between atoms: C_6  and  N_7
REMARK    4  A    between atoms: C_6  and  C_17
REMARK                            x       y       z     vdW  Elec       q    Type
REMARK                         _______ _______ _______ _____ _____    ______ ____
ROOT
ATOM      1  C   UNL     1       5.551   5.475  16.637  0.00  0.00    +0.000 C 
ENDROOT
BRANCH   1   2
ATOM      2  N   UNL     1       4.474   4.564  17.062  0.00  0.00    +0.000 N 
ATOM      3  C   UNL     1       3.339   4.940  17.725  0.00  0.00    +0.000 C 
ATOM      4  O   UNL     1       3.030   6.121  17.875  0.00  0.00    +0.000 OA
ATOM      5  N   UNL     1       2.585   3.871  18.202  0.00  0.00    +0.000 N 
ATOM      6  C   UNL     1       1.228   4.122  18.674  0.00  0.00    +0.000 C 
ATOM      7  C   UNL     1       1.175   4.486  20.157  0.00  0.00    +0.000 C 
ATOM      8  C   UNL     1       1.408   3.313  21.108  0.00  0.00    +0.000 C 
ATOM      9  C   UNL     1       2.702   2.539  20.874  0.00  0.00    +0.000 C 
ATOM     10  C   UNL     1       2.670   1.731  19.577  0.00  0.00    +0.000 C 
ATOM     11  C   UNL     1       3.144   2.527  18.368  0.00  0.00    +0.000 C 
ATOM     12  H   UNL     1       4.534   3.605  16.755  0.00  0.00    +0.000 HD
ENDBRANCH   1   2
BRANCH   1  17
ATOM     13  C   UNL     1       7.146   3.564  11.330  0.00  0.00    +0.000 C 
ATOM     14  C   UNL     1       6.751   4.115  12.668  0.00  0.00    +0.000 A 
ATOM     15  C   UNL     1       7.639   4.868  13.442  0.00  0.00    +0.000 A 
ATOM     16  C   UNL     1       7.264   5.324  14.713  0.00  0.00    +0.000 A 
ATOM     17  C   UNL     1       5.984   5.046  15.233  0.00  0.00    +0.000 A 
ATOM     18  C   UNL     1       5.094   4.308  14.436  0.00  0.00    +0.000 A 
ATOM     19  C   UNL     1       5.481   3.852  13.178  0.00  0.00    +0.000 A 
ATOM     20  F   UNL     1       4.609   3.133  12.457  0.00  0.00    +0.000 F 
ENDBRANCH   1  17
BRANCH   1  21
ATOM     21  C   UNL     1       6.698   5.658  17.724  0.00  0.00    +0.000 C 
ATOM     22 CL   UNL     1       6.134   5.586  19.439  0.00  0.00    +0.000 Cl
ATOM     23 CL   UNL     1       7.947   4.363  17.545  0.00  0.00    +0.000 Cl
ATOM     24 CL   UNL     1       7.573   7.244  17.566  0.00  0.00    +0.000 Cl
ENDBRANCH   1  21
TORSDOF 3
ENDMDL
MODEL 7
REMARK VINA RESULT:      -7.3      3.622      6.917
REMARK  Name = 
REMARK  4 active torsions:
REMARK  status: ('A' for Active; 'I' for Inactive)
REMARK    1  A    between atoms: C_1  and  C_2
REMARK    2  A    between atoms: C_5  and  C_6
REMARK    3  A    between atoms: C_6  and  N_7
REMARK    4  A    between atoms: C_6  and  C_17
REMARK                            x       y       z     vdW  Elec       q    Type
REMARK                         _______ _______ _______ _____ _____    ______ ____
ROOT
ATOM      1  C   UNL     1       2.625   4.082  18.202  0.00  0.00    +0.000 C 
ENDROOT
BRANCH   1   2
ATOM      2  N   UNL     1       3.984   4.326  17.687  0.00  0.00    +0.000 N 
ATOM      3  C   UNL     1       5.115   4.400  18.451  0.00  0.00    +0.000 C 
ATOM      4  O   UNL     1       5.122   4.091  19.641  0.00  0.00    +0.000 OA
ATOM      5  N   UNL     1       6.235   4.850  17.757  0.00  0.00    +0.000 N 
ATOM      6  C   UNL     1       7.549   4.709  18.374  0.00  0.00    +0.000 C 
ATOM      7  C   UNL     1       7.926   5.907  19.244  0.00  0.00    +0.000 C 
ATOM      8  C   UNL     1       8.305   7.166  18.464  0.00  0.00    +0.000 C 
ATOM      9  C   UNL     1       7.259   7.642  17.460  0.00  0.00    +0.000 C 
ATOM     10  C   UNL     1       7.135   6.703  16.261  0.00  0.00    +0.000 C 
ATOM     11  C   UNL     1       6.134   5.577  16.488  0.00  0.00    +0.000 C 
ATOM     12  H   UNL     1       4.100   4.343  16.685  0.00  0.00    +0.000 HD
ENDBRANCH   1   2
BRANCH   1  17
ATOM     13  C   UNL     1       1.309   8.918  21.241  0.00  0.00    +0.000 C 
ATOM     14  C   UNL     1       1.582   7.660  20.471  0.00  0.00    +0.000 A 
ATOM     15  C   UNL     1       1.379   6.397  21.034  0.00  0.00    +0.000 A 
ATOM     16  C   UNL     1       1.695   5.237  20.313  0.00  0.00    +0.000 A 
ATOM     17  C   UNL     1       2.213   5.318  19.005  0.00  0.00    +0.000 A 
ATOM     18  C   UNL     1       2.392   6.593  18.444  0.00  0.00    +0.000 A 
ATOM     19  C   UNL     1       2.083   7.738  19.172  0.00  0.00    +0.000 A 
ATOM     20  F   UNL     1       2.288   8.936  18.608  0.00  0.00    +0.000 F 
ENDBRANCH   1  17
BRANCH   1  21
ATOM     21  C   UNL     1       2.457   2.668  18.911  0.00  0.00    +0.000 C 
ATOM     22 CL   UNL     1       2.825   2.660  20.681  0.00  0.00    +0.000 Cl
ATOM     23 CL   UNL     1       0.756   2.077  18.743  0.00  0.00    +0.000 Cl
ATOM     24 CL   UNL     1       3.523   1.385  18.187  0.00  0.00    +0.000 Cl
ENDBRANCH   1  21
TORSDOF 3
ENDMDL
MODEL 8
REMARK VINA RESULT:      -7.2      3.614      6.949
REMARK  Name = 
REMARK  4 active torsions:
REMARK  status: ('A' for Active; 'I' for Inactive)
REMARK    1  A    between atoms: C_1  and  C_2
REMARK    2  A    between atoms: C_5  and  C_6
REMARK    3  A    between atoms: C_6  and  N_7
REMARK    4  A    between atoms: C_6  and  C_17
REMARK                            x       y       z     vdW  Elec       q    Type
REMARK                         _______ _______ _______ _____ _____    ______ ____
ROOT
ATOM      1  C   UNL     1       2.679   4.062  18.129  0.00  0.00    +0.000 C 
ENDROOT
BRANCH   1   2
ATOM      2  N   UNL     1       4.044   4.321  17.638  0.00  0.00    +0.000 N 
ATOM      3  C   UNL     1       5.163   4.389  18.421  0.00  0.00    +0.000 C 
ATOM      4  O   UNL     1       5.153   4.062  19.607  0.00  0.00    +0.000 OA
ATOM      5  N   UNL     1       6.291   4.854  17.751  0.00  0.00    +0.000 N 
ATOM      6  C   UNL     1       7.596   4.710  18.386  0.00  0.00    +0.000 C 
ATOM      7  C   UNL     1       7.954   5.897  19.280  0.00  0.00    +0.000 C 
ATOM      8  C   UNL     1       8.338   7.169  18.524  0.00  0.00    +0.000 C 
ATOM      9  C   UNL     1       7.305   7.655  17.512  0.00  0.00    +0.000 C 
ATOM     10  C   UNL     1       7.203   6.734  16.297  0.00  0.00    +0.000 C 
ATOM     11  C   UNL     1       6.206   5.600  16.492  0.00  0.00    +0.000 C 
ATOM     12  H   UNL     1       4.175   4.353  16.639  0.00  0.00    +0.000 HD
ENDBRANCH   1   2
BRANCH   1  17
ATOM     13  C   UNL     1       1.307   8.827  21.255  0.00  0.00    +0.000 C 
ATOM     14  C   UNL     1       1.595   7.587  20.462  0.00  0.00    +0.000 A 
ATOM     15  C   UNL     1       1.388   6.311  20.994  0.00  0.00    +0.000 A 
ATOM     16  C   UNL     1       1.717   5.168  20.252  0.00  0.00    +0.000 A 
ATOM     17  C   UNL     1       2.252   5.279  18.953  0.00  0.00    +0.000 A 
ATOM     18  C   UNL     1       2.434   6.566  18.422  0.00  0.00    +0.000 A 
ATOM     19  C   UNL     1       2.112   7.694  19.171  0.00  0.00    +0.000 A 
ATOM     20  F   UNL     1       2.321   8.905  18.636  0.00  0.00    +0.000 F 
ENDBRANCH   1  17
BRANCH   1  21
ATOM     21  C   UNL     1       2.504   2.633  18.804  0.00  0.00    +0.000 C 
ATOM     22 CL   UNL     1       0.824   1.968  18.748  0.00  0.00    +0.000 Cl
ATOM     23 CL   UNL     1       3.560   1.415  17.985  0.00  0.00    +0.000 Cl
ATOM     24 CL   UNL     1       2.972   2.621  20.562  0.00  0.00    +0.000 Cl
ENDBRANCH   1  21
TORSDOF 3
ENDMDL
MODEL 9
REMARK VINA RESULT:      -7.1      3.623      6.942
REMARK  Name = 
REMARK  4 active torsions:
REMARK  status: ('A' for Active; 'I' for Inactive)
REMARK    1  A    between atoms: C_1  and  C_2
REMARK    2  A    between atoms: C_5  and  C_6
REMARK    3  A    between atoms: C_6  and  N_7
REMARK    4  A    between atoms: C_6  and  C_17
REMARK                            x       y       z     vdW  Elec       q    Type
REMARK                         _______ _______ _______ _____ _____    ______ ____
ROOT
ATOM      1  C   UNL     1       2.627   4.097  18.178  0.00  0.00    +0.000 C 
ENDROOT
BRANCH   1   2
ATOM      2  N   UNL     1       3.986   4.345  17.665  0.00  0.00    +0.000 N 
ATOM      3  C   UNL     1       5.118   4.408  18.430  0.00  0.00    +0.000 C 
ATOM      4  O   UNL     1       5.124   4.084  19.617  0.00  0.00    +0.000 OA
ATOM      5  N   UNL     1       6.238   4.865  17.742  0.00  0.00    +0.000 N 
ATOM      6  C   UNL     1       7.551   4.714  18.357  0.00  0.00    +0.000 C 
ATOM      7  C   UNL     1       7.931   5.900  19.242  0.00  0.00    +0.000 C 
ATOM      8  C   UNL     1       8.311   7.168  18.478  0.00  0.00    +0.000 C 
ATOM      9  C   UNL     1       7.266   7.659  17.480  0.00  0.00    +0.000 C 
ATOM     10  C   UNL     1       7.140   6.735  16.269  0.00  0.00    +0.000 C 
ATOM     11  C   UNL     1       6.138   5.607  16.483  0.00  0.00    +0.000 C 
ATOM     12  H   UNL     1       4.102   4.374  16.664  0.00  0.00    +0.000 HD
ENDBRANCH   1   2
BRANCH   1  17
ATOM     13  C   UNL     1       1.313   8.902  21.265  0.00  0.00    +0.000 C 
ATOM     14  C   UNL     1       1.586   7.652  20.483  0.00  0.00    +0.000 A 
ATOM     15  C   UNL     1       1.380   6.383  21.033  0.00  0.00    +0.000 A 
ATOM     16  C   UNL     1       1.696   5.231  20.300  0.00  0.00    +0.000 A 
ATOM     17  C   UNL     1       2.215   5.325  18.993  0.00  0.00    +0.000 A 
ATOM     18  C   UNL     1       2.396   6.605  18.445  0.00  0.00    +0.000 A 
ATOM     19  C   UNL     1       2.088   7.743  19.186  0.00  0.00    +0.000 A 
ATOM     20  F   UNL     1       2.295   8.947  18.634  0.00  0.00    +0.000 F 
ENDBRANCH   1  17
BRANCH   1  21
ATOM     21  C   UNL     1       2.458   2.676  18.873  0.00  0.00    +0.000 C 
ATOM     22 CL   UNL     1       3.536   1.380  18.221  0.00  0.00    +0.000 Cl
ATOM     23 CL   UNL     1       2.816   2.793  20.642  0.00  0.00    +0.000 Cl
ATOM     24 CL   UNL     1       0.768   2.019  18.732  0.00  0.00    +0.000 Cl
ENDBRANCH   1  21
TORSDOF 3
ENDMDL
