MODEL 1
REMARK VINA RESULT:      -6.0      0.000      0.000
REMARK  Name = 
REMARK  4 active torsions:
REMARK  status: ('A' for Active; 'I' for Inactive)
REMARK    1  A    between atoms: C_1  and  C_2
REMARK    2  A    between atoms: C_2  and  C_3
REMARK    3  A    between atoms: C_3  and  C_4
REMARK    4  A    between atoms: C_4  and  C_5
REMARK                            x       y       z     vdW  Elec       q    Type
REMARK                         _______ _______ _______ _____ _____    ______ ____
ROOT
ATOM      1  C   UNL     1       3.741   4.289  18.463  0.00  0.00    +0.000 C 
ATOM      2  C   UNL     1       4.475   5.391  18.299  0.00  0.00    +0.000 C 
ATOM      3 BR   UNL     1       3.849   6.996  17.629  0.00  0.00    +0.000 Br
ATOM      4  C   UNL     1       5.811   5.136  18.751  0.00  0.00    +0.000 C 
ATOM      5  C   UNL     1       6.973   5.764  18.540  0.00  0.00    +0.000 C 
ATOM      6 BR   UNL     1       7.353   7.247  17.499  0.00  0.00    +0.000 Br
ATOM      7  O   UNL     1       5.829   3.915  19.430  0.00  0.00    +0.000 OA
ATOM      8  C   UNL     1       4.602   3.358  19.197  0.00  0.00    +0.000 C 
ATOM      9  O   UNL     1       4.262   2.248  19.575  0.00  0.00    +0.000 OA
ENDROOT
BRANCH   1  10
ATOM     10  C   UNL     1       2.355   3.948  18.037  0.00  0.00    +0.000 C 
BRANCH  10  11
ATOM     11  C   UNL     1       1.370   4.233  19.179  0.00  0.00    +0.000 C 
BRANCH  11  13
ATOM     12  C   UNL     1       1.325   2.894  21.290  0.00  0.00    +0.000 C 
ATOM     13  C   UNL     1       0.851   2.961  19.847  0.00  0.00    +0.000 C 
ENDBRANCH  11  13
ENDBRANCH  10  11
ENDBRANCH   1  10
TORSDOF 3
ENDMDL
MODEL 2
REMARK VINA RESULT:      -5.7      2.692      4.722
REMARK  Name = 
REMARK  4 active torsions:
REMARK  status: ('A' for Active; 'I' for Inactive)
REMARK    1  A    between atoms: C_1  and  C_2
REMARK    2  A    between atoms: C_2  and  C_3
REMARK    3  A    between atoms: C_3  and  C_4
REMARK    4  A    between atoms: C_4  and  C_5
REMARK                            x       y       z     vdW  Elec       q    Type
REMARK                         _______ _______ _______ _____ _____    ______ ____
ROOT
ATOM      1  C   UNL     1       4.571   4.997  18.044  0.00  0.00    +0.000 C 
ATOM      2  C   UNL     1       3.505   4.320  18.474  0.00  0.00    +0.000 C 
ATOM      3 BR   UNL     1       1.798   4.472  17.782  0.00  0.00    +0.000 Br
ATOM      4  C   UNL     1       3.904   3.441  19.533  0.00  0.00    +0.000 C 
ATOM      5  C   UNL     1       3.215   2.793  20.480  0.00  0.00    +0.000 C 
ATOM      6 BR   UNL     1       1.402   2.807  20.852  0.00  0.00    +0.000 Br
ATOM      7  O   UNL     1       5.300   3.411  19.589  0.00  0.00    +0.000 OA
ATOM      8  C   UNL     1       5.713   4.404  18.746  0.00  0.00    +0.000 C 
ATOM      9  O   UNL     1       6.877   4.732  18.579  0.00  0.00    +0.000 OA
ENDROOT
BRANCH   1  10
ATOM     10  C   UNL     1       4.707   6.127  17.083  0.00  0.00    +0.000 C 
BRANCH  10  11
ATOM     11  C   UNL     1       5.621   5.719  15.919  0.00  0.00    +0.000 C 
BRANCH  11  13
ATOM     12  C   UNL     1       6.252   3.925  14.295  0.00  0.00    +0.000 C 
ATOM     13  C   UNL     1       5.166   4.433  15.230  0.00  0.00    +0.000 C 
ENDBRANCH  11  13
ENDBRANCH  10  11
ENDBRANCH   1  10
TORSDOF 3
ENDMDL
MODEL 3
REMARK VINA RESULT:      -5.6      2.526      4.197
REMARK  Name = 
REMARK  4 active torsions:
REMARK  status: ('A' for Active; 'I' for Inactive)
REMARK    1  A    between atoms: C_1  and  C_2
REMARK    2  A    between atoms: C_2  and  C_3
REMARK    3  A    between atoms: C_3  and  C_4
REMARK    4  A    between atoms: C_4  and  C_5
REMARK                            x       y       z     vdW  Elec       q    Type
REMARK                         _______ _______ _______ _____ _____    ______ ____
ROOT
ATOM      1  C   UNL     1       4.380   4.641  17.967  0.00  0.00    +0.000 C 
ATOM      2  C   UNL     1       3.346   4.012  18.529  0.00  0.00    +0.000 C 
ATOM      3 BR   UNL     1       1.604   4.068  17.915  0.00  0.00    +0.000 Br
ATOM      4  C   UNL     1       3.813   3.267  19.661  0.00  0.00    +0.000 C 
ATOM      5  C   UNL     1       3.183   2.731  20.713  0.00  0.00    +0.000 C 
ATOM      6 BR   UNL     1       1.391   2.775  21.177  0.00  0.00    +0.000 Br
ATOM      7  O   UNL     1       5.209   3.255  19.646  0.00  0.00    +0.000 OA
ATOM      8  C   UNL     1       5.565   4.145  18.671  0.00  0.00    +0.000 C 
ATOM      9  O   UNL     1       6.714   4.459  18.405  0.00  0.00    +0.000 OA
ENDROOT
BRANCH   1  10
ATOM     10  C   UNL     1       4.450   5.651  16.873  0.00  0.00    +0.000 C 
BRANCH  10  11
ATOM     11  C   UNL     1       4.404   7.067  17.463  0.00  0.00    +0.000 C 
BRANCH  11  13
ATOM     12  C   UNL     1       2.441   7.651  18.898  0.00  0.00    +0.000 C 
ATOM     13  C   UNL     1       2.995   7.657  17.481  0.00  0.00    +0.000 C 
ENDBRANCH  11  13
ENDBRANCH  10  11
ENDBRANCH   1  10
TORSDOF 3
ENDMDL
MODEL 4
REMARK VINA RESULT:      -5.5      2.278      2.645
REMARK  Name = 
REMARK  4 active torsions:
REMARK  status: ('A' for Active; 'I' for Inactive)
REMARK    1  A    between atoms: C_1  and  C_2
REMARK    2  A    between atoms: C_2  and  C_3
REMARK    3  A    between atoms: C_3  and  C_4
REMARK    4  A    between atoms: C_4  and  C_5
REMARK                            x       y       z     vdW  Elec       q    Type
REMARK                         _______ _______ _______ _____ _____    ______ ____
ROOT
ATOM      1  C   UNL     1       2.973   4.875  18.510  0.00  0.00    +0.000 C 
ATOM      2  C   UNL     1       4.264   4.734  18.203  0.00  0.00    +0.000 C 
ATOM      3 BR   UNL     1       5.675   5.338  19.233  0.00  0.00    +0.000 Br
ATOM      4  C   UNL     1       4.375   4.017  16.967  0.00  0.00    +0.000 C 
ATOM      5  C   UNL     1       5.374   3.877  16.089  0.00  0.00    +0.000 C 
ATOM      6 BR   UNL     1       7.070   4.620  16.088  0.00  0.00    +0.000 Br
ATOM      7  O   UNL     1       3.120   3.501  16.634  0.00  0.00    +0.000 OA
ATOM      8  C   UNL     1       2.250   4.076  17.517  0.00  0.00    +0.000 C 
ATOM      9  O   UNL     1       1.039   3.921  17.499  0.00  0.00    +0.000 OA
ENDROOT
BRANCH   1  10
ATOM     10  C   UNL     1       2.288   5.649  19.584  0.00  0.00    +0.000 C 
BRANCH  10  11
ATOM     11  C   UNL     1       2.271   4.838  20.886  0.00  0.00    +0.000 C 
BRANCH  11  13
ATOM     12  C   UNL     1       1.730   2.526  21.672  0.00  0.00    +0.000 C 
ATOM     13  C   UNL     1       1.228   3.721  20.876  0.00  0.00    +0.000 C 
ENDBRANCH  11  13
ENDBRANCH  10  11
ENDBRANCH   1  10
TORSDOF 3
ENDMDL
MODEL 5
REMARK VINA RESULT:      -5.5      3.764      5.413
REMARK  Name = 
REMARK  4 active torsions:
REMARK  status: ('A' for Active; 'I' for Inactive)
REMARK    1  A    between atoms: C_1  and  C_2
REMARK    2  A    between atoms: C_2  and  C_3
REMARK    3  A    between atoms: C_3  and  C_4
REMARK    4  A    between atoms: C_4  and  C_5
REMARK                            x       y       z     vdW  Elec       q    Type
REMARK                         _______ _______ _______ _____ _____    ______ ____
ROOT
ATOM      1  C   UNL     1       5.861   4.511  16.401  0.00  0.00    +0.000 C 
ATOM      2  C   UNL     1       4.914   4.341  17.326  0.00  0.00    +0.000 C 
ATOM      3 BR   UNL     1       3.872   2.827  17.516  0.00  0.00    +0.000 Br
ATOM      4  C   UNL     1       4.860   5.506  18.159  0.00  0.00    +0.000 C 
ATOM      5  C   UNL     1       3.933   5.972  19.004  0.00  0.00    +0.000 C 
ATOM      6 BR   UNL     1       2.258   5.302  19.421  0.00  0.00    +0.000 Br
ATOM      7  O   UNL     1       5.968   6.310  17.879  0.00  0.00    +0.000 OA
ATOM      8  C   UNL     1       6.538   5.758  16.766  0.00  0.00    +0.000 C 
ATOM      9  O   UNL     1       7.500   6.225  16.176  0.00  0.00    +0.000 OA
ENDROOT
BRANCH   1  10
ATOM     10  C   UNL     1       6.240   3.700  15.210  0.00  0.00    +0.000 C 
BRANCH  10  11
ATOM     11  C   UNL     1       5.472   4.190  13.975  0.00  0.00    +0.000 C 
BRANCH  11  13
ATOM     12  C   UNL     1       4.722   3.314  11.757  0.00  0.00    +0.000 C 
ATOM     13  C   UNL     1       5.911   3.494  12.688  0.00  0.00    +0.000 C 
ENDBRANCH  11  13
ENDBRANCH  10  11
ENDBRANCH   1  10
TORSDOF 3
ENDMDL
MODEL 6
REMARK VINA RESULT:      -5.5      2.237      4.743
REMARK  Name = 
REMARK  4 active torsions:
REMARK  status: ('A' for Active; 'I' for Inactive)
REMARK    1  A    between atoms: C_1  and  C_2
REMARK    2  A    between atoms: C_2  and  C_3
REMARK    3  A    between atoms: C_3  and  C_4
REMARK    4  A    between atoms: C_4  and  C_5
REMARK                            x       y       z     vdW  Elec       q    Type
REMARK                         _______ _______ _______ _____ _____    ______ ____
ROOT
ATOM      1  C   UNL     1       4.520   5.335  16.883  0.00  0.00    +0.000 C 
ATOM      2  C   UNL     1       3.535   5.307  17.782  0.00  0.00    +0.000 C 
ATOM      3 BR   UNL     1       2.544   6.771  18.322  0.00  0.00    +0.000 Br
ATOM      4  C   UNL     1       3.354   3.959  18.235  0.00  0.00    +0.000 C 
ATOM      5  C   UNL     1       2.744   3.439  19.306  0.00  0.00    +0.000 C 
ATOM      6 BR   UNL     1       1.892   4.282  20.717  0.00  0.00    +0.000 Br
ATOM      7  O   UNL     1       4.093   3.106  17.412  0.00  0.00    +0.000 OA
ATOM      8  C   UNL     1       4.861   3.932  16.639  0.00  0.00    +0.000 C 
ATOM      9  O   UNL     1       5.696   3.549  15.834  0.00  0.00    +0.000 OA
ENDROOT
BRANCH   1  10
ATOM     10  C   UNL     1       5.214   6.468  16.208  0.00  0.00    +0.000 C 
BRANCH  10  11
ATOM     11  C   UNL     1       6.142   7.181  17.201  0.00  0.00    +0.000 C 
BRANCH  11  13
ATOM     12  C   UNL     1       7.669   6.040  18.820  0.00  0.00    +0.000 C 
ATOM     13  C   UNL     1       7.484   6.472  17.374  0.00  0.00    +0.000 C 
ENDBRANCH  11  13
ENDBRANCH  10  11
ENDBRANCH   1  10
TORSDOF 3
ENDMDL
MODEL 7
REMARK VINA RESULT:      -5.5      3.441      5.182
REMARK  Name = 
REMARK  4 active torsions:
REMARK  status: ('A' for Active; 'I' for Inactive)
REMARK    1  A    between atoms: C_1  and  C_2
REMARK    2  A    between atoms: C_2  and  C_3
REMARK    3  A    between atoms: C_3  and  C_4
REMARK    4  A    between atoms: C_4  and  C_5
REMARK                            x       y       z     vdW  Elec       q    Type
REMARK                         _______ _______ _______ _____ _____    ______ ____
ROOT
ATOM      1  C   UNL     1       5.724   3.973  16.697  0.00  0.00    +0.000 C 
ATOM      2  C   UNL     1       4.650   4.103  17.478  0.00  0.00    +0.000 C 
ATOM      3 BR   UNL     1       2.955   3.493  17.066  0.00  0.00    +0.000 Br
ATOM      4  C   UNL     1       5.031   4.763  18.692  0.00  0.00    +0.000 C 
ATOM      5  C   UNL     1       4.327   5.389  19.641  0.00  0.00    +0.000 C 
ATOM      6 BR   UNL     1       2.507   5.713  19.754  0.00  0.00    +0.000 Br
ATOM      7  O   UNL     1       6.426   4.823  18.751  0.00  0.00    +0.000 OA
ATOM      8  C   UNL     1       6.854   4.419  17.517  0.00  0.00    +0.000 C 
ATOM      9  O   UNL     1       8.021   4.403  17.159  0.00  0.00    +0.000 OA
ENDROOT
BRANCH   1  10
ATOM     10  C   UNL     1       5.877   3.506  15.291  0.00  0.00    +0.000 C 
BRANCH  10  11
ATOM     11  C   UNL     1       6.176   4.698  14.372  0.00  0.00    +0.000 C 
BRANCH  11  13
ATOM     12  C   UNL     1       5.839   3.307  12.321  0.00  0.00    +0.000 C 
ATOM     13  C   UNL     1       6.772   4.277  13.029  0.00  0.00    +0.000 C 
ENDBRANCH  11  13
ENDBRANCH  10  11
ENDBRANCH   1  10
TORSDOF 3
ENDMDL
MODEL 8
REMARK VINA RESULT:      -5.5      1.828      1.960
REMARK  Name = 
REMARK  4 active torsions:
REMARK  status: ('A' for Active; 'I' for Inactive)
REMARK    1  A    between atoms: C_1  and  C_2
REMARK    2  A    between atoms: C_2  and  C_3
REMARK    3  A    between atoms: C_3  and  C_4
REMARK    4  A    between atoms: C_4  and  C_5
REMARK                            x       y       z     vdW  Elec       q    Type
REMARK                         _______ _______ _______ _____ _____    ______ ____
ROOT
ATOM      1  C   UNL     1       2.416   3.748  18.220  0.00  0.00    +0.000 C 
ATOM      2  C   UNL     1       3.146   4.795  17.835  0.00  0.00    +0.000 C 
ATOM      3 BR   UNL     1       2.691   6.566  18.104  0.00  0.00    +0.000 Br
ATOM      4  C   UNL     1       4.346   4.324  17.209  0.00  0.00    +0.000 C 
ATOM      5  C   UNL     1       5.239   4.914  16.406  0.00  0.00    +0.000 C 
ATOM      6 BR   UNL     1       5.265   6.629  15.711  0.00  0.00    +0.000 Br
ATOM      7  O   UNL     1       4.458   2.950  17.432  0.00  0.00    +0.000 OA
ATOM      8  C   UNL     1       3.261   2.576  17.976  0.00  0.00    +0.000 C 
ATOM      9  O   UNL     1       2.952   1.427  18.248  0.00  0.00    +0.000 OA
ENDROOT
BRANCH   1  10
ATOM     10  C   UNL     1       1.037   3.651  18.778  0.00  0.00    +0.000 C 
BRANCH  10  11
ATOM     11  C   UNL     1       1.044   4.030  20.265  0.00  0.00    +0.000 C 
BRANCH  11  13
ATOM     12  C   UNL     1       2.612   2.686  21.675  0.00  0.00    +0.000 C 
ATOM     13  C   UNL     1       1.178   2.818  21.186  0.00  0.00    +0.000 C 
ENDBRANCH  11  13
ENDBRANCH  10  11
ENDBRANCH   1  10
TORSDOF 3
ENDMDL
MODEL 9
REMARK VINA RESULT:      -5.4      3.070      5.290
REMARK  Name = 
REMARK  4 active torsions:
REMARK  status: ('A' for Active; 'I' for Inactive)
REMARK    1  A    between atoms: C_1  and  C_2
REMARK    2  A    between atoms: C_2  and  C_3
REMARK    3  A    between atoms: C_3  and  C_4
REMARK    4  A    between atoms: C_4  and  C_5
REMARK                            x       y       z     vdW  Elec       q    Type
REMARK                         _______ _______ _______ _____ _____    ______ ____
ROOT
ATOM      1  C   UNL     1       3.832   6.134  17.964  0.00  0.00    +0.000 C 
ATOM      2  C   UNL     1       3.663   5.233  18.933  0.00  0.00    +0.000 C 
ATOM      3 BR   UNL     1       4.687   3.712  19.163  0.00  0.00    +0.000 Br
ATOM      4  C   UNL     1       2.584   5.653  19.778  0.00  0.00    +0.000 C 
ATOM      5  C   UNL     1       1.829   5.003  20.672  0.00  0.00    +0.000 C 
ATOM      6 BR   UNL     1       1.841   3.219  21.167  0.00  0.00    +0.000 Br
ATOM      7  O   UNL     1       2.241   6.967  19.449  0.00  0.00    +0.000 OA
ATOM      8  C   UNL     1       2.936   7.242  18.304  0.00  0.00    +0.000 C 
ATOM      9  O   UNL     1       2.844   8.281  17.670  0.00  0.00    +0.000 OA
ENDROOT
BRANCH   1  10
ATOM     10  C   UNL     1       4.694   6.132  16.748  0.00  0.00    +0.000 C 
BRANCH  10  11
ATOM     11  C   UNL     1       6.007   6.874  17.035  0.00  0.00    +0.000 C 
BRANCH  11  13
ATOM     12  C   UNL     1       7.742   6.216  18.710  0.00  0.00    +0.000 C 
ATOM     13  C   UNL     1       7.170   5.929  17.330  0.00  0.00    +0.000 C 
ENDBRANCH  11  13
ENDBRANCH  10  11
ENDBRANCH   1  10
TORSDOF 3
ENDMDL
