MODEL 1
REMARK VINA RESULT:      -8.0      0.000      0.000
REMARK  Name = 
REMARK  6 active torsions:
REMARK  status: ('A' for Active; 'I' for Inactive)
REMARK    1  A    between atoms: C_1  and  S_2
REMARK    2  A    between atoms: S_2  and  C_3
REMARK    3  A    between atoms: C_7  and  N_8
REMARK    4  A    between atoms: C_9  and  C_11
REMARK    5  A    between atoms: C_11  and  N_12
REMARK    6  A    between atoms: C_15  and  C_16
REMARK                            x       y       z     vdW  Elec       q    Type
REMARK                         _______ _______ _______ _____ _____    ______ ____
ROOT
ATOM      1  C   UNL     1       7.857   6.938  18.261  0.00  0.00    +0.000 C 
ENDROOT
BRANCH   1   2
ATOM      2  N   UNL     1       7.046   6.402  17.127  0.00  0.00    +0.000 NA
ATOM      3  C   UNL     1       7.254   4.946  16.992  0.00  0.00    +0.000 C 
ATOM      4  C   UNL     1       6.213   4.229  16.132  0.00  0.00    +0.000 C 
ATOM      5  C   UNL     1       4.762   4.554  16.505  0.00  0.00    +0.000 C 
ATOM      6  C   UNL     1       4.593   6.075  16.541  0.00  0.00    +0.000 C 
ATOM      7  C   UNL     1       5.641   6.781  17.397  0.00  0.00    +0.000 C 
BRANCH   5   8
ATOM      8  C   UNL     1       4.240   3.833  17.743  0.00  0.00    +0.000 A 
ATOM      9  C   UNL     1       4.966   3.709  18.947  0.00  0.00    +0.000 A 
ATOM     10  C   UNL     1       4.443   3.033  20.048  0.00  0.00    +0.000 A 
ATOM     11  C   UNL     1       3.183   2.471  19.977  0.00  0.00    +0.000 A 
ATOM     12  C   UNL     1       2.461   2.599  18.796  0.00  0.00    +0.000 A 
ATOM     13  N   UNL     1       2.962   3.267  17.681  0.00  0.00    +0.000 N 
ATOM     14  O   UNL     1       2.232   3.343  16.640  0.00  0.00    +0.000 OA
ENDBRANCH   5   8
ENDBRANCH   1   2
BRANCH   1  16
ATOM     15  N   UNL     1       8.988   8.905  19.186  0.00  0.00    +0.000 N 
ATOM     16  C   UNL     1       8.169   8.432  18.180  0.00  0.00    +0.000 C 
ATOM     17  O   UNL     1       7.751   9.079  17.221  0.00  0.00    +0.000 OA
ATOM     18  H   UNL     1       9.329   8.204  19.838  0.00  0.00    +0.000 HD
BRANCH  15  23
ATOM     19  C   UNL     1      10.328  12.287  18.443  0.00  0.00    +0.000 A 
ATOM     20  C   UNL     1      10.213  12.912  19.686  0.00  0.00    +0.000 A 
ATOM     21  C   UNL     1       9.682  12.219  20.770  0.00  0.00    +0.000 A 
ATOM     22  C   UNL     1       9.266  10.897  20.618  0.00  0.00    +0.000 A 
ATOM     23  C   UNL     1       9.383  10.247  19.385  0.00  0.00    +0.000 A 
ATOM     24  C   UNL     1       9.934  10.944  18.304  0.00  0.00    +0.000 A 
BRANCH  19  26
ATOM     25  C   UNL     1      11.790  14.570  17.867  0.00  0.00    +0.000 C 
ATOM     26  S   UNL     1      11.026  13.145  17.039  0.00  0.00    +0.000 S 
ENDBRANCH  19  26
ENDBRANCH  15  23
ENDBRANCH   1  16
TORSDOF 5
ENDMDL
MODEL 2
REMARK VINA RESULT:      -7.7      4.413      7.064
REMARK  Name = 
REMARK  6 active torsions:
REMARK  status: ('A' for Active; 'I' for Inactive)
REMARK    1  A    between atoms: C_1  and  S_2
REMARK    2  A    between atoms: S_2  and  C_3
REMARK    3  A    between atoms: C_7  and  N_8
REMARK    4  A    between atoms: C_9  and  C_11
REMARK    5  A    between atoms: C_11  and  N_12
REMARK    6  A    between atoms: C_15  and  C_16
REMARK                            x       y       z     vdW  Elec       q    Type
REMARK                         _______ _______ _______ _____ _____    ______ ____
ROOT
ATOM      1  C   UNL     1       2.673   1.712  18.357  0.00  0.00    +0.000 C 
ENDROOT
BRANCH   1   2
ATOM      2  N   UNL     1       2.221   2.355  19.627  0.00  0.00    +0.000 NA
ATOM      3  C   UNL     1       3.308   3.171  20.204  0.00  0.00    +0.000 C 
ATOM      4  C   UNL     1       2.862   4.164  21.277  0.00  0.00    +0.000 C 
ATOM      5  C   UNL     1       1.668   5.033  20.868  0.00  0.00    +0.000 C 
ATOM      6  C   UNL     1       0.546   4.122  20.363  0.00  0.00    +0.000 C 
ATOM      7  C   UNL     1       1.004   3.131  19.297  0.00  0.00    +0.000 C 
BRANCH   5   8
ATOM      8  C   UNL     1       2.006   6.190  19.934  0.00  0.00    +0.000 A 
ATOM      9  C   UNL     1       2.743   6.049  18.740  0.00  0.00    +0.000 A 
ATOM     10  C   UNL     1       3.030   7.143  17.925  0.00  0.00    +0.000 A 
ATOM     11  C   UNL     1       2.585   8.402  18.279  0.00  0.00    +0.000 A 
ATOM     12  C   UNL     1       1.851   8.544  19.452  0.00  0.00    +0.000 A 
ATOM     13  N   UNL     1       1.553   7.468  20.284  0.00  0.00    +0.000 N 
ATOM     14  O   UNL     1       0.870   7.685  21.337  0.00  0.00    +0.000 OA
ENDBRANCH   5   8
ENDBRANCH   1   2
BRANCH   1  16
ATOM     15  N   UNL     1       4.626   2.831  17.386  0.00  0.00    +0.000 N 
ATOM     16  C   UNL     1       3.255   2.672  17.321  0.00  0.00    +0.000 C 
ATOM     17  O   UNL     1       2.508   3.167  16.477  0.00  0.00    +0.000 OA
ATOM     18  H   UNL     1       5.099   2.259  18.080  0.00  0.00    +0.000 HD
BRANCH  15  23
ATOM     19  C   UNL     1       6.723   5.745  16.442  0.00  0.00    +0.000 A 
ATOM     20  C   UNL     1       6.961   5.492  15.090  0.00  0.00    +0.000 A 
ATOM     21  C   UNL     1       6.436   4.350  14.490  0.00  0.00    +0.000 A 
ATOM     22  C   UNL     1       5.670   3.458  15.239  0.00  0.00    +0.000 A 
ATOM     23  C   UNL     1       5.408   3.698  16.592  0.00  0.00    +0.000 A 
ATOM     24  C   UNL     1       5.924   4.856  17.183  0.00  0.00    +0.000 A 
BRANCH  19  26
ATOM     25  C   UNL     1       7.979   6.510  18.792  0.00  0.00    +0.000 C 
ATOM     26  S   UNL     1       7.365   7.214  17.233  0.00  0.00    +0.000 S 
ENDBRANCH  19  26
ENDBRANCH  15  23
ENDBRANCH   1  16
TORSDOF 5
ENDMDL
MODEL 3
REMARK VINA RESULT:      -7.7      1.598      1.977
REMARK  Name = 
REMARK  6 active torsions:
REMARK  status: ('A' for Active; 'I' for Inactive)
REMARK    1  A    between atoms: C_1  and  S_2
REMARK    2  A    between atoms: S_2  and  C_3
REMARK    3  A    between atoms: C_7  and  N_8
REMARK    4  A    between atoms: C_9  and  C_11
REMARK    5  A    between atoms: C_11  and  N_12
REMARK    6  A    between atoms: C_15  and  C_16
REMARK                            x       y       z     vdW  Elec       q    Type
REMARK                         _______ _______ _______ _____ _____    ______ ____
ROOT
ATOM      1  C   UNL     1       7.866   6.829  18.456  0.00  0.00    +0.000 C 
ENDROOT
BRANCH   1   2
ATOM      2  N   UNL     1       7.124   6.153  17.351  0.00  0.00    +0.000 NA
ATOM      3  C   UNL     1       6.833   4.750  17.711  0.00  0.00    +0.000 C 
ATOM      4  C   UNL     1       5.770   4.074  16.846  0.00  0.00    +0.000 C 
ATOM      5  C   UNL     1       4.481   4.889  16.690  0.00  0.00    +0.000 C 
ATOM      6  C   UNL     1       4.845   6.303  16.230  0.00  0.00    +0.000 C 
ATOM      7  C   UNL     1       5.912   6.965  17.097  0.00  0.00    +0.000 C 
BRANCH   5   8
ATOM      8  C   UNL     1       3.541   4.840  17.889  0.00  0.00    +0.000 A 
ATOM      9  C   UNL     1       3.665   5.671  19.022  0.00  0.00    +0.000 A 
ATOM     10  C   UNL     1       2.780   5.580  20.095  0.00  0.00    +0.000 A 
ATOM     11  C   UNL     1       1.748   4.663  20.061  0.00  0.00    +0.000 A 
ATOM     12  C   UNL     1       1.616   3.847  18.943  0.00  0.00    +0.000 A 
ATOM     13  N   UNL     1       2.488   3.917  17.859  0.00  0.00    +0.000 N 
ATOM     14  O   UNL     1       2.293   3.137  16.871  0.00  0.00    +0.000 OA
ENDBRANCH   5   8
ENDBRANCH   1   2
BRANCH   1  16
ATOM     15  N   UNL     1       8.960   8.895  19.192  0.00  0.00    +0.000 N 
ATOM     16  C   UNL     1       8.213   8.294  18.197  0.00  0.00    +0.000 C 
ATOM     17  O   UNL     1       7.885   8.807  17.128  0.00  0.00    +0.000 OA
ATOM     18  H   UNL     1       9.235   8.288  19.958  0.00  0.00    +0.000 HD
BRANCH  15  23
ATOM     19  C   UNL     1       9.594  12.298  20.534  0.00  0.00    +0.000 A 
ATOM     20  C   UNL     1      10.122  12.945  19.414  0.00  0.00    +0.000 A 
ATOM     21  C   UNL     1      10.279  12.254  18.217  0.00  0.00    +0.000 A 
ATOM     22  C   UNL     1       9.907  10.913  18.131  0.00  0.00    +0.000 A 
ATOM     23  C   UNL     1       9.364  10.247  19.236  0.00  0.00    +0.000 A 
ATOM     24  C   UNL     1       9.193  10.954  20.430  0.00  0.00    +0.000 A 
BRANCH  19  26
ATOM     25  C   UNL     1      10.134  14.761  21.682  0.00  0.00    +0.000 C 
ATOM     26  S   UNL     1       9.359  13.167  22.078  0.00  0.00    +0.000 S 
ENDBRANCH  19  26
ENDBRANCH  15  23
ENDBRANCH   1  16
TORSDOF 5
ENDMDL
MODEL 4
REMARK VINA RESULT:      -7.6      1.242      1.719
REMARK  Name = 
REMARK  6 active torsions:
REMARK  status: ('A' for Active; 'I' for Inactive)
REMARK    1  A    between atoms: C_1  and  S_2
REMARK    2  A    between atoms: S_2  and  C_3
REMARK    3  A    between atoms: C_7  and  N_8
REMARK    4  A    between atoms: C_9  and  C_11
REMARK    5  A    between atoms: C_11  and  N_12
REMARK    6  A    between atoms: C_15  and  C_16
REMARK                            x       y       z     vdW  Elec       q    Type
REMARK                         _______ _______ _______ _____ _____    ______ ____
ROOT
ATOM      1  C   UNL     1       7.698   6.732  18.375  0.00  0.00    +0.000 C 
ENDROOT
BRANCH   1   2
ATOM      2  N   UNL     1       6.955   6.088  17.251  0.00  0.00    +0.000 NA
ATOM      3  C   UNL     1       7.151   4.625  17.279  0.00  0.00    +0.000 C 
ATOM      4  C   UNL     1       6.158   3.830  16.431  0.00  0.00    +0.000 C 
ATOM      5  C   UNL     1       4.691   4.201  16.674  0.00  0.00    +0.000 C 
ATOM      6  C   UNL     1       4.539   5.720  16.543  0.00  0.00    +0.000 C 
ATOM      7  C   UNL     1       5.540   6.502  17.389  0.00  0.00    +0.000 C 
BRANCH   5   8
ATOM      8  C   UNL     1       4.081   3.615  17.942  0.00  0.00    +0.000 A 
ATOM      9  C   UNL     1       4.803   3.394  19.133  0.00  0.00    +0.000 A 
ATOM     10  C   UNL     1       4.197   2.849  20.263  0.00  0.00    +0.000 A 
ATOM     11  C   UNL     1       2.856   2.517  20.235  0.00  0.00    +0.000 A 
ATOM     12  C   UNL     1       2.138   2.742  19.065  0.00  0.00    +0.000 A 
ATOM     13  N   UNL     1       2.721   3.283  17.922  0.00  0.00    +0.000 N 
ATOM     14  O   UNL     1       1.991   3.462  16.894  0.00  0.00    +0.000 OA
ENDBRANCH   5   8
ENDBRANCH   1   2
BRANCH   1  16
ATOM     15  N   UNL     1       8.915   8.733  19.099  0.00  0.00    +0.000 N 
ATOM     16  C   UNL     1       8.070   8.196  18.146  0.00  0.00    +0.000 C 
ATOM     17  O   UNL     1       7.673   8.763  17.128  0.00  0.00    +0.000 OA
ATOM     18  H   UNL     1       9.231   8.086  19.816  0.00  0.00    +0.000 HD
BRANCH  15  23
ATOM     19  C   UNL     1       9.608  12.113  20.471  0.00  0.00    +0.000 A 
ATOM     20  C   UNL     1      10.210  12.739  19.377  0.00  0.00    +0.000 A 
ATOM     21  C   UNL     1      10.397  12.041  18.188  0.00  0.00    +0.000 A 
ATOM     22  C   UNL     1       9.981  10.715  18.084  0.00  0.00    +0.000 A 
ATOM     23  C   UNL     1       9.365  10.070  19.162  0.00  0.00    +0.000 A 
ATOM     24  C   UNL     1       9.164  10.783  20.348  0.00  0.00    +0.000 A 
BRANCH  19  26
ATOM     25  C   UNL     1       8.979  14.656  21.372  0.00  0.00    +0.000 C 
ATOM     26  S   UNL     1       9.335  12.990  22.003  0.00  0.00    +0.000 S 
ENDBRANCH  19  26
ENDBRANCH  15  23
ENDBRANCH   1  16
TORSDOF 5
ENDMDL
MODEL 5
REMARK VINA RESULT:      -7.6      5.106      7.387
REMARK  Name = 
REMARK  6 active torsions:
REMARK  status: ('A' for Active; 'I' for Inactive)
REMARK    1  A    between atoms: C_1  and  S_2
REMARK    2  A    between atoms: S_2  and  C_3
REMARK    3  A    between atoms: C_7  and  N_8
REMARK    4  A    between atoms: C_9  and  C_11
REMARK    5  A    between atoms: C_11  and  N_12
REMARK    6  A    between atoms: C_15  and  C_16
REMARK                            x       y       z     vdW  Elec       q    Type
REMARK                         _______ _______ _______ _____ _____    ______ ____
ROOT
ATOM      1  C   UNL     1       3.937   5.000  19.037  0.00  0.00    +0.000 C 
ENDROOT
BRANCH   1   2
ATOM      2  N   UNL     1       5.290   5.506  18.656  0.00  0.00    +0.000 NA
ATOM      3  C   UNL     1       6.181   4.380  18.313  0.00  0.00    +0.000 C 
ATOM      4  C   UNL     1       7.448   4.774  17.555  0.00  0.00    +0.000 C 
ATOM      5  C   UNL     1       7.196   5.676  16.341  0.00  0.00    +0.000 C 
ATOM      6  C   UNL     1       6.343   6.868  16.783  0.00  0.00    +0.000 C 
ATOM      7  C   UNL     1       5.084   6.462  17.544  0.00  0.00    +0.000 C 
BRANCH   5   8
ATOM      8  C   UNL     1       6.677   4.955  15.103  0.00  0.00    +0.000 A 
ATOM      9  C   UNL     1       5.505   4.169  15.082  0.00  0.00    +0.000 A 
ATOM     10  C   UNL     1       5.078   3.526  13.922  0.00  0.00    +0.000 A 
ATOM     11  C   UNL     1       5.805   3.655  12.754  0.00  0.00    +0.000 A 
ATOM     12  C   UNL     1       6.956   4.435  12.768  0.00  0.00    +0.000 A 
ATOM     13  N   UNL     1       7.405   5.087  13.914  0.00  0.00    +0.000 N 
ATOM     14  O   UNL     1       8.466   5.786  13.840  0.00  0.00    +0.000 OA
ENDBRANCH   5   8
ENDBRANCH   1   2
BRANCH   1  16
ATOM     15  N   UNL     1       2.820   7.051  19.779  0.00  0.00    +0.000 N 
ATOM     16  C   UNL     1       2.802   6.009  18.873  0.00  0.00    +0.000 C 
ATOM     17  O   UNL     1       2.017   5.879  17.934  0.00  0.00    +0.000 OA
ATOM     18  H   UNL     1       3.608   7.058  20.421  0.00  0.00    +0.000 HD
BRANCH  15  23
ATOM     19  C   UNL     1       0.285   9.301  21.294  0.00  0.00    +0.000 A 
ATOM     20  C   UNL     1      -0.069  10.097  20.203  0.00  0.00    +0.000 A 
ATOM     21  C   UNL     1       0.538   9.898  18.966  0.00  0.00    +0.000 A 
ATOM     22  C   UNL     1       1.500   8.900  18.814  0.00  0.00    +0.000 A 
ATOM     23  C   UNL     1       1.862   8.082  19.890  0.00  0.00    +0.000 A 
ATOM     24  C   UNL     1       1.235   8.277  21.125  0.00  0.00    +0.000 A 
BRANCH  19  26
ATOM     25  C   UNL     1      -0.936  11.279  22.803  0.00  0.00    +0.000 C 
ATOM     26  S   UNL     1      -0.493   9.519  22.888  0.00  0.00    +0.000 S 
ENDBRANCH  19  26
ENDBRANCH  15  23
ENDBRANCH   1  16
TORSDOF 5
ENDMDL
MODEL 6
REMARK VINA RESULT:      -7.5      5.561      7.642
REMARK  Name = 
REMARK  6 active torsions:
REMARK  status: ('A' for Active; 'I' for Inactive)
REMARK    1  A    between atoms: C_1  and  S_2
REMARK    2  A    between atoms: S_2  and  C_3
REMARK    3  A    between atoms: C_7  and  N_8
REMARK    4  A    between atoms: C_9  and  C_11
REMARK    5  A    between atoms: C_11  and  N_12
REMARK    6  A    between atoms: C_15  and  C_16
REMARK                            x       y       z     vdW  Elec       q    Type
REMARK                         _______ _______ _______ _____ _____    ______ ____
ROOT
ATOM      1  C   UNL     1       2.723   1.836  18.298  0.00  0.00    +0.000 C 
ENDROOT
BRANCH   1   2
ATOM      2  N   UNL     1       2.341   2.493  19.584  0.00  0.00    +0.000 NA
ATOM      3  C   UNL     1       3.448   3.335  20.078  0.00  0.00    +0.000 C 
ATOM      4  C   UNL     1       3.055   4.339  21.162  0.00  0.00    +0.000 C 
ATOM      5  C   UNL     1       1.824   5.183  20.814  0.00  0.00    +0.000 C 
ATOM      6  C   UNL     1       0.687   4.247  20.395  0.00  0.00    +0.000 C 
ATOM      7  C   UNL     1       1.094   3.246  19.318  0.00  0.00    +0.000 C 
BRANCH   5   8
ATOM      8  C   UNL     1       2.085   6.329  19.843  0.00  0.00    +0.000 A 
ATOM      9  C   UNL     1       2.769   6.183  18.618  0.00  0.00    +0.000 A 
ATOM     10  C   UNL     1       2.986   7.267  17.770  0.00  0.00    +0.000 A 
ATOM     11  C   UNL     1       2.522   8.521  18.120  0.00  0.00    +0.000 A 
ATOM     12  C   UNL     1       1.840   8.668  19.322  0.00  0.00    +0.000 A 
ATOM     13  N   UNL     1       1.612   7.601  20.188  0.00  0.00    +0.000 N 
ATOM     14  O   UNL     1       0.973   7.821  21.268  0.00  0.00    +0.000 OA
ENDBRANCH   5   8
ENDBRANCH   1   2
BRANCH   1  16
ATOM     15  N   UNL     1       4.668   2.852  17.206  0.00  0.00    +0.000 N 
ATOM     16  C   UNL     1       3.288   2.778  17.236  0.00  0.00    +0.000 C 
ATOM     17  O   UNL     1       2.516   3.331  16.454  0.00  0.00    +0.000 OA
ATOM     18  H   UNL     1       5.152   2.241  17.858  0.00  0.00    +0.000 HD
BRANCH  15  23
ATOM     19  C   UNL     1       6.350   4.122  14.150  0.00  0.00    +0.000 A 
ATOM     20  C   UNL     1       6.985   5.267  14.637  0.00  0.00    +0.000 A 
ATOM     21  C   UNL     1       6.848   5.627  15.975  0.00  0.00    +0.000 A 
ATOM     22  C   UNL     1       6.079   4.843  16.833  0.00  0.00    +0.000 A 
ATOM     23  C   UNL     1       5.444   3.685  16.371  0.00  0.00    +0.000 A 
ATOM     24  C   UNL     1       5.601   3.320  15.030  0.00  0.00    +0.000 A 
BRANCH  19  26
ATOM     25  C   UNL     1       4.788   3.328  12.004  0.00  0.00    +0.000 C 
ATOM     26  S   UNL     1       6.526   3.623  12.444  0.00  0.00    +0.000 S 
ENDBRANCH  19  26
ENDBRANCH  15  23
ENDBRANCH   1  16
TORSDOF 5
ENDMDL
MODEL 7
REMARK VINA RESULT:      -7.5      7.964     10.342
REMARK  Name = 
REMARK  6 active torsions:
REMARK  status: ('A' for Active; 'I' for Inactive)
REMARK    1  A    between atoms: C_1  and  S_2
REMARK    2  A    between atoms: S_2  and  C_3
REMARK    3  A    between atoms: C_7  and  N_8
REMARK    4  A    between atoms: C_9  and  C_11
REMARK    5  A    between atoms: C_11  and  N_12
REMARK    6  A    between atoms: C_15  and  C_16
REMARK                            x       y       z     vdW  Elec       q    Type
REMARK                         _______ _______ _______ _____ _____    ______ ____
ROOT
ATOM      1  C   UNL     1       0.351   9.433  22.882  0.00  0.00    +0.000 C 
ENDROOT
BRANCH   1   2
ATOM      2  N   UNL     1       0.155  10.849  22.448  0.00  0.00    +0.000 NA
ATOM      3  C   UNL     1       0.785  11.073  21.131  0.00  0.00    +0.000 C 
ATOM      4  C   UNL     1       0.337  12.348  20.417  0.00  0.00    +0.000 C 
ATOM      5  C   UNL     1      -1.184  12.524  20.345  0.00  0.00    +0.000 C 
ATOM      6  C   UNL     1      -1.764  12.368  21.754  0.00  0.00    +0.000 C 
ATOM      7  C   UNL     1      -1.305  11.095  22.460  0.00  0.00    +0.000 C 
BRANCH   5   8
ATOM      8  C   UNL     1      -1.879  11.682  19.282  0.00  0.00    +0.000 A 
ATOM      9  C   UNL     1      -1.225  10.707  18.499  0.00  0.00    +0.000 A 
ATOM     10  C   UNL     1      -1.908   9.968  17.535  0.00  0.00    +0.000 A 
ATOM     11  C   UNL     1      -3.259  10.179  17.333  0.00  0.00    +0.000 A 
ATOM     12  C   UNL     1      -3.908  11.132  18.109  0.00  0.00    +0.000 A 
ATOM     13  N   UNL     1      -3.248  11.885  19.077  0.00  0.00    +0.000 N 
ATOM     14  O   UNL     1      -3.919  12.735  19.748  0.00  0.00    +0.000 OA
ENDBRANCH   5   8
ENDBRANCH   1   2
BRANCH   1  16
ATOM     15  N   UNL     1       1.630   8.034  21.329  0.00  0.00    +0.000 N 
ATOM     16  C   UNL     1       0.369   8.409  21.750  0.00  0.00    +0.000 C 
ATOM     17  O   UNL     1      -0.697   7.941  21.349  0.00  0.00    +0.000 OA
ATOM     18  H   UNL     1       2.402   8.444  21.847  0.00  0.00    +0.000 HD
BRANCH  15  23
ATOM     19  C   UNL     1       2.202   4.859  19.491  0.00  0.00    +0.000 A 
ATOM     20  C   UNL     1       2.540   5.330  18.221  0.00  0.00    +0.000 A 
ATOM     21  C   UNL     1       2.568   6.698  17.967  0.00  0.00    +0.000 A 
ATOM     22  C   UNL     1       2.262   7.603  18.982  0.00  0.00    +0.000 A 
ATOM     23  C   UNL     1       1.933   7.156  20.266  0.00  0.00    +0.000 A 
ATOM     24  C   UNL     1       1.924   5.780  20.519  0.00  0.00    +0.000 A 
BRANCH  19  26
ATOM     25  C   UNL     1       1.717   3.140  21.610  0.00  0.00    +0.000 C 
ATOM     26  S   UNL     1       2.179   3.110  19.853  0.00  0.00    +0.000 S 
ENDBRANCH  19  26
ENDBRANCH  15  23
ENDBRANCH   1  16
TORSDOF 5
ENDMDL
MODEL 8
REMARK VINA RESULT:      -7.4      7.661      9.715
REMARK  Name = 
REMARK  6 active torsions:
REMARK  status: ('A' for Active; 'I' for Inactive)
REMARK    1  A    between atoms: C_1  and  S_2
REMARK    2  A    between atoms: S_2  and  C_3
REMARK    3  A    between atoms: C_7  and  N_8
REMARK    4  A    between atoms: C_9  and  C_11
REMARK    5  A    between atoms: C_11  and  N_12
REMARK    6  A    between atoms: C_15  and  C_16
REMARK                            x       y       z     vdW  Elec       q    Type
REMARK                         _______ _______ _______ _____ _____    ______ ____
ROOT
ATOM      1  C   UNL     1       1.463   9.460  19.332  0.00  0.00    +0.000 C 
ENDROOT
BRANCH   1   2
ATOM      2  N   UNL     1       0.630  10.531  18.707  0.00  0.00    +0.000 NA
ATOM      3  C   UNL     1      -0.795  10.146  18.724  0.00  0.00    +0.000 C 
ATOM      4  C   UNL     1      -1.771  11.294  18.466  0.00  0.00    +0.000 C 
ATOM      5  C   UNL     1      -1.518  12.535  19.329  0.00  0.00    +0.000 C 
ATOM      6  C   UNL     1      -0.046  12.933  19.198  0.00  0.00    +0.000 C 
ATOM      7  C   UNL     1       0.919  11.778  19.451  0.00  0.00    +0.000 C 
BRANCH   5   8
ATOM      8  C   UNL     1      -2.016  12.431  20.766  0.00  0.00    +0.000 A 
ATOM      9  C   UNL     1      -1.206  12.043  21.854  0.00  0.00    +0.000 A 
ATOM     10  C   UNL     1      -1.715  11.958  23.148  0.00  0.00    +0.000 A 
ATOM     11  C   UNL     1      -3.040  12.263  23.390  0.00  0.00    +0.000 A 
ATOM     12  C   UNL     1      -3.840  12.654  22.322  0.00  0.00    +0.000 A 
ATOM     13  N   UNL     1      -3.357  12.745  21.019  0.00  0.00    +0.000 N 
ATOM     14  O   UNL     1      -4.155  13.116  20.099  0.00  0.00    +0.000 OA
ENDBRANCH   5   8
ENDBRANCH   1   2
BRANCH   1  16
ATOM     15  N   UNL     1       2.327   7.213  18.875  0.00  0.00    +0.000 N 
ATOM     16  C   UNL     1       2.078   8.465  18.349  0.00  0.00    +0.000 C 
ATOM     17  O   UNL     1       2.235   8.803  17.176  0.00  0.00    +0.000 OA
ATOM     18  H   UNL     1       2.033   7.077  19.838  0.00  0.00    +0.000 HD
BRANCH  15  23
ATOM     19  C   UNL     1       4.906   5.250  17.064  0.00  0.00    +0.000 A 
ATOM     20  C   UNL     1       4.239   4.041  16.853  0.00  0.00    +0.000 A 
ATOM     21  C   UNL     1       2.939   3.870  17.319  0.00  0.00    +0.000 A 
ATOM     22  C   UNL     1       2.298   4.906  17.996  0.00  0.00    +0.000 A 
ATOM     23  C   UNL     1       2.941   6.130  18.208  0.00  0.00    +0.000 A 
ATOM     24  C   UNL     1       4.241   6.301  17.721  0.00  0.00    +0.000 A 
BRANCH  19  26
ATOM     25  C   UNL     1       7.530   4.730  17.788  0.00  0.00    +0.000 C 
ATOM     26  S   UNL     1       6.567   5.507  16.457  0.00  0.00    +0.000 S 
ENDBRANCH  19  26
ENDBRANCH  15  23
ENDBRANCH   1  16
TORSDOF 5
ENDMDL
MODEL 9
REMARK VINA RESULT:      -7.4      8.093     10.305
REMARK  Name = 
REMARK  6 active torsions:
REMARK  status: ('A' for Active; 'I' for Inactive)
REMARK    1  A    between atoms: C_1  and  S_2
REMARK    2  A    between atoms: S_2  and  C_3
REMARK    3  A    between atoms: C_7  and  N_8
REMARK    4  A    between atoms: C_9  and  C_11
REMARK    5  A    between atoms: C_11  and  N_12
REMARK    6  A    between atoms: C_15  and  C_16
REMARK                            x       y       z     vdW  Elec       q    Type
REMARK                         _______ _______ _______ _____ _____    ______ ____
ROOT
ATOM      1  C   UNL     1       1.222   9.523  19.368  0.00  0.00    +0.000 C 
ENDROOT
BRANCH   1   2
ATOM      2  N   UNL     1       0.377  10.588  18.750  0.00  0.00    +0.000 NA
ATOM      3  C   UNL     1      -1.047  10.200  18.789  0.00  0.00    +0.000 C 
ATOM      4  C   UNL     1      -2.030  11.344  18.539  0.00  0.00    +0.000 C 
ATOM      5  C   UNL     1      -1.768  12.590  19.392  0.00  0.00    +0.000 C 
ATOM      6  C   UNL     1      -0.299  12.992  19.238  0.00  0.00    +0.000 C 
ATOM      7  C   UNL     1       0.672  11.840  19.483  0.00  0.00    +0.000 C 
BRANCH   5   8
ATOM      8  C   UNL     1      -2.245  12.492  20.836  0.00  0.00    +0.000 A 
ATOM      9  C   UNL     1      -1.437  12.049  21.904  0.00  0.00    +0.000 A 
ATOM     10  C   UNL     1      -1.926  11.973  23.207  0.00  0.00    +0.000 A 
ATOM     11  C   UNL     1      -3.230  12.342  23.476  0.00  0.00    +0.000 A 
ATOM     12  C   UNL     1      -4.028  12.786  22.428  0.00  0.00    +0.000 A 
ATOM     13  N   UNL     1      -3.564  12.870  21.118  0.00  0.00    +0.000 N 
ATOM     14  O   UNL     1      -4.358  13.293  20.217  0.00  0.00    +0.000 OA
ENDBRANCH   5   8
ENDBRANCH   1   2
BRANCH   1  16
ATOM     15  N   UNL     1       2.283   7.376  18.849  0.00  0.00    +0.000 N 
ATOM     16  C   UNL     1       1.968   8.635  18.375  0.00  0.00    +0.000 C 
ATOM     17  O   UNL     1       2.168   9.049  17.233  0.00  0.00    +0.000 OA
ATOM     18  H   UNL     1       1.944   7.165  19.783  0.00  0.00    +0.000 HD
BRANCH  15  23
ATOM     19  C   UNL     1       3.269   4.029  17.582  0.00  0.00    +0.000 A 
ATOM     20  C   UNL     1       4.423   4.334  16.857  0.00  0.00    +0.000 A 
ATOM     21  C   UNL     1       4.870   5.649  16.777  0.00  0.00    +0.000 A 
ATOM     22  C   UNL     1       4.169   6.666  17.423  0.00  0.00    +0.000 A 
ATOM     23  C   UNL     1       3.017   6.382  18.166  0.00  0.00    +0.000 A 
ATOM     24  C   UNL     1       2.584   5.056  18.257  0.00  0.00    +0.000 A 
BRANCH  19  26
ATOM     25  C   UNL     1       1.145   2.606  18.652  0.00  0.00    +0.000 C 
ATOM     26  S   UNL     1       2.684   2.346  17.722  0.00  0.00    +0.000 S 
ENDBRANCH  19  26
ENDBRANCH  15  23
ENDBRANCH   1  16
TORSDOF 5
ENDMDL
