MODEL 1
REMARK VINA RESULT:      -7.5      0.000      0.000
REMARK  Name = 
REMARK  6 active torsions:
REMARK  status: ('A' for Active; 'I' for Inactive)
REMARK    1  A    between atoms: C_1  and  C_2
REMARK    2  A    between atoms: C_5  and  N_6
REMARK    3  A    between atoms: N_6  and  C_7
REMARK    4  A    between atoms: C_8  and  O_10
REMARK    5  A    between atoms: O_10  and  C_11
REMARK    6  A    between atoms: C_18  and  C_19
REMARK                            x       y       z     vdW  Elec       q    Type
REMARK                         _______ _______ _______ _____ _____    ______ ____
ROOT
ATOM      1  O   UNL     1       2.763   6.818  19.430  0.00  0.00    +0.000 OA
ENDROOT
BRANCH   1   2
ATOM      2  C   UNL     1       2.842   5.707  18.558  0.00  0.00    +0.000 A 
ATOM      3  C   UNL     1       1.711   4.886  18.506  0.00  0.00    +0.000 A 
ATOM      4  C   UNL     1       1.748   3.725  17.742  0.00  0.00    +0.000 A 
ATOM      5  C   UNL     1       2.907   3.400  17.035  0.00  0.00    +0.000 A 
ATOM      6  C   UNL     1       4.046   4.226  17.103  0.00  0.00    +0.000 A 
ATOM      7  C   UNL     1       5.221   3.925  16.396  0.00  0.00    +0.000 A 
ATOM      8  C   UNL     1       6.325   4.771  16.483  0.00  0.00    +0.000 A 
ATOM      9  C   UNL     1       6.243   5.879  17.306  0.00  0.00    +0.000 A 
ATOM     10  C   UNL     1       7.355   6.872  17.424  0.00  0.00    +0.000 C 
ATOM     11  N   UNL     1       5.134   6.156  18.026  0.00  0.00    +0.000 NA
ATOM     12  C   UNL     1       4.035   5.385  17.896  0.00  0.00    +0.000 A 
ENDBRANCH   1   2
BRANCH   1  15
ATOM     13  N   UNL     1       1.394   8.662  19.825  0.00  0.00    +0.000 N 
ATOM     14  C   UNL     1       1.268   8.048  21.141  0.00  0.00    +0.000 C 
ATOM     15  C   UNL     1       2.217   7.996  18.890  0.00  0.00    +0.000 C 
ATOM     16  O   UNL     1       2.463   8.335  17.736  0.00  0.00    +0.000 OA
BRANCH  13  21
ATOM     17  C   UNL     1      -0.750  13.938  18.759  0.00  0.00    +0.000 C 
ATOM     18  C   UNL     1      -0.207  12.575  19.064  0.00  0.00    +0.000 A 
ATOM     19  C   UNL     1       0.834  12.395  19.973  0.00  0.00    +0.000 A 
ATOM     20  C   UNL     1       1.348  11.114  20.235  0.00  0.00    +0.000 A 
ATOM     21  C   UNL     1       0.845   9.973  19.597  0.00  0.00    +0.000 A 
ATOM     22  C   UNL     1      -0.223  10.173  18.703  0.00  0.00    +0.000 A 
ATOM     23  C   UNL     1      -0.739  11.450  18.435  0.00  0.00    +0.000 A 
ENDBRANCH  13  21
ENDBRANCH   1  15
TORSDOF 3
ENDMDL
MODEL 2
REMARK VINA RESULT:      -7.4      0.195      1.010
REMARK  Name = 
REMARK  6 active torsions:
REMARK  status: ('A' for Active; 'I' for Inactive)
REMARK    1  A    between atoms: C_1  and  C_2
REMARK    2  A    between atoms: C_5  and  N_6
REMARK    3  A    between atoms: N_6  and  C_7
REMARK    4  A    between atoms: C_8  and  O_10
REMARK    5  A    between atoms: O_10  and  C_11
REMARK    6  A    between atoms: C_18  and  C_19
REMARK                            x       y       z     vdW  Elec       q    Type
REMARK                         _______ _______ _______ _____ _____    ______ ____
ROOT
ATOM      1  O   UNL     1       2.810   6.793  19.470  0.00  0.00    +0.000 OA
ENDROOT
BRANCH   1   2
ATOM      2  C   UNL     1       2.877   5.690  18.588  0.00  0.00    +0.000 A 
ATOM      3  C   UNL     1       1.744   4.872  18.542  0.00  0.00    +0.000 A 
ATOM      4  C   UNL     1       1.770   3.718  17.767  0.00  0.00    +0.000 A 
ATOM      5  C   UNL     1       2.920   3.396  17.044  0.00  0.00    +0.000 A 
ATOM      6  C   UNL     1       4.062   4.219  17.106  0.00  0.00    +0.000 A 
ATOM      7  C   UNL     1       5.228   3.922  16.384  0.00  0.00    +0.000 A 
ATOM      8  C   UNL     1       6.334   4.765  16.466  0.00  0.00    +0.000 A 
ATOM      9  C   UNL     1       6.264   5.866  17.299  0.00  0.00    +0.000 A 
ATOM     10  C   UNL     1       7.379   6.856  17.413  0.00  0.00    +0.000 C 
ATOM     11  N   UNL     1       5.163   6.139  18.034  0.00  0.00    +0.000 NA
ATOM     12  C   UNL     1       4.062   5.372  17.909  0.00  0.00    +0.000 A 
ENDBRANCH   1   2
BRANCH   1  15
ATOM     13  N   UNL     1       1.380   8.585  19.887  0.00  0.00    +0.000 N 
ATOM     14  C   UNL     1       1.241   7.928  21.181  0.00  0.00    +0.000 C 
ATOM     15  C   UNL     1       2.243   7.972  18.953  0.00  0.00    +0.000 C 
ATOM     16  O   UNL     1       2.505   8.352  17.816  0.00  0.00    +0.000 OA
BRANCH  13  21
ATOM     17  C   UNL     1      -1.042  13.805  19.212  0.00  0.00    +0.000 C 
ATOM     18  C   UNL     1      -0.401  12.459  19.359  0.00  0.00    +0.000 A 
ATOM     19  C   UNL     1      -0.758  11.392  18.535  0.00  0.00    +0.000 A 
ATOM     20  C   UNL     1      -0.165  10.128  18.697  0.00  0.00    +0.000 A 
ATOM     21  C   UNL     1       0.798   9.887  19.685  0.00  0.00    +0.000 A 
ATOM     22  C   UNL     1       1.163  10.983  20.488  0.00  0.00    +0.000 A 
ATOM     23  C   UNL     1       0.572  12.246  20.334  0.00  0.00    +0.000 A 
ENDBRANCH  13  21
ENDBRANCH   1  15
TORSDOF 3
ENDMDL
MODEL 3
REMARK VINA RESULT:      -7.3      1.586      2.216
REMARK  Name = 
REMARK  6 active torsions:
REMARK  status: ('A' for Active; 'I' for Inactive)
REMARK    1  A    between atoms: C_1  and  C_2
REMARK    2  A    between atoms: C_5  and  N_6
REMARK    3  A    between atoms: N_6  and  C_7
REMARK    4  A    between atoms: C_8  and  O_10
REMARK    5  A    between atoms: O_10  and  C_11
REMARK    6  A    between atoms: C_18  and  C_19
REMARK                            x       y       z     vdW  Elec       q    Type
REMARK                         _______ _______ _______ _____ _____    ______ ____
ROOT
ATOM      1  O   UNL     1       2.763   7.244  17.824  0.00  0.00    +0.000 OA
ENDROOT
BRANCH   1   2
ATOM      2  C   UNL     1       3.327   5.951  17.743  0.00  0.00    +0.000 A 
ATOM      3  C   UNL     1       2.427   4.883  17.805  0.00  0.00    +0.000 A 
ATOM      4  C   UNL     1       2.915   3.581  17.824  0.00  0.00    +0.000 A 
ATOM      5  C   UNL     1       4.293   3.359  17.775  0.00  0.00    +0.000 A 
ATOM      6  C   UNL     1       5.194   4.440  17.727  0.00  0.00    +0.000 A 
ATOM      7  C   UNL     1       6.582   4.244  17.671  0.00  0.00    +0.000 A 
ATOM      8  C   UNL     1       7.442   5.340  17.616  0.00  0.00    +0.000 A 
ATOM      9  C   UNL     1       6.894   6.609  17.658  0.00  0.00    +0.000 A 
ATOM     10  C   UNL     1       7.731   7.844  17.553  0.00  0.00    +0.000 C 
ATOM     11  N   UNL     1       5.562   6.812  17.757  0.00  0.00    +0.000 NA
ATOM     12  C   UNL     1       4.717   5.762  17.739  0.00  0.00    +0.000 A 
ENDBRANCH   1   2
BRANCH   1  15
ATOM     13  N   UNL     1       1.652   8.905  19.024  0.00  0.00    +0.000 N 
ATOM     14  C   UNL     1       1.787   9.637  17.770  0.00  0.00    +0.000 C 
ATOM     15  C   UNL     1       2.177   7.594  19.054  0.00  0.00    +0.000 C 
ATOM     16  O   UNL     1       2.170   6.807  19.996  0.00  0.00    +0.000 OA
BRANCH  13  21
ATOM     17  C   UNL     1      -1.484  11.262  23.288  0.00  0.00    +0.000 C 
ATOM     18  C   UNL     1      -0.688  10.625  22.188  0.00  0.00    +0.000 A 
ATOM     19  C   UNL     1       0.234   9.614  22.453  0.00  0.00    +0.000 A 
ATOM     20  C   UNL     1       0.990   9.040  21.416  0.00  0.00    +0.000 A 
ATOM     21  C   UNL     1       0.852   9.456  20.086  0.00  0.00    +0.000 A 
ATOM     22  C   UNL     1      -0.103  10.459  19.837  0.00  0.00    +0.000 A 
ATOM     23  C   UNL     1      -0.858  11.039  20.868  0.00  0.00    +0.000 A 
ENDBRANCH  13  21
ENDBRANCH   1  15
TORSDOF 3
ENDMDL
MODEL 4
REMARK VINA RESULT:      -7.1      1.516      2.338
REMARK  Name = 
REMARK  6 active torsions:
REMARK  status: ('A' for Active; 'I' for Inactive)
REMARK    1  A    between atoms: C_1  and  C_2
REMARK    2  A    between atoms: C_5  and  N_6
REMARK    3  A    between atoms: N_6  and  C_7
REMARK    4  A    between atoms: C_8  and  O_10
REMARK    5  A    between atoms: O_10  and  C_11
REMARK    6  A    between atoms: C_18  and  C_19
REMARK                            x       y       z     vdW  Elec       q    Type
REMARK                         _______ _______ _______ _____ _____    ______ ____
ROOT
ATOM      1  O   UNL     1       2.698   7.310  19.794  0.00  0.00    +0.000 OA
ENDROOT
BRANCH   1   2
ATOM      2  C   UNL     1       2.356   5.952  19.604  0.00  0.00    +0.000 A 
ATOM      3  C   UNL     1       1.446   5.414  20.521  0.00  0.00    +0.000 A 
ATOM      4  C   UNL     1       1.132   4.061  20.453  0.00  0.00    +0.000 A 
ATOM      5  C   UNL     1       1.721   3.263  19.471  0.00  0.00    +0.000 A 
ATOM      6  C   UNL     1       2.645   3.809  18.560  0.00  0.00    +0.000 A 
ATOM      7  C   UNL     1       3.247   3.030  17.560  0.00  0.00    +0.000 A 
ATOM      8  C   UNL     1       4.152   3.608  16.672  0.00  0.00    +0.000 A 
ATOM      9  C   UNL     1       4.465   4.946  16.829  0.00  0.00    +0.000 A 
ATOM     10  C   UNL     1       5.384   5.667  15.894  0.00  0.00    +0.000 C 
ATOM     11  N   UNL     1       3.927   5.697  17.815  0.00  0.00    +0.000 NA
ATOM     12  C   UNL     1       2.997   5.167  18.635  0.00  0.00    +0.000 A 
ENDBRANCH   1   2
BRANCH   1  15
ATOM     13  N   UNL     1       1.347   9.122  19.230  0.00  0.00    +0.000 N 
ATOM     14  C   UNL     1       2.106   9.060  17.987  0.00  0.00    +0.000 C 
ATOM     15  C   UNL     1       1.662   8.162  20.216  0.00  0.00    +0.000 C 
ATOM     16  O   UNL     1       1.150   8.032  21.324  0.00  0.00    +0.000 OA
BRANCH  13  21
ATOM     17  C   UNL     1      -3.255  12.605  19.752  0.00  0.00    +0.000 C 
ATOM     18  C   UNL     1      -2.055  11.721  19.592  0.00  0.00    +0.000 A 
ATOM     19  C   UNL     1      -1.941  10.842  18.515  0.00  0.00    +0.000 A 
ATOM     20  C   UNL     1      -0.821  10.003  18.387  0.00  0.00    +0.000 A 
ATOM     21  C   UNL     1       0.216  10.010  19.328  0.00  0.00    +0.000 A 
ATOM     22  C   UNL     1       0.094  10.922  20.393  0.00  0.00    +0.000 A 
ATOM     23  C   UNL     1      -1.023  11.760  20.528  0.00  0.00    +0.000 A 
ENDBRANCH  13  21
ENDBRANCH   1  15
TORSDOF 3
ENDMDL
MODEL 5
REMARK VINA RESULT:      -7.1      1.539      7.600
REMARK  Name = 
REMARK  6 active torsions:
REMARK  status: ('A' for Active; 'I' for Inactive)
REMARK    1  A    between atoms: C_1  and  C_2
REMARK    2  A    between atoms: C_5  and  N_6
REMARK    3  A    between atoms: N_6  and  C_7
REMARK    4  A    between atoms: C_8  and  O_10
REMARK    5  A    between atoms: O_10  and  C_11
REMARK    6  A    between atoms: C_18  and  C_19
REMARK                            x       y       z     vdW  Elec       q    Type
REMARK                         _______ _______ _______ _____ _____    ______ ____
ROOT
ATOM      1  O   UNL     1       1.044   9.305  19.377  0.00  0.00    +0.000 OA
ENDROOT
BRANCH   1   2
ATOM      2  C   UNL     1       0.134  10.278  18.902  0.00  0.00    +0.000 A 
ATOM      3  C   UNL     1      -0.964   9.793  18.185  0.00  0.00    +0.000 A 
ATOM      4  C   UNL     1      -1.852  10.695  17.609  0.00  0.00    +0.000 A 
ATOM      5  C   UNL     1      -1.639  12.067  17.759  0.00  0.00    +0.000 A 
ATOM      6  C   UNL     1      -0.522  12.547  18.472  0.00  0.00    +0.000 A 
ATOM      7  C   UNL     1      -0.289  13.920  18.643  0.00  0.00    +0.000 A 
ATOM      8  C   UNL     1       0.823  14.356  19.361  0.00  0.00    +0.000 A 
ATOM      9  C   UNL     1       1.698  13.408  19.860  0.00  0.00    +0.000 A 
ATOM     10  C   UNL     1       2.889  13.776  20.687  0.00  0.00    +0.000 C 
ATOM     11  N   UNL     1       1.509  12.085  19.664  0.00  0.00    +0.000 NA
ATOM     12  C   UNL     1       0.400  11.648  19.033  0.00  0.00    +0.000 A 
ENDBRANCH   1   2
BRANCH   1  15
ATOM     13  N   UNL     1       2.455   7.518  18.881  0.00  0.00    +0.000 N 
ATOM     14  C   UNL     1       2.052   7.077  20.211  0.00  0.00    +0.000 C 
ATOM     15  C   UNL     1       1.899   8.731  18.419  0.00  0.00    +0.000 C 
ATOM     16  O   UNL     1       2.098   9.281  17.340  0.00  0.00    +0.000 OA
BRANCH  13  21
ATOM     17  C   UNL     1       5.636   3.912  15.649  0.00  0.00    +0.000 C 
ATOM     18  C   UNL     1       4.803   4.858  16.459  0.00  0.00    +0.000 A 
ATOM     19  C   UNL     1       5.101   6.219  16.517  0.00  0.00    +0.000 A 
ATOM     20  C   UNL     1       4.324   7.093  17.297  0.00  0.00    +0.000 A 
ATOM     21  C   UNL     1       3.230   6.638  18.045  0.00  0.00    +0.000 A 
ATOM     22  C   UNL     1       2.931   5.267  17.951  0.00  0.00    +0.000 A 
ATOM     23  C   UNL     1       3.704   4.389  17.177  0.00  0.00    +0.000 A 
ENDBRANCH  13  21
ENDBRANCH   1  15
TORSDOF 3
ENDMDL
MODEL 6
REMARK VINA RESULT:      -7.0      1.566      2.136
REMARK  Name = 
REMARK  6 active torsions:
REMARK  status: ('A' for Active; 'I' for Inactive)
REMARK    1  A    between atoms: C_1  and  C_2
REMARK    2  A    between atoms: C_5  and  N_6
REMARK    3  A    between atoms: N_6  and  C_7
REMARK    4  A    between atoms: C_8  and  O_10
REMARK    5  A    between atoms: O_10  and  C_11
REMARK    6  A    between atoms: C_18  and  C_19
REMARK                            x       y       z     vdW  Elec       q    Type
REMARK                         _______ _______ _______ _____ _____    ______ ____
ROOT
ATOM      1  O   UNL     1       2.651   7.416  19.774  0.00  0.00    +0.000 OA
ENDROOT
BRANCH   1   2
ATOM      2  C   UNL     1       2.342   6.051  19.580  0.00  0.00    +0.000 A 
ATOM      3  C   UNL     1       1.448   5.487  20.495  0.00  0.00    +0.000 A 
ATOM      4  C   UNL     1       1.167   4.127  20.422  0.00  0.00    +0.000 A 
ATOM      5  C   UNL     1       1.775   3.347  19.436  0.00  0.00    +0.000 A 
ATOM      6  C   UNL     1       2.685   3.920  18.527  0.00  0.00    +0.000 A 
ATOM      7  C   UNL     1       3.305   3.160  17.523  0.00  0.00    +0.000 A 
ATOM      8  C   UNL     1       4.194   3.765  16.636  0.00  0.00    +0.000 A 
ATOM      9  C   UNL     1       4.474   5.109  16.798  0.00  0.00    +0.000 A 
ATOM     10  C   UNL     1       5.373   5.857  15.866  0.00  0.00    +0.000 C 
ATOM     11  N   UNL     1       3.919   5.843  17.788  0.00  0.00    +0.000 NA
ATOM     12  C   UNL     1       3.003   5.286  18.607  0.00  0.00    +0.000 A 
ENDBRANCH   1   2
BRANCH   1  15
ATOM     13  N   UNL     1       1.225   9.195  19.294  0.00  0.00    +0.000 N 
ATOM     14  C   UNL     1       1.935   9.175  18.021  0.00  0.00    +0.000 C 
ATOM     15  C   UNL     1       1.608   8.230  20.251  0.00  0.00    +0.000 C 
ATOM     16  O   UNL     1       1.145   8.068  21.376  0.00  0.00    +0.000 OA
BRANCH  13  21
ATOM     17  C   UNL     1      -3.349  12.715  19.816  0.00  0.00    +0.000 C 
ATOM     18  C   UNL     1      -2.177  11.787  19.704  0.00  0.00    +0.000 A 
ATOM     19  C   UNL     1      -1.211  11.715  20.707  0.00  0.00    +0.000 A 
ATOM     20  C   UNL     1      -0.106  10.856  20.581  0.00  0.00    +0.000 A 
ATOM     21  C   UNL     1       0.073  10.046  19.453  0.00  0.00    +0.000 A 
ATOM     22  C   UNL     1      -0.927  10.115  18.465  0.00  0.00    +0.000 A 
ATOM     23  C   UNL     1      -2.030  10.973  18.583  0.00  0.00    +0.000 A 
ENDBRANCH  13  21
ENDBRANCH   1  15
TORSDOF 3
ENDMDL
MODEL 7
REMARK VINA RESULT:      -7.0      3.511      7.253
REMARK  Name = 
REMARK  6 active torsions:
REMARK  status: ('A' for Active; 'I' for Inactive)
REMARK    1  A    between atoms: C_1  and  C_2
REMARK    2  A    between atoms: C_5  and  N_6
REMARK    3  A    between atoms: N_6  and  C_7
REMARK    4  A    between atoms: C_8  and  O_10
REMARK    5  A    between atoms: O_10  and  C_11
REMARK    6  A    between atoms: C_18  and  C_19
REMARK                            x       y       z     vdW  Elec       q    Type
REMARK                         _______ _______ _______ _____ _____    ______ ____
ROOT
ATOM      1  O   UNL     1       4.687   6.117  18.894  0.00  0.00    +0.000 OA
ENDROOT
BRANCH   1   2
ATOM      2  C   UNL     1       3.389   5.897  19.409  0.00  0.00    +0.000 A 
ATOM      3  C   UNL     1       2.745   7.014  19.949  0.00  0.00    +0.000 A 
ATOM      4  C   UNL     1       1.503   6.856  20.556  0.00  0.00    +0.000 A 
ATOM      5  C   UNL     1       0.917   5.591  20.612  0.00  0.00    +0.000 A 
ATOM      6  C   UNL     1       1.579   4.468  20.077  0.00  0.00    +0.000 A 
ATOM      7  C   UNL     1       1.008   3.186  20.115  0.00  0.00    +0.000 A 
ATOM      8  C   UNL     1       1.691   2.101  19.568  0.00  0.00    +0.000 A 
ATOM      9  C   UNL     1       2.946   2.316  19.030  0.00  0.00    +0.000 A 
ATOM     10  C   UNL     1       3.733   1.225  18.374  0.00  0.00    +0.000 C 
ATOM     11  N   UNL     1       3.526   3.537  19.028  0.00  0.00    +0.000 NA
ATOM     12  C   UNL     1       2.847   4.606  19.489  0.00  0.00    +0.000 A 
ENDBRANCH   1   2
BRANCH   1  15
ATOM     13  N   UNL     1       5.891   5.254  17.096  0.00  0.00    +0.000 N 
ATOM     14  C   UNL     1       6.642   4.596  18.159  0.00  0.00    +0.000 C 
ATOM     15  C   UNL     1       4.817   6.080  17.494  0.00  0.00    +0.000 C 
ATOM     16  O   UNL     1       4.059   6.721  16.772  0.00  0.00    +0.000 OA
BRANCH  13  21
ATOM     17  C   UNL     1       6.950   3.689  11.618  0.00  0.00    +0.000 C 
ATOM     18  C   UNL     1       6.671   4.123  13.026  0.00  0.00    +0.000 A 
ATOM     19  C   UNL     1       7.553   4.953  13.716  0.00  0.00    +0.000 A 
ATOM     20  C   UNL     1       7.291   5.337  15.043  0.00  0.00    +0.000 A 
ATOM     21  C   UNL     1       6.147   4.902  15.723  0.00  0.00    +0.000 A 
ATOM     22  C   UNL     1       5.257   4.087  14.999  0.00  0.00    +0.000 A 
ATOM     23  C   UNL     1       5.514   3.698  13.676  0.00  0.00    +0.000 A 
ENDBRANCH  13  21
ENDBRANCH   1  15
TORSDOF 3
ENDMDL
MODEL 8
REMARK VINA RESULT:      -7.0      1.551      7.615
REMARK  Name = 
REMARK  6 active torsions:
REMARK  status: ('A' for Active; 'I' for Inactive)
REMARK    1  A    between atoms: C_1  and  C_2
REMARK    2  A    between atoms: C_5  and  N_6
REMARK    3  A    between atoms: N_6  and  C_7
REMARK    4  A    between atoms: C_8  and  O_10
REMARK    5  A    between atoms: O_10  and  C_11
REMARK    6  A    between atoms: C_18  and  C_19
REMARK                            x       y       z     vdW  Elec       q    Type
REMARK                         _______ _______ _______ _____ _____    ______ ____
ROOT
ATOM      1  O   UNL     1       1.057   9.276  19.369  0.00  0.00    +0.000 OA
ENDROOT
BRANCH   1   2
ATOM      2  C   UNL     1       0.145  10.242  18.885  0.00  0.00    +0.000 A 
ATOM      3  C   UNL     1      -0.939   9.749  18.152  0.00  0.00    +0.000 A 
ATOM      4  C   UNL     1      -1.828  10.645  17.566  0.00  0.00    +0.000 A 
ATOM      5  C   UNL     1      -1.629  12.018  17.723  0.00  0.00    +0.000 A 
ATOM      6  C   UNL     1      -0.527  12.506  18.452  0.00  0.00    +0.000 A 
ATOM      7  C   UNL     1      -0.309  13.881  18.630  0.00  0.00    +0.000 A 
ATOM      8  C   UNL     1       0.789  14.325  19.364  0.00  0.00    +0.000 A 
ATOM      9  C   UNL     1       1.666  13.384  19.872  0.00  0.00    +0.000 A 
ATOM     10  C   UNL     1       2.843  13.761  20.715  0.00  0.00    +0.000 C 
ATOM     11  N   UNL     1       1.492  12.059  19.670  0.00  0.00    +0.000 NA
ATOM     12  C   UNL     1       0.396  11.614  19.023  0.00  0.00    +0.000 A 
ENDBRANCH   1   2
BRANCH   1  15
ATOM     13  N   UNL     1       2.484   7.498  18.888  0.00  0.00    +0.000 N 
ATOM     14  C   UNL     1       2.071   7.055  20.214  0.00  0.00    +0.000 C 
ATOM     15  C   UNL     1       1.925   8.708  18.420  0.00  0.00    +0.000 C 
ATOM     16  O   UNL     1       2.131   9.258  17.342  0.00  0.00    +0.000 OA
BRANCH  13  21
ATOM     17  C   UNL     1       5.591   4.045  15.425  0.00  0.00    +0.000 C 
ATOM     18  C   UNL     1       4.800   4.924  16.345  0.00  0.00    +0.000 A 
ATOM     19  C   UNL     1       3.756   4.413  17.116  0.00  0.00    +0.000 A 
ATOM     20  C   UNL     1       3.008   5.251  17.961  0.00  0.00    +0.000 A 
ATOM     21  C   UNL     1       3.273   6.623  18.060  0.00  0.00    +0.000 A 
ATOM     22  C   UNL     1       4.347   7.113  17.294  0.00  0.00    +0.000 A 
ATOM     23  C   UNL     1       5.095   6.282  16.447  0.00  0.00    +0.000 A 
ENDBRANCH  13  21
ENDBRANCH   1  15
TORSDOF 3
ENDMDL
MODEL 9
REMARK VINA RESULT:      -6.9      3.529      7.342
REMARK  Name = 
REMARK  6 active torsions:
REMARK  status: ('A' for Active; 'I' for Inactive)
REMARK    1  A    between atoms: C_1  and  C_2
REMARK    2  A    between atoms: C_5  and  N_6
REMARK    3  A    between atoms: N_6  and  C_7
REMARK    4  A    between atoms: C_8  and  O_10
REMARK    5  A    between atoms: O_10  and  C_11
REMARK    6  A    between atoms: C_18  and  C_19
REMARK                            x       y       z     vdW  Elec       q    Type
REMARK                         _______ _______ _______ _____ _____    ______ ____
ROOT
ATOM      1  O   UNL     1       4.751   6.067  18.844  0.00  0.00    +0.000 OA
ENDROOT
BRANCH   1   2
ATOM      2  C   UNL     1       3.456   5.863  19.371  0.00  0.00    +0.000 A 
ATOM      3  C   UNL     1       2.817   6.994  19.888  0.00  0.00    +0.000 A 
ATOM      4  C   UNL     1       1.579   6.854  20.506  0.00  0.00    +0.000 A 
ATOM      5  C   UNL     1       0.990   5.591  20.595  0.00  0.00    +0.000 A 
ATOM      6  C   UNL     1       1.646   4.454  20.083  0.00  0.00    +0.000 A 
ATOM      7  C   UNL     1       1.073   3.175  20.155  0.00  0.00    +0.000 A 
ATOM      8  C   UNL     1       1.750   2.076  19.630  0.00  0.00    +0.000 A 
ATOM      9  C   UNL     1       3.003   2.275  19.081  0.00  0.00    +0.000 A 
ATOM     10  C   UNL     1       3.783   1.167  18.447  0.00  0.00    +0.000 C 
ATOM     11  N   UNL     1       3.585   3.493  19.046  0.00  0.00    +0.000 NA
ATOM     12  C   UNL     1       2.911   4.575  19.485  0.00  0.00    +0.000 A 
ENDBRANCH   1   2
BRANCH   1  15
ATOM     13  N   UNL     1       5.969   5.200  17.057  0.00  0.00    +0.000 N 
ATOM     14  C   UNL     1       6.746   4.589  18.128  0.00  0.00    +0.000 C 
ATOM     15  C   UNL     1       4.873   6.001  17.444  0.00  0.00    +0.000 C 
ATOM     16  O   UNL     1       4.091   6.602  16.714  0.00  0.00    +0.000 OA
BRANCH  13  21
ATOM     17  C   UNL     1       6.965   3.842  11.513  0.00  0.00    +0.000 C 
ATOM     18  C   UNL     1       6.713   4.164  12.955  0.00  0.00    +0.000 A 
ATOM     19  C   UNL     1       5.588   3.678  13.619  0.00  0.00    +0.000 A 
ATOM     20  C   UNL     1       5.351   4.004  14.966  0.00  0.00    +0.000 A 
ATOM     21  C   UNL     1       6.225   4.825  15.690  0.00  0.00    +0.000 A 
ATOM     22  C   UNL     1       7.368   5.282  15.008  0.00  0.00    +0.000 A 
ATOM     23  C   UNL     1       7.607   4.963  13.663  0.00  0.00    +0.000 A 
ENDBRANCH  13  21
ENDBRANCH   1  15
TORSDOF 3
ENDMDL
