MODEL 1
REMARK VINA RESULT:      -9.3      0.000      0.000
REMARK  Name = 
REMARK  3 active torsions:
REMARK  status: ('A' for Active; 'I' for Inactive)
REMARK    1  A    between atoms: C_2  and  C_11
REMARK    2  A    between atoms: N_3  and  C_4
REMARK    3  A    between atoms: C_18  and  C_19
REMARK                            x       y       z     vdW  Elec       q    Type
REMARK                         _______ _______ _______ _____ _____    ______ ____
ROOT
ATOM      1  C   UNL     1       4.742   4.403  17.947  0.00  0.00    +0.000 A 
ATOM      2  C   UNL     1       4.702   3.358  18.797  0.00  0.00    +0.000 A 
ATOM      3  C   UNL     1       3.783   3.318  19.946  0.00  0.00    +0.000 A 
ATOM      4  O   UNL     1       3.723   2.318  20.656  0.00  0.00    +0.000 OA
ATOM      5  N   UNL     1       3.021   4.421  20.166  0.00  0.00    +0.000 N 
ATOM      6  C   UNL     1       3.056   5.559  19.354  0.00  0.00    +0.000 A 
ATOM      7  C   UNL     1       2.239   6.646  19.689  0.00  0.00    +0.000 A 
ATOM      8  C   UNL     1       2.247   7.807  18.909  0.00  0.00    +0.000 A 
ATOM      9  C   UNL     1       3.074   7.842  17.781  0.00  0.00    +0.000 A 
ATOM     10  C   UNL     1       3.879   6.745  17.440  0.00  0.00    +0.000 A 
ATOM     11  C   UNL     1       3.896   5.589  18.230  0.00  0.00    +0.000 A 
ATOM     12  H   UNL     1       2.408   4.382  20.968  0.00  0.00    +0.000 HD
ENDROOT
BRANCH   8  13
ATOM     13  C   UNL     1       1.403   8.955  19.247  0.00  0.00    +0.000 A 
ATOM     14  C   UNL     1       0.930   9.976  18.356  0.00  0.00    +0.000 A 
ATOM     15  C   UNL     1       0.148  10.917  18.989  0.00  0.00    +0.000 A 
ATOM     16  S   UNL     1      -0.016  10.597  20.657  0.00  0.00    +0.000 S 
ATOM     17  C   UNL     1       0.965   9.197  20.537  0.00  0.00    +0.000 A 
ENDBRANCH   8  13
BRANCH   1  19
ATOM     18  O   UNL     1       6.933   4.416  17.053  0.00  0.00    +0.000 OA
ATOM     19  C   UNL     1       5.732   4.348  16.818  0.00  0.00    +0.000 C 
ATOM     20  N   UNL     1       5.160   4.284  15.559  0.00  0.00    +0.000 N 
ATOM     21  H   UNL     1       4.153   4.366  15.495  0.00  0.00    +0.000 HD
BRANCH  20  22
ATOM     22  C   UNL     1       5.843   4.268  14.324  0.00  0.00    +0.000 A 
ATOM     23  C   UNL     1       5.472   3.462  13.242  0.00  0.00    +0.000 A 
ATOM     24  C   UNL     1       6.244   3.433  12.075  0.00  0.00    +0.000 A 
ATOM     25  C   UNL     1       7.385   4.221  11.979  0.00  0.00    +0.000 A 
ATOM     26  C   UNL     1       7.729   5.052  13.036  0.00  0.00    +0.000 A 
ATOM     27  F   UNL     1       8.824   5.818  12.944  0.00  0.00    +0.000 F 
ATOM     28  C   UNL     1       6.966   5.092  14.199  0.00  0.00    +0.000 A 
ENDBRANCH  20  22
ENDBRANCH   1  19
TORSDOF 3
ENDMDL
MODEL 2
REMARK VINA RESULT:      -9.2      1.075      1.200
REMARK  Name = 
REMARK  3 active torsions:
REMARK  status: ('A' for Active; 'I' for Inactive)
REMARK    1  A    between atoms: C_2  and  C_11
REMARK    2  A    between atoms: N_3  and  C_4
REMARK    3  A    between atoms: C_18  and  C_19
REMARK                            x       y       z     vdW  Elec       q    Type
REMARK                         _______ _______ _______ _____ _____    ______ ____
ROOT
ATOM      1  C   UNL     1       4.204   5.218  17.664  0.00  0.00    +0.000 A 
ATOM      2  C   UNL     1       4.476   4.045  18.268  0.00  0.00    +0.000 A 
ATOM      3  C   UNL     1       3.880   3.674  19.562  0.00  0.00    +0.000 A 
ATOM      4  O   UNL     1       4.093   2.566  20.047  0.00  0.00    +0.000 OA
ATOM      5  N   UNL     1       3.098   4.603  20.171  0.00  0.00    +0.000 N 
ATOM      6  C   UNL     1       2.822   5.860  19.623  0.00  0.00    +0.000 A 
ATOM      7  C   UNL     1       2.017   6.745  20.349  0.00  0.00    +0.000 A 
ATOM      8  C   UNL     1       1.721   8.015  19.843  0.00  0.00    +0.000 A 
ATOM      9  C   UNL     1       2.233   8.364  18.589  0.00  0.00    +0.000 A 
ATOM     10  C   UNL     1       3.026   7.469  17.857  0.00  0.00    +0.000 A 
ATOM     11  C   UNL     1       3.349   6.205  18.368  0.00  0.00    +0.000 A 
ATOM     12  H   UNL     1       2.711   4.337  21.065  0.00  0.00    +0.000 HD
ENDROOT
BRANCH   8  13
ATOM     13  C   UNL     1       0.885   8.956  20.592  0.00  0.00    +0.000 A 
ATOM     14  C   UNL     1       0.110  10.040  20.060  0.00  0.00    +0.000 A 
ATOM     15  C   UNL     1      -0.574  10.737  21.033  0.00  0.00    +0.000 A 
ATOM     16  S   UNL     1      -0.283  10.109  22.593  0.00  0.00    +0.000 S 
ATOM     17  C   UNL     1       0.763   8.904  21.969  0.00  0.00    +0.000 A 
ENDBRANCH   8  13
BRANCH   1  19
ATOM     18  O   UNL     1       4.975   6.656  15.950  0.00  0.00    +0.000 OA
ATOM     19  C   UNL     1       4.881   5.502  16.353  0.00  0.00    +0.000 C 
ATOM     20  N   UNL     1       5.299   4.374  15.669  0.00  0.00    +0.000 N 
ATOM     21  H   UNL     1       5.045   3.471  16.051  0.00  0.00    +0.000 HD
BRANCH  20  22
ATOM     22  C   UNL     1       5.919   4.339  14.402  0.00  0.00    +0.000 A 
ATOM     23  C   UNL     1       5.460   3.560  13.334  0.00  0.00    +0.000 A 
ATOM     24  C   UNL     1       6.171   3.509  12.130  0.00  0.00    +0.000 A 
ATOM     25  C   UNL     1       7.341   4.247  11.983  0.00  0.00    +0.000 A 
ATOM     26  C   UNL     1       7.772   5.052  13.028  0.00  0.00    +0.000 A 
ATOM     27  F   UNL     1       8.894   5.770  12.888  0.00  0.00    +0.000 F 
ATOM     28  C   UNL     1       7.069   5.115  14.227  0.00  0.00    +0.000 A 
ENDBRANCH  20  22
ENDBRANCH   1  19
TORSDOF 3
ENDMDL
MODEL 3
REMARK VINA RESULT:      -9.1      0.957      1.341
REMARK  Name = 
REMARK  3 active torsions:
REMARK  status: ('A' for Active; 'I' for Inactive)
REMARK    1  A    between atoms: C_2  and  C_11
REMARK    2  A    between atoms: N_3  and  C_4
REMARK    3  A    between atoms: C_18  and  C_19
REMARK                            x       y       z     vdW  Elec       q    Type
REMARK                         _______ _______ _______ _____ _____    ______ ____
ROOT
ATOM      1  C   UNL     1       4.718   4.486  18.072  0.00  0.00    +0.000 A 
ATOM      2  C   UNL     1       4.631   3.451  18.930  0.00  0.00    +0.000 A 
ATOM      3  C   UNL     1       3.666   3.434  20.042  0.00  0.00    +0.000 A 
ATOM      4  O   UNL     1       3.565   2.442  20.759  0.00  0.00    +0.000 OA
ATOM      5  N   UNL     1       2.909   4.548  20.220  0.00  0.00    +0.000 N 
ATOM      6  C   UNL     1       2.991   5.677  19.399  0.00  0.00    +0.000 A 
ATOM      7  C   UNL     1       2.176   6.777  19.690  0.00  0.00    +0.000 A 
ATOM      8  C   UNL     1       2.229   7.930  18.900  0.00  0.00    +0.000 A 
ATOM      9  C   UNL     1       3.101   7.943  17.805  0.00  0.00    +0.000 A 
ATOM     10  C   UNL     1       3.905   6.833  17.508  0.00  0.00    +0.000 A 
ATOM     11  C   UNL     1       3.876   5.685  18.310  0.00  0.00    +0.000 A 
ATOM     12  H   UNL     1       2.265   4.525  20.997  0.00  0.00    +0.000 HD
ENDROOT
BRANCH   8  13
ATOM     13  C   UNL     1       1.387   9.092  19.192  0.00  0.00    +0.000 A 
ATOM     14  C   UNL     1       0.976  10.117  18.276  0.00  0.00    +0.000 A 
ATOM     15  C   UNL     1       0.177  11.072  18.866  0.00  0.00    +0.000 A 
ATOM     16  S   UNL     1      -0.076  10.759  20.525  0.00  0.00    +0.000 S 
ATOM     17  C   UNL     1       0.888   9.344  20.457  0.00  0.00    +0.000 A 
ENDBRANCH   8  13
BRANCH   1  19
ATOM     18  O   UNL     1       6.942   4.469  17.266  0.00  0.00    +0.000 OA
ATOM     19  C   UNL     1       5.751   4.407  16.984  0.00  0.00    +0.000 C 
ATOM     20  N   UNL     1       5.229   4.330  15.705  0.00  0.00    +0.000 N 
ATOM     21  H   UNL     1       4.226   4.419  15.599  0.00  0.00    +0.000 HD
BRANCH  20  22
ATOM     22  C   UNL     1       5.961   4.290  14.498  0.00  0.00    +0.000 A 
ATOM     23  C   UNL     1       7.055   5.118  14.226  0.00  0.00    +0.000 A 
ATOM     24  C   UNL     1       7.684   5.085  12.977  0.00  0.00    +0.000 A 
ATOM     25  C   UNL     1       7.228   4.212  11.995  0.00  0.00    +0.000 A 
ATOM     26  C   UNL     1       6.169   3.361  12.280  0.00  0.00    +0.000 A 
ATOM     27  F   UNL     1       5.732   2.514  11.339  0.00  0.00    +0.000 F 
ATOM     28  C   UNL     1       5.541   3.383  13.521  0.00  0.00    +0.000 A 
ENDBRANCH  20  22
ENDBRANCH   1  19
TORSDOF 3
ENDMDL
MODEL 4
REMARK VINA RESULT:      -9.1      1.427      1.783
REMARK  Name = 
REMARK  3 active torsions:
REMARK  status: ('A' for Active; 'I' for Inactive)
REMARK    1  A    between atoms: C_2  and  C_11
REMARK    2  A    between atoms: N_3  and  C_4
REMARK    3  A    between atoms: C_18  and  C_19
REMARK                            x       y       z     vdW  Elec       q    Type
REMARK                         _______ _______ _______ _____ _____    ______ ____
ROOT
ATOM      1  C   UNL     1       4.221   5.249  17.677  0.00  0.00    +0.000 A 
ATOM      2  C   UNL     1       4.493   4.089  18.309  0.00  0.00    +0.000 A 
ATOM      3  C   UNL     1       3.892   3.747  19.608  0.00  0.00    +0.000 A 
ATOM      4  O   UNL     1       4.105   2.650  20.119  0.00  0.00    +0.000 OA
ATOM      5  N   UNL     1       3.105   4.688  20.192  0.00  0.00    +0.000 N 
ATOM      6  C   UNL     1       2.829   5.931  19.615  0.00  0.00    +0.000 A 
ATOM      7  C   UNL     1       2.019   6.830  20.318  0.00  0.00    +0.000 A 
ATOM      8  C   UNL     1       1.722   8.088  19.782  0.00  0.00    +0.000 A 
ATOM      9  C   UNL     1       2.240   8.410  18.522  0.00  0.00    +0.000 A 
ATOM     10  C   UNL     1       3.038   7.500  17.815  0.00  0.00    +0.000 A 
ATOM     11  C   UNL     1       3.360   6.249  18.355  0.00  0.00    +0.000 A 
ATOM     12  H   UNL     1       2.714   4.441  21.091  0.00  0.00    +0.000 HD
ENDROOT
BRANCH   8  13
ATOM     13  C   UNL     1       0.881   9.044  20.505  0.00  0.00    +0.000 A 
ATOM     14  C   UNL     1       0.187  10.175  19.959  0.00  0.00    +0.000 A 
ATOM     15  C   UNL     1      -0.527  10.874  20.908  0.00  0.00    +0.000 A 
ATOM     16  S   UNL     1      -0.362  10.191  22.464  0.00  0.00    +0.000 S 
ATOM     17  C   UNL     1       0.671   8.960  21.870  0.00  0.00    +0.000 A 
ENDBRANCH   8  13
BRANCH   1  19
ATOM     18  O   UNL     1       4.924   6.637  15.894  0.00  0.00    +0.000 OA
ATOM     19  C   UNL     1       4.904   5.505  16.363  0.00  0.00    +0.000 C 
ATOM     20  N   UNL     1       5.415   4.372  15.755  0.00  0.00    +0.000 N 
ATOM     21  H   UNL     1       5.218   3.476  16.185  0.00  0.00    +0.000 HD
BRANCH  20  22
ATOM     22  C   UNL     1       6.063   4.309  14.502  0.00  0.00    +0.000 A 
ATOM     23  C   UNL     1       7.197   5.060  14.176  0.00  0.00    +0.000 A 
ATOM     24  C   UNL     1       7.739   5.012  12.887  0.00  0.00    +0.000 A 
ATOM     25  C   UNL     1       7.157   4.200  11.920  0.00  0.00    +0.000 A 
ATOM     26  C   UNL     1       6.058   3.423  12.256  0.00  0.00    +0.000 A 
ATOM     27  F   UNL     1       5.499   2.634  11.329  0.00  0.00    +0.000 F 
ATOM     28  C   UNL     1       5.514   3.459  13.536  0.00  0.00    +0.000 A 
ENDBRANCH  20  22
ENDBRANCH   1  19
TORSDOF 3
ENDMDL
MODEL 5
REMARK VINA RESULT:      -8.4      1.217      1.490
REMARK  Name = 
REMARK  3 active torsions:
REMARK  status: ('A' for Active; 'I' for Inactive)
REMARK    1  A    between atoms: C_2  and  C_11
REMARK    2  A    between atoms: N_3  and  C_4
REMARK    3  A    between atoms: C_18  and  C_19
REMARK                            x       y       z     vdW  Elec       q    Type
REMARK                         _______ _______ _______ _____ _____    ______ ____
ROOT
ATOM      1  C   UNL     1       4.090   5.846  17.682  0.00  0.00    +0.000 A 
ATOM      2  C   UNL     1       4.224   4.746  18.448  0.00  0.00    +0.000 A 
ATOM      3  C   UNL     1       3.477   4.570  19.705  0.00  0.00    +0.000 A 
ATOM      4  O   UNL     1       3.569   3.522  20.338  0.00  0.00    +0.000 OA
ATOM      5  N   UNL     1       2.696   5.606  20.109  0.00  0.00    +0.000 N 
ATOM      6  C   UNL     1       2.557   6.797  19.389  0.00  0.00    +0.000 A 
ATOM      7  C   UNL     1       1.740   7.804  19.912  0.00  0.00    +0.000 A 
ATOM      8  C   UNL     1       1.578   9.014  19.229  0.00  0.00    +0.000 A 
ATOM      9  C   UNL     1       2.236   9.178  18.005  0.00  0.00    +0.000 A 
ATOM     10  C   UNL     1       3.042   8.159  17.477  0.00  0.00    +0.000 A 
ATOM     11  C   UNL     1       3.230   6.955  18.167  0.00  0.00    +0.000 A 
ATOM     12  H   UNL     1       2.204   5.474  20.981  0.00  0.00    +0.000 HD
ENDROOT
BRANCH   8  13
ATOM     13  C   UNL     1       0.730  10.082  19.765  0.00  0.00    +0.000 A 
ATOM     14  C   UNL     1       1.139  11.179  20.595  0.00  0.00    +0.000 A 
ATOM     15  C   UNL     1       0.096  12.017  20.925  0.00  0.00    +0.000 A 
ATOM     16  S   UNL     1      -1.384  11.491  20.257  0.00  0.00    +0.000 S 
ATOM     17  C   UNL     1      -0.631  10.136  19.527  0.00  0.00    +0.000 A 
ENDBRANCH   8  13
BRANCH   1  19
ATOM     18  O   UNL     1       5.371   7.008  16.068  0.00  0.00    +0.000 OA
ATOM     19  C   UNL     1       4.914   5.930  16.429  0.00  0.00    +0.000 C 
ATOM     20  N   UNL     1       5.031   4.735  15.741  0.00  0.00    +0.000 N 
ATOM     21  H   UNL     1       4.496   3.944  16.078  0.00  0.00    +0.000 HD
BRANCH  20  22
ATOM     22  C   UNL     1       5.704   4.530  14.518  0.00  0.00    +0.000 A 
ATOM     23  C   UNL     1       5.253   3.660  13.519  0.00  0.00    +0.000 A 
ATOM     24  C   UNL     1       6.013   3.442  12.365  0.00  0.00    +0.000 A 
ATOM     25  C   UNL     1       7.225   4.103  12.197  0.00  0.00    +0.000 A 
ATOM     26  C   UNL     1       7.651   4.998  13.169  0.00  0.00    +0.000 A 
ATOM     27  F   UNL     1       8.814   5.642  13.008  0.00  0.00    +0.000 F 
ATOM     28  C   UNL     1       6.900   5.226  14.318  0.00  0.00    +0.000 A 
ENDBRANCH  20  22
ENDBRANCH   1  19
TORSDOF 3
ENDMDL
MODEL 6
REMARK VINA RESULT:      -8.3      5.604      9.111
REMARK  Name = 
REMARK  3 active torsions:
REMARK  status: ('A' for Active; 'I' for Inactive)
REMARK    1  A    between atoms: C_2  and  C_11
REMARK    2  A    between atoms: N_3  and  C_4
REMARK    3  A    between atoms: C_18  and  C_19
REMARK                            x       y       z     vdW  Elec       q    Type
REMARK                         _______ _______ _______ _____ _____    ______ ____
ROOT
ATOM      1  C   UNL     1       1.018  10.824  20.156  0.00  0.00    +0.000 A 
ATOM      2  C   UNL     1       0.597  10.850  21.436  0.00  0.00    +0.000 A 
ATOM      3  C   UNL     1       0.657   9.662  22.304  0.00  0.00    +0.000 A 
ATOM      4  O   UNL     1       0.333   9.742  23.486  0.00  0.00    +0.000 OA
ATOM      5  N   UNL     1       1.084   8.504  21.737  0.00  0.00    +0.000 N 
ATOM      6  C   UNL     1       1.482   8.398  20.400  0.00  0.00    +0.000 A 
ATOM      7  C   UNL     1       1.886   7.148  19.919  0.00  0.00    +0.000 A 
ATOM      8  C   UNL     1       2.285   6.995  18.587  0.00  0.00    +0.000 A 
ATOM      9  C   UNL     1       2.288   8.125  17.762  0.00  0.00    +0.000 A 
ATOM     10  C   UNL     1       1.897   9.378  18.252  0.00  0.00    +0.000 A 
ATOM     11  C   UNL     1       1.471   9.536  19.578  0.00  0.00    +0.000 A 
ATOM     12  H   UNL     1       1.103   7.696  22.343  0.00  0.00    +0.000 HD
ENDROOT
BRANCH   8  13
ATOM     13  C   UNL     1       2.706   5.693  18.065  0.00  0.00    +0.000 A 
ATOM     14  C   UNL     1       1.883   4.537  17.853  0.00  0.00    +0.000 A 
ATOM     15  C   UNL     1       2.585   3.466  17.342  0.00  0.00    +0.000 A 
ATOM     16  S   UNL     1       4.239   3.831  17.126  0.00  0.00    +0.000 S 
ATOM     17  C   UNL     1       4.018   5.422  17.720  0.00  0.00    +0.000 A 
ENDBRANCH   8  13
BRANCH   1  19
ATOM     18  O   UNL     1      -0.041  12.232  18.576  0.00  0.00    +0.000 OA
ATOM     19  C   UNL     1       0.894  12.089  19.355  0.00  0.00    +0.000 C 
ATOM     20  N   UNL     1       1.932  12.986  19.540  0.00  0.00    +0.000 N 
ATOM     21  H   UNL     1       2.712  12.692  20.114  0.00  0.00    +0.000 HD
BRANCH  20  22
ATOM     22  C   UNL     1       2.098  14.227  18.888  0.00  0.00    +0.000 A 
ATOM     23  C   UNL     1       3.134  14.498  17.987  0.00  0.00    +0.000 A 
ATOM     24  C   UNL     1       3.289  15.776  17.440  0.00  0.00    +0.000 A 
ATOM     25  C   UNL     1       2.398  16.789  17.781  0.00  0.00    +0.000 A 
ATOM     26  C   UNL     1       1.346  16.508  18.641  0.00  0.00    +0.000 A 
ATOM     27  F   UNL     1       0.482  17.479  18.966  0.00  0.00    +0.000 F 
ATOM     28  C   UNL     1       1.180  15.239  19.186  0.00  0.00    +0.000 A 
ENDBRANCH  20  22
ENDBRANCH   1  19
TORSDOF 3
ENDMDL
MODEL 7
REMARK VINA RESULT:      -8.3      1.289      1.737
REMARK  Name = 
REMARK  3 active torsions:
REMARK  status: ('A' for Active; 'I' for Inactive)
REMARK    1  A    between atoms: C_2  and  C_11
REMARK    2  A    between atoms: N_3  and  C_4
REMARK    3  A    between atoms: C_18  and  C_19
REMARK                            x       y       z     vdW  Elec       q    Type
REMARK                         _______ _______ _______ _____ _____    ______ ____
ROOT
ATOM      1  C   UNL     1       4.239   4.641  18.677  0.00  0.00    +0.000 A 
ATOM      2  C   UNL     1       4.067   3.665  19.591  0.00  0.00    +0.000 A 
ATOM      3  C   UNL     1       3.051   3.756  20.652  0.00  0.00    +0.000 A 
ATOM      4  O   UNL     1       2.873   2.815  21.421  0.00  0.00    +0.000 OA
ATOM      5  N   UNL     1       2.336   4.909  20.726  0.00  0.00    +0.000 N 
ATOM      6  C   UNL     1       2.505   5.981  19.844  0.00  0.00    +0.000 A 
ATOM      7  C   UNL     1       1.726   7.129  20.027  0.00  0.00    +0.000 A 
ATOM      8  C   UNL     1       1.867   8.228  19.173  0.00  0.00    +0.000 A 
ATOM      9  C   UNL     1       2.789   8.138  18.125  0.00  0.00    +0.000 A 
ATOM     10  C   UNL     1       3.557   6.980  17.935  0.00  0.00    +0.000 A 
ATOM     11  C   UNL     1       3.440   5.886  18.801  0.00  0.00    +0.000 A 
ATOM     12  H   UNL     1       1.655   4.960  21.470  0.00  0.00    +0.000 HD
ENDROOT
BRANCH   8  13
ATOM     13  C   UNL     1       1.063   9.439  19.354  0.00  0.00    +0.000 A 
ATOM     14  C   UNL     1       0.768  10.107  20.590  0.00  0.00    +0.000 A 
ATOM     15  C   UNL     1      -0.012  11.229  20.418  0.00  0.00    +0.000 A 
ATOM     16  S   UNL     1      -0.412  11.485  18.778  0.00  0.00    +0.000 S 
ATOM     17  C   UNL     1       0.457  10.090  18.295  0.00  0.00    +0.000 A 
ENDBRANCH   8  13
BRANCH   1  19
ATOM     18  O   UNL     1       6.477   4.272  18.003  0.00  0.00    +0.000 OA
ATOM     19  C   UNL     1       5.318   4.453  17.649  0.00  0.00    +0.000 C 
ATOM     20  N   UNL     1       4.885   4.569  16.339  0.00  0.00    +0.000 N 
ATOM     21  H   UNL     1       3.925   4.850  16.184  0.00  0.00    +0.000 HD
BRANCH  20  22
ATOM     22  C   UNL     1       5.684   4.484  15.178  0.00  0.00    +0.000 A 
ATOM     23  C   UNL     1       6.862   5.216  14.991  0.00  0.00    +0.000 A 
ATOM     24  C   UNL     1       7.561   5.147  13.782  0.00  0.00    +0.000 A 
ATOM     25  C   UNL     1       7.092   4.335  12.755  0.00  0.00    +0.000 A 
ATOM     26  C   UNL     1       5.947   3.577  12.957  0.00  0.00    +0.000 A 
ATOM     27  F   UNL     1       5.496   2.788  11.973  0.00  0.00    +0.000 F 
ATOM     28  C   UNL     1       5.247   3.634  14.158  0.00  0.00    +0.000 A 
ENDBRANCH  20  22
ENDBRANCH   1  19
TORSDOF 3
ENDMDL
MODEL 8
REMARK VINA RESULT:      -8.3      5.402      9.462
REMARK  Name = 
REMARK  3 active torsions:
REMARK  status: ('A' for Active; 'I' for Inactive)
REMARK    1  A    between atoms: C_2  and  C_11
REMARK    2  A    between atoms: N_3  and  C_4
REMARK    3  A    between atoms: C_18  and  C_19
REMARK                            x       y       z     vdW  Elec       q    Type
REMARK                         _______ _______ _______ _____ _____    ______ ____
ROOT
ATOM      1  C   UNL     1       0.525  11.030  20.268  0.00  0.00    +0.000 A 
ATOM      2  C   UNL     1       0.144  10.979  21.559  0.00  0.00    +0.000 A 
ATOM      3  C   UNL     1       0.409   9.806  22.408  0.00  0.00    +0.000 A 
ATOM      4  O   UNL     1       0.112   9.825  23.600  0.00  0.00    +0.000 OA
ATOM      5  N   UNL     1       0.990   8.732  21.814  0.00  0.00    +0.000 N 
ATOM      6  C   UNL     1       1.360   8.700  20.465  0.00  0.00    +0.000 A 
ATOM      7  C   UNL     1       1.935   7.531  19.956  0.00  0.00    +0.000 A 
ATOM      8  C   UNL     1       2.314   7.453  18.612  0.00  0.00    +0.000 A 
ATOM      9  C   UNL     1       2.120   8.577  17.802  0.00  0.00    +0.000 A 
ATOM     10  C   UNL     1       1.558   9.753  18.320  0.00  0.00    +0.000 A 
ATOM     11  C   UNL     1       1.152   9.831  19.659  0.00  0.00    +0.000 A 
ATOM     12  H   UNL     1       1.150   7.931  22.408  0.00  0.00    +0.000 HD
ENDROOT
BRANCH   8  13
ATOM     13  C   UNL     1       2.912   6.235  18.060  0.00  0.00    +0.000 A 
ATOM     14  C   UNL     1       2.302   4.940  17.957  0.00  0.00    +0.000 A 
ATOM     15  C   UNL     1       3.133   4.002  17.382  0.00  0.00    +0.000 A 
ATOM     16  S   UNL     1       4.654   4.660  16.974  0.00  0.00    +0.000 S 
ATOM     17  C   UNL     1       4.205   6.201  17.571  0.00  0.00    +0.000 A 
ENDBRANCH   8  13
BRANCH   1  19
ATOM     18  O   UNL     1      -0.548  12.195  18.510  0.00  0.00    +0.000 OA
ATOM     19  C   UNL     1       0.188  12.269  19.487  0.00  0.00    +0.000 C 
ATOM     20  N   UNL     1       0.819  13.416  19.935  0.00  0.00    +0.000 N 
ATOM     21  H   UNL     1       1.505  13.318  20.674  0.00  0.00    +0.000 HD
BRANCH  20  22
ATOM     22  C   UNL     1       0.724  14.705  19.369  0.00  0.00    +0.000 A 
ATOM     23  C   UNL     1      -0.462  15.446  19.320  0.00  0.00    +0.000 A 
ATOM     24  C   UNL     1      -0.506  16.684  18.670  0.00  0.00    +0.000 A 
ATOM     25  C   UNL     1       0.642  17.194  18.073  0.00  0.00    +0.000 A 
ATOM     26  C   UNL     1       1.828  16.478  18.157  0.00  0.00    +0.000 A 
ATOM     27  F   UNL     1       2.937  16.969  17.590  0.00  0.00    +0.000 F 
ATOM     28  C   UNL     1       1.883  15.249  18.807  0.00  0.00    +0.000 A 
ENDBRANCH  20  22
ENDBRANCH   1  19
TORSDOF 3
ENDMDL
MODEL 9
REMARK VINA RESULT:      -8.3      5.284      8.827
REMARK  Name = 
REMARK  3 active torsions:
REMARK  status: ('A' for Active; 'I' for Inactive)
REMARK    1  A    between atoms: C_2  and  C_11
REMARK    2  A    between atoms: N_3  and  C_4
REMARK    3  A    between atoms: C_18  and  C_19
REMARK                            x       y       z     vdW  Elec       q    Type
REMARK                         _______ _______ _______ _____ _____    ______ ____
ROOT
ATOM      1  C   UNL     1       0.157   9.962  20.071  0.00  0.00    +0.000 A 
ATOM      2  C   UNL     1      -0.026  10.142  21.394  0.00  0.00    +0.000 A 
ATOM      3  C   UNL     1       0.722   9.370  22.400  0.00  0.00    +0.000 A 
ATOM      4  O   UNL     1       0.582   9.613  23.596  0.00  0.00    +0.000 OA
ATOM      5  N   UNL     1       1.557   8.402  21.941  0.00  0.00    +0.000 N 
ATOM      6  C   UNL     1       1.749   8.128  20.583  0.00  0.00    +0.000 A 
ATOM      7  C   UNL     1       2.621   7.093  20.226  0.00  0.00    +0.000 A 
ATOM      8  C   UNL     1       2.838   6.779  18.880  0.00  0.00    +0.000 A 
ATOM      9  C   UNL     1       2.178   7.539  17.908  0.00  0.00    +0.000 A 
ATOM     10  C   UNL     1       1.318   8.585  18.270  0.00  0.00    +0.000 A 
ATOM     11  C   UNL     1       1.075   8.889  19.615  0.00  0.00    +0.000 A 
ATOM     12  H   UNL     1       2.049   7.872  22.646  0.00  0.00    +0.000 HD
ENDROOT
BRANCH   8  13
ATOM     13  C   UNL     1       3.742   5.696  18.489  0.00  0.00    +0.000 A 
ATOM     14  C   UNL     1       5.049   5.425  19.016  0.00  0.00    +0.000 A 
ATOM     15  C   UNL     1       5.642   4.323  18.438  0.00  0.00    +0.000 A 
ATOM     16  S   UNL     1       4.645   3.612  17.248  0.00  0.00    +0.000 S 
ATOM     17  C   UNL     1       3.419   4.782  17.503  0.00  0.00    +0.000 A 
ENDBRANCH   8  13
BRANCH   1  19
ATOM     18  O   UNL     1      -0.466  11.995  19.033  0.00  0.00    +0.000 OA
ATOM     19  C   UNL     1      -0.673  10.791  19.132  0.00  0.00    +0.000 C 
ATOM     20  N   UNL     1      -1.676  10.091  18.486  0.00  0.00    +0.000 N 
ATOM     21  H   UNL     1      -1.825   9.126  18.754  0.00  0.00    +0.000 HD
BRANCH  20  22
ATOM     22  C   UNL     1      -2.629  10.620  17.589  0.00  0.00    +0.000 A 
ATOM     23  C   UNL     1      -3.728  11.389  17.987  0.00  0.00    +0.000 A 
ATOM     24  C   UNL     1      -4.680  11.812  17.053  0.00  0.00    +0.000 A 
ATOM     25  C   UNL     1      -4.530  11.479  15.711  0.00  0.00    +0.000 A 
ATOM     26  C   UNL     1      -3.418  10.752  15.311  0.00  0.00    +0.000 A 
ATOM     27  F   UNL     1      -3.267  10.436  14.018  0.00  0.00    +0.000 F 
ATOM     28  C   UNL     1      -2.463  10.331  16.231  0.00  0.00    +0.000 A 
ENDBRANCH  20  22
ENDBRANCH   1  19
TORSDOF 3
ENDMDL
