MODEL 1
REMARK VINA RESULT:      -6.0      0.000      0.000
REMARK  Name = 
REMARK  16 active torsions:
REMARK  status: ('A' for Active; 'I' for Inactive)
REMARK    1  A    between atoms: C_1  and  C_2
REMARK    2  A    between atoms: C_2  and  C_3
REMARK    3  A    between atoms: C_3  and  C_4
REMARK    4  A    between atoms: C_4  and  C_5
REMARK    5  A    between atoms: C_6  and  C_7
REMARK    6  A    between atoms: C_7  and  C_8
REMARK    7  A    between atoms: C_8  and  C_9
REMARK    8  A    between atoms: C_9  and  C_10
REMARK    9  A    between atoms: C_10  and  C_11
REMARK   10  A    between atoms: C_11  and  C_12
REMARK   11  A    between atoms: C_12  and  C_13
REMARK   12  A    between atoms: C_13  and  C_14
REMARK   13  A    between atoms: C_14  and  C_15
REMARK   14  A    between atoms: C_15  and  C_16
REMARK   15  A    between atoms: C_16  and  C_17
REMARK   16  A    between atoms: C_17  and  C_19
REMARK                            x       y       z     vdW  Elec       q    Type
REMARK                         _______ _______ _______ _____ _____    ______ ____
ROOT
ATOM      1  C   UNL     1       3.352   2.541  18.540  0.00  0.00    +0.000 C 
ENDROOT
BRANCH   1   2
ATOM      2  C   UNL     1       3.855   2.527  19.975  0.00  0.00    +0.000 C 
BRANCH   2   3
ATOM      3  C   UNL     1       2.723   2.736  20.976  0.00  0.00    +0.000 C 
BRANCH   3   4
ATOM      4  C   UNL     1       1.396   3.031  20.276  0.00  0.00    +0.000 C 
BRANCH   4   5
ATOM      5  C   UNL     1       0.951   4.495  20.347  0.00  0.00    +0.000 C 
BRANCH   5   7
ATOM      6  C   UNL     1       2.645   6.284  19.800  0.00  0.00    +0.000 C 
ATOM      7  C   UNL     1       2.085   5.432  20.671  0.00  0.00    +0.000 C 
BRANCH   6   8
ATOM      8  C   UNL     1       2.177   6.420  18.383  0.00  0.00    +0.000 C 
BRANCH   8   9
ATOM      9  C   UNL     1       2.332   7.833  17.834  0.00  0.00    +0.000 C 
BRANCH   9  11
ATOM     10  C   UNL     1       0.690   9.713  18.120  0.00  0.00    +0.000 C 
ATOM     11  C   UNL     1       1.712   8.831  18.810  0.00  0.00    +0.000 C 
ENDBRANCH   9  11
ENDBRANCH   8   9
ENDBRANCH   6   8
ENDBRANCH   5   7
ENDBRANCH   4   5
ENDBRANCH   3   4
ENDBRANCH   2   3
ENDBRANCH   1   2
BRANCH   1  12
ATOM     12  C   UNL     1       4.490   2.933  17.604  0.00  0.00    +0.000 C 
BRANCH  12  13
ATOM     13  C   UNL     1       4.070   4.089  16.712  0.00  0.00    +0.000 C 
BRANCH  13  14
ATOM     14  C   UNL     1       5.221   4.538  15.819  0.00  0.00    +0.000 C 
BRANCH  14  15
ATOM     15  C   UNL     1       5.238   6.059  15.722  0.00  0.00    +0.000 C 
BRANCH  15  16
ATOM     16  C   UNL     1       5.592   6.701  17.056  0.00  0.00    +0.000 C 
BRANCH  16  17
ATOM     17  C   UNL     1       7.073   6.585  17.366  0.00  0.00    +0.000 C 
ATOM     18  O   UNL     1       7.916   7.262  16.767  0.00  0.00    +0.000 OA
BRANCH  17  19
ATOM     19  C   UNL     1       7.438   5.586  18.451  0.00  0.00    +0.000 C 
ATOM     20  F   UNL     1       6.369   5.240  19.223  0.00  0.00    +0.000 F 
ATOM     21  F   UNL     1       7.928   4.425  17.940  0.00  0.00    +0.000 F 
ATOM     22  F   UNL     1       8.379   6.071  19.305  0.00  0.00    +0.000 F 
ENDBRANCH  17  19
ENDBRANCH  16  17
ENDBRANCH  15  16
ENDBRANCH  14  15
ENDBRANCH  13  14
ENDBRANCH  12  13
ENDBRANCH   1  12
TORSDOF 15
ENDMDL
MODEL 2
REMARK VINA RESULT:      -5.7      2.349      4.436
REMARK  Name = 
REMARK  16 active torsions:
REMARK  status: ('A' for Active; 'I' for Inactive)
REMARK    1  A    between atoms: C_1  and  C_2
REMARK    2  A    between atoms: C_2  and  C_3
REMARK    3  A    between atoms: C_3  and  C_4
REMARK    4  A    between atoms: C_4  and  C_5
REMARK    5  A    between atoms: C_6  and  C_7
REMARK    6  A    between atoms: C_7  and  C_8
REMARK    7  A    between atoms: C_8  and  C_9
REMARK    8  A    between atoms: C_9  and  C_10
REMARK    9  A    between atoms: C_10  and  C_11
REMARK   10  A    between atoms: C_11  and  C_12
REMARK   11  A    between atoms: C_12  and  C_13
REMARK   12  A    between atoms: C_13  and  C_14
REMARK   13  A    between atoms: C_14  and  C_15
REMARK   14  A    between atoms: C_15  and  C_16
REMARK   15  A    between atoms: C_16  and  C_17
REMARK   16  A    between atoms: C_17  and  C_19
REMARK                            x       y       z     vdW  Elec       q    Type
REMARK                         _______ _______ _______ _____ _____    ______ ____
ROOT
ATOM      1  C   UNL     1       3.613   6.195  18.806  0.00  0.00    +0.000 C 
ENDROOT
BRANCH   1   2
ATOM      2  C   UNL     1       2.523   6.111  17.748  0.00  0.00    +0.000 C 
BRANCH   2   3
ATOM      3  C   UNL     1       1.797   4.771  17.785  0.00  0.00    +0.000 C 
BRANCH   3   4
ATOM      4  C   UNL     1       2.593   3.676  17.073  0.00  0.00    +0.000 C 
BRANCH   4   5
ATOM      5  C   UNL     1       2.424   2.276  17.671  0.00  0.00    +0.000 C 
BRANCH   5   7
ATOM      6  C   UNL     1       4.148   2.058  19.502  0.00  0.00    +0.000 C 
ATOM      7  C   UNL     1       3.697   1.746  18.277  0.00  0.00    +0.000 C 
BRANCH   6   8
ATOM      8  C   UNL     1       3.404   2.968  20.432  0.00  0.00    +0.000 C 
BRANCH   8   9
ATOM      9  C   UNL     1       2.737   2.229  21.585  0.00  0.00    +0.000 C 
BRANCH   9  11
ATOM     10  C   UNL     1       0.887   3.624  20.613  0.00  0.00    +0.000 C 
ATOM     11  C   UNL     1       1.322   2.768  21.786  0.00  0.00    +0.000 C 
ENDBRANCH   9  11
ENDBRANCH   8   9
ENDBRANCH   6   8
ENDBRANCH   5   7
ENDBRANCH   4   5
ENDBRANCH   3   4
ENDBRANCH   2   3
ENDBRANCH   1   2
BRANCH   1  12
ATOM     12  C   UNL     1       4.907   5.608  18.253  0.00  0.00    +0.000 C 
BRANCH  12  13
ATOM     13  C   UNL     1       5.878   5.308  19.382  0.00  0.00    +0.000 C 
BRANCH  13  14
ATOM     14  C   UNL     1       7.281   5.799  19.042  0.00  0.00    +0.000 C 
BRANCH  14  15
ATOM     15  C   UNL     1       7.407   6.006  17.537  0.00  0.00    +0.000 C 
BRANCH  15  16
ATOM     16  C   UNL     1       7.572   4.684  16.801  0.00  0.00    +0.000 C 
BRANCH  16  17
ATOM     17  C   UNL     1       7.164   4.791  15.343  0.00  0.00    +0.000 C 
ATOM     18  O   UNL     1       7.837   5.428  14.526  0.00  0.00    +0.000 OA
BRANCH  17  19
ATOM     19  C   UNL     1       5.881   4.067  14.969  0.00  0.00    +0.000 C 
ATOM     20  F   UNL     1       5.603   3.029  15.808  0.00  0.00    +0.000 F 
ATOM     21  F   UNL     1       4.796   4.887  15.009  0.00  0.00    +0.000 F 
ATOM     22  F   UNL     1       5.932   3.539  13.717  0.00  0.00    +0.000 F 
ENDBRANCH  17  19
ENDBRANCH  16  17
ENDBRANCH  15  16
ENDBRANCH  14  15
ENDBRANCH  13  14
ENDBRANCH  12  13
ENDBRANCH   1  12
TORSDOF 15
ENDMDL
MODEL 3
REMARK VINA RESULT:      -5.5      3.708      5.519
REMARK  Name = 
REMARK  16 active torsions:
REMARK  status: ('A' for Active; 'I' for Inactive)
REMARK    1  A    between atoms: C_1  and  C_2
REMARK    2  A    between atoms: C_2  and  C_3
REMARK    3  A    between atoms: C_3  and  C_4
REMARK    4  A    between atoms: C_4  and  C_5
REMARK    5  A    between atoms: C_6  and  C_7
REMARK    6  A    between atoms: C_7  and  C_8
REMARK    7  A    between atoms: C_8  and  C_9
REMARK    8  A    between atoms: C_9  and  C_10
REMARK    9  A    between atoms: C_10  and  C_11
REMARK   10  A    between atoms: C_11  and  C_12
REMARK   11  A    between atoms: C_12  and  C_13
REMARK   12  A    between atoms: C_13  and  C_14
REMARK   13  A    between atoms: C_14  and  C_15
REMARK   14  A    between atoms: C_15  and  C_16
REMARK   15  A    between atoms: C_16  and  C_17
REMARK   16  A    between atoms: C_17  and  C_19
REMARK                            x       y       z     vdW  Elec       q    Type
REMARK                         _______ _______ _______ _____ _____    ______ ____
ROOT
ATOM      1  C   UNL     1       4.903   6.206  17.779  0.00  0.00    +0.000 C 
ENDROOT
BRANCH   1   2
ATOM      2  C   UNL     1       5.570   5.534  18.969  0.00  0.00    +0.000 C 
BRANCH   2   3
ATOM      3  C   UNL     1       5.279   4.038  19.014  0.00  0.00    +0.000 C 
BRANCH   3   4
ATOM      4  C   UNL     1       4.828   3.508  17.652  0.00  0.00    +0.000 C 
BRANCH   4   5
ATOM      5  C   UNL     1       3.488   2.765  17.669  0.00  0.00    +0.000 C 
BRANCH   5   7
ATOM      6  C   UNL     1       1.524   4.304  18.049  0.00  0.00    +0.000 C 
ATOM      7  C   UNL     1       2.339   3.630  17.223  0.00  0.00    +0.000 C 
BRANCH   6   8
ATOM      8  C   UNL     1       1.688   4.291  19.538  0.00  0.00    +0.000 C 
BRANCH   8   9
ATOM      9  C   UNL     1       0.742   3.322  20.236  0.00  0.00    +0.000 C 
BRANCH   9  11
ATOM     10  C   UNL     1       2.907   2.671  21.332  0.00  0.00    +0.000 C 
ATOM     11  C   UNL     1       1.405   2.784  21.503  0.00  0.00    +0.000 C 
ENDBRANCH   9  11
ENDBRANCH   8   9
ENDBRANCH   6   8
ENDBRANCH   5   7
ENDBRANCH   4   5
ENDBRANCH   3   4
ENDBRANCH   2   3
ENDBRANCH   1   2
BRANCH   1  12
ATOM     12  C   UNL     1       5.968   6.814  16.874  0.00  0.00    +0.000 C 
BRANCH  12  13
ATOM     13  C   UNL     1       7.235   7.103  17.661  0.00  0.00    +0.000 C 
BRANCH  13  14
ATOM     14  C   UNL     1       7.675   8.551  17.480  0.00  0.00    +0.000 C 
BRANCH  14  15
ATOM     15  C   UNL     1       8.664   8.933  18.575  0.00  0.00    +0.000 C 
BRANCH  15  16
ATOM     16  C   UNL     1       9.132  10.374  18.429  0.00  0.00    +0.000 C 
BRANCH  16  17
ATOM     17  C   UNL     1       9.760  10.899  19.708  0.00  0.00    +0.000 C 
ATOM     18  O   UNL     1       9.263  10.669  20.815  0.00  0.00    +0.000 OA
BRANCH  17  19
ATOM     19  C   UNL     1      11.025  11.719  19.525  0.00  0.00    +0.000 C 
ATOM     20  F   UNL     1      11.901  11.143  18.654  0.00  0.00    +0.000 F 
ATOM     21  F   UNL     1      10.769  12.962  19.037  0.00  0.00    +0.000 F 
ATOM     22  F   UNL     1      11.706  11.886  20.691  0.00  0.00    +0.000 F 
ENDBRANCH  17  19
ENDBRANCH  16  17
ENDBRANCH  15  16
ENDBRANCH  14  15
ENDBRANCH  13  14
ENDBRANCH  12  13
ENDBRANCH   1  12
TORSDOF 15
ENDMDL
MODEL 4
REMARK VINA RESULT:      -5.5      4.010      7.384
REMARK  Name = 
REMARK  16 active torsions:
REMARK  status: ('A' for Active; 'I' for Inactive)
REMARK    1  A    between atoms: C_1  and  C_2
REMARK    2  A    between atoms: C_2  and  C_3
REMARK    3  A    between atoms: C_3  and  C_4
REMARK    4  A    between atoms: C_4  and  C_5
REMARK    5  A    between atoms: C_6  and  C_7
REMARK    6  A    between atoms: C_7  and  C_8
REMARK    7  A    between atoms: C_8  and  C_9
REMARK    8  A    between atoms: C_9  and  C_10
REMARK    9  A    between atoms: C_10  and  C_11
REMARK   10  A    between atoms: C_11  and  C_12
REMARK   11  A    between atoms: C_12  and  C_13
REMARK   12  A    between atoms: C_13  and  C_14
REMARK   13  A    between atoms: C_14  and  C_15
REMARK   14  A    between atoms: C_15  and  C_16
REMARK   15  A    between atoms: C_16  and  C_17
REMARK   16  A    between atoms: C_17  and  C_19
REMARK                            x       y       z     vdW  Elec       q    Type
REMARK                         _______ _______ _______ _____ _____    ______ ____
ROOT
ATOM      1  C   UNL     1       3.934   4.616  17.364  0.00  0.00    +0.000 C 
ENDROOT
BRANCH   1   2
ATOM      2  C   UNL     1       5.363   4.338  16.924  0.00  0.00    +0.000 C 
BRANCH   2   3
ATOM      3  C   UNL     1       5.462   4.124  15.417  0.00  0.00    +0.000 C 
BRANCH   3   4
ATOM      4  C   UNL     1       6.212   5.268  14.732  0.00  0.00    +0.000 C 
BRANCH   4   5
ATOM      5  C   UNL     1       7.520   4.854  14.051  0.00  0.00    +0.000 C 
BRANCH   5   7
ATOM      6  C   UNL     1       7.089   4.125  11.673  0.00  0.00    +0.000 C 
ATOM      7  C   UNL     1       7.486   5.052  12.558  0.00  0.00    +0.000 C 
BRANCH   6   8
ATOM      8  C   UNL     1       6.602   2.769  12.082  0.00  0.00    +0.000 C 
BRANCH   8   9
ATOM      9  C   UNL     1       5.338   2.341  11.347  0.00  0.00    +0.000 C 
BRANCH   9  11
ATOM     10  C   UNL     1       3.334   3.499  10.370  0.00  0.00    +0.000 C 
ATOM     11  C   UNL     1       4.236   3.373  11.581  0.00  0.00    +0.000 C 
ENDBRANCH   9  11
ENDBRANCH   8   9
ENDBRANCH   6   8
ENDBRANCH   5   7
ENDBRANCH   4   5
ENDBRANCH   3   4
ENDBRANCH   2   3
ENDBRANCH   1   2
BRANCH   1  12
ATOM     12  C   UNL     1       3.763   6.108  17.629  0.00  0.00    +0.000 C 
BRANCH  12  13
ATOM     13  C   UNL     1       2.393   6.389  18.221  0.00  0.00    +0.000 C 
BRANCH  13  14
ATOM     14  C   UNL     1       2.484   6.631  19.723  0.00  0.00    +0.000 C 
BRANCH  14  15
ATOM     15  C   UNL     1       2.514   5.299  20.462  0.00  0.00    +0.000 C 
BRANCH  15  16
ATOM     16  C   UNL     1       1.141   4.642  20.487  0.00  0.00    +0.000 C 
BRANCH  16  17
ATOM     17  C   UNL     1       1.229   3.136  20.318  0.00  0.00    +0.000 C 
ATOM     18  O   UNL     1       1.343   2.380  21.289  0.00  0.00    +0.000 OA
BRANCH  17  19
ATOM     19  C   UNL     1       1.170   2.635  18.885  0.00  0.00    +0.000 C 
ATOM     20  F   UNL     1       2.355   2.105  18.468  0.00  0.00    +0.000 F 
ATOM     21  F   UNL     1       0.239   1.658  18.718  0.00  0.00    +0.000 F 
ATOM     22  F   UNL     1       0.868   3.625  18.003  0.00  0.00    +0.000 F 
ENDBRANCH  17  19
ENDBRANCH  16  17
ENDBRANCH  15  16
ENDBRANCH  14  15
ENDBRANCH  13  14
ENDBRANCH  12  13
ENDBRANCH   1  12
TORSDOF 15
ENDMDL
MODEL 5
REMARK VINA RESULT:      -5.5      2.999      5.982
REMARK  Name = 
REMARK  16 active torsions:
REMARK  status: ('A' for Active; 'I' for Inactive)
REMARK    1  A    between atoms: C_1  and  C_2
REMARK    2  A    between atoms: C_2  and  C_3
REMARK    3  A    between atoms: C_3  and  C_4
REMARK    4  A    between atoms: C_4  and  C_5
REMARK    5  A    between atoms: C_6  and  C_7
REMARK    6  A    between atoms: C_7  and  C_8
REMARK    7  A    between atoms: C_8  and  C_9
REMARK    8  A    between atoms: C_9  and  C_10
REMARK    9  A    between atoms: C_10  and  C_11
REMARK   10  A    between atoms: C_11  and  C_12
REMARK   11  A    between atoms: C_12  and  C_13
REMARK   12  A    between atoms: C_13  and  C_14
REMARK   13  A    between atoms: C_14  and  C_15
REMARK   14  A    between atoms: C_15  and  C_16
REMARK   15  A    between atoms: C_16  and  C_17
REMARK   16  A    between atoms: C_17  and  C_19
REMARK                            x       y       z     vdW  Elec       q    Type
REMARK                         _______ _______ _______ _____ _____    ______ ____
ROOT
ATOM      1  C   UNL     1       1.737   2.448  18.158  0.00  0.00    +0.000 C 
ENDROOT
BRANCH   1   2
ATOM      2  C   UNL     1       2.597   3.541  17.545  0.00  0.00    +0.000 C 
BRANCH   2   3
ATOM      3  C   UNL     1       4.057   3.114  17.422  0.00  0.00    +0.000 C 
BRANCH   3   4
ATOM      4  C   UNL     1       4.977   3.994  18.269  0.00  0.00    +0.000 C 
BRANCH   4   5
ATOM      5  C   UNL     1       5.921   4.890  17.461  0.00  0.00    +0.000 C 
BRANCH   5   7
ATOM      6  C   UNL     1       5.315   5.339  15.052  0.00  0.00    +0.000 C 
ATOM      7  C   UNL     1       5.215   5.633  16.357  0.00  0.00    +0.000 C 
BRANCH   6   8
ATOM      8  C   UNL     1       6.138   4.197  14.539  0.00  0.00    +0.000 C 
BRANCH   8   9
ATOM      9  C   UNL     1       5.713   3.727  13.154  0.00  0.00    +0.000 C 
BRANCH   9  11
ATOM     10  C   UNL     1       7.594   5.085  12.191  0.00  0.00    +0.000 C 
ATOM     11  C   UNL     1       6.922   3.727  12.221  0.00  0.00    +0.000 C 
ENDBRANCH   9  11
ENDBRANCH   8   9
ENDBRANCH   6   8
ENDBRANCH   5   7
ENDBRANCH   4   5
ENDBRANCH   3   4
ENDBRANCH   2   3
ENDBRANCH   1   2
BRANCH   1  12
ATOM     12  C   UNL     1       0.914   3.028  19.303  0.00  0.00    +0.000 C 
BRANCH  12  13
ATOM     13  C   UNL     1       1.552   2.691  20.640  0.00  0.00    +0.000 C 
BRANCH  13  14
ATOM     14  C   UNL     1       2.102   3.942  21.316  0.00  0.00    +0.000 C 
BRANCH  14  15
ATOM     15  C   UNL     1       1.552   5.186  20.627  0.00  0.00    +0.000 C 
BRANCH  15  16
ATOM     16  C   UNL     1       2.670   6.125  20.193  0.00  0.00    +0.000 C 
BRANCH  16  17
ATOM     17  C   UNL     1       2.133   7.458  19.704  0.00  0.00    +0.000 C 
ATOM     18  O   UNL     1       1.567   8.248  20.467  0.00  0.00    +0.000 OA
BRANCH  17  19
ATOM     19  C   UNL     1       2.339   7.742  18.226  0.00  0.00    +0.000 C 
ATOM     20  F   UNL     1       2.112   6.648  17.446  0.00  0.00    +0.000 F 
ATOM     21  F   UNL     1       1.506   8.714  17.766  0.00  0.00    +0.000 F 
ATOM     22  F   UNL     1       3.608   8.147  17.950  0.00  0.00    +0.000 F 
ENDBRANCH  17  19
ENDBRANCH  16  17
ENDBRANCH  15  16
ENDBRANCH  14  15
ENDBRANCH  13  14
ENDBRANCH  12  13
ENDBRANCH   1  12
TORSDOF 15
ENDMDL
MODEL 6
REMARK VINA RESULT:      -5.4      3.829      6.752
REMARK  Name = 
REMARK  16 active torsions:
REMARK  status: ('A' for Active; 'I' for Inactive)
REMARK    1  A    between atoms: C_1  and  C_2
REMARK    2  A    between atoms: C_2  and  C_3
REMARK    3  A    between atoms: C_3  and  C_4
REMARK    4  A    between atoms: C_4  and  C_5
REMARK    5  A    between atoms: C_6  and  C_7
REMARK    6  A    between atoms: C_7  and  C_8
REMARK    7  A    between atoms: C_8  and  C_9
REMARK    8  A    between atoms: C_9  and  C_10
REMARK    9  A    between atoms: C_10  and  C_11
REMARK   10  A    between atoms: C_11  and  C_12
REMARK   11  A    between atoms: C_12  and  C_13
REMARK   12  A    between atoms: C_13  and  C_14
REMARK   13  A    between atoms: C_14  and  C_15
REMARK   14  A    between atoms: C_15  and  C_16
REMARK   15  A    between atoms: C_16  and  C_17
REMARK   16  A    between atoms: C_17  and  C_19
REMARK                            x       y       z     vdW  Elec       q    Type
REMARK                         _______ _______ _______ _____ _____    ______ ____
ROOT
ATOM      1  C   UNL     1       4.048   5.796  17.072  0.00  0.00    +0.000 C 
ENDROOT
BRANCH   1   2
ATOM      2  C   UNL     1       5.217   6.574  17.654  0.00  0.00    +0.000 C 
BRANCH   2   3
ATOM      3  C   UNL     1       6.532   6.225  16.965  0.00  0.00    +0.000 C 
BRANCH   3   4
ATOM      4  C   UNL     1       7.650   5.971  17.977  0.00  0.00    +0.000 C 
BRANCH   4   5
ATOM      5  C   UNL     1       8.203   7.233  18.646  0.00  0.00    +0.000 C 
BRANCH   5   7
ATOM      6  C   UNL     1       8.511   9.679  18.107  0.00  0.00    +0.000 C 
ATOM      7  C   UNL     1       8.066   8.457  17.779  0.00  0.00    +0.000 C 
BRANCH   6   8
ATOM      8  C   UNL     1       9.234   9.962  19.388  0.00  0.00    +0.000 C 
BRANCH   8   9
ATOM      9  C   UNL     1      10.144  11.181  19.306  0.00  0.00    +0.000 C 
BRANCH   9  11
ATOM     10  C   UNL     1      11.197  12.444  17.407  0.00  0.00    +0.000 C 
ATOM     11  C   UNL     1       9.902  11.911  17.987  0.00  0.00    +0.000 C 
ENDBRANCH   9  11
ENDBRANCH   8   9
ENDBRANCH   6   8
ENDBRANCH   5   7
ENDBRANCH   4   5
ENDBRANCH   3   4
ENDBRANCH   2   3
ENDBRANCH   1   2
BRANCH   1  12
ATOM     12  C   UNL     1       4.520   4.413  16.638  0.00  0.00    +0.000 C 
BRANCH  12  13
ATOM     13  C   UNL     1       3.931   3.342  17.540  0.00  0.00    +0.000 C 
BRANCH  13  14
ATOM     14  C   UNL     1       2.429   3.202  17.315  0.00  0.00    +0.000 C 
BRANCH  14  15
ATOM     15  C   UNL     1       1.841   2.237  18.337  0.00  0.00    +0.000 C 
BRANCH  15  16
ATOM     16  C   UNL     1       0.832   2.929  19.244  0.00  0.00    +0.000 C 
BRANCH  16  17
ATOM     17  C   UNL     1       1.505   3.865  20.232  0.00  0.00    +0.000 C 
ATOM     18  O   UNL     1       1.549   5.086  20.041  0.00  0.00    +0.000 OA
BRANCH  17  19
ATOM     19  C   UNL     1       2.114   3.198  21.453  0.00  0.00    +0.000 C 
ATOM     20  F   UNL     1       2.491   4.097  22.406  0.00  0.00    +0.000 F 
ATOM     21  F   UNL     1       1.247   2.345  22.061  0.00  0.00    +0.000 F 
ATOM     22  F   UNL     1       3.228   2.479  21.149  0.00  0.00    +0.000 F 
ENDBRANCH  17  19
ENDBRANCH  16  17
ENDBRANCH  15  16
ENDBRANCH  14  15
ENDBRANCH  13  14
ENDBRANCH  12  13
ENDBRANCH   1  12
TORSDOF 15
ENDMDL
MODEL 7
REMARK VINA RESULT:      -5.3      3.547      6.739
REMARK  Name = 
REMARK  16 active torsions:
REMARK  status: ('A' for Active; 'I' for Inactive)
REMARK    1  A    between atoms: C_1  and  C_2
REMARK    2  A    between atoms: C_2  and  C_3
REMARK    3  A    between atoms: C_3  and  C_4
REMARK    4  A    between atoms: C_4  and  C_5
REMARK    5  A    between atoms: C_6  and  C_7
REMARK    6  A    between atoms: C_7  and  C_8
REMARK    7  A    between atoms: C_8  and  C_9
REMARK    8  A    between atoms: C_9  and  C_10
REMARK    9  A    between atoms: C_10  and  C_11
REMARK   10  A    between atoms: C_11  and  C_12
REMARK   11  A    between atoms: C_12  and  C_13
REMARK   12  A    between atoms: C_13  and  C_14
REMARK   13  A    between atoms: C_14  and  C_15
REMARK   14  A    between atoms: C_15  and  C_16
REMARK   15  A    between atoms: C_16  and  C_17
REMARK   16  A    between atoms: C_17  and  C_19
REMARK                            x       y       z     vdW  Elec       q    Type
REMARK                         _______ _______ _______ _____ _____    ______ ____
ROOT
ATOM      1  C   UNL     1       5.339   3.893  19.394  0.00  0.00    +0.000 C 
ENDROOT
BRANCH   1   2
ATOM      2  C   UNL     1       4.719   5.257  19.134  0.00  0.00    +0.000 C 
BRANCH   2   3
ATOM      3  C   UNL     1       5.589   6.111  18.217  0.00  0.00    +0.000 C 
BRANCH   3   4
ATOM      4  C   UNL     1       4.913   6.361  16.868  0.00  0.00    +0.000 C 
BRANCH   4   5
ATOM      5  C   UNL     1       5.136   5.255  15.830  0.00  0.00    +0.000 C 
BRANCH   5   7
ATOM      6  C   UNL     1       6.765   4.713  13.981  0.00  0.00    +0.000 C 
ATOM      7  C   UNL     1       6.415   5.434  15.057  0.00  0.00    +0.000 C 
BRANCH   6   8
ATOM      8  C   UNL     1       5.889   3.644  13.402  0.00  0.00    +0.000 C 
BRANCH   8   9
ATOM      9  C   UNL     1       6.445   3.046  12.115  0.00  0.00    +0.000 C 
BRANCH   9  11
ATOM     10  C   UNL     1       4.066   3.304  11.350  0.00  0.00    +0.000 C 
ATOM     11  C   UNL     1       5.306   2.434  11.303  0.00  0.00    +0.000 C 
ENDBRANCH   9  11
ENDBRANCH   8   9
ENDBRANCH   6   8
ENDBRANCH   5   7
ENDBRANCH   4   5
ENDBRANCH   3   4
ENDBRANCH   2   3
ENDBRANCH   1   2
BRANCH   1  12
ATOM     12  C   UNL     1       4.289   2.807  19.187  0.00  0.00    +0.000 C 
BRANCH  12  13
ATOM     13  C   UNL     1       3.898   2.186  20.516  0.00  0.00    +0.000 C 
BRANCH  13  14
ATOM     14  C   UNL     1       2.983   3.115  21.307  0.00  0.00    +0.000 C 
BRANCH  14  15
ATOM     15  C   UNL     1       1.527   2.739  21.062  0.00  0.00    +0.000 C 
BRANCH  15  16
ATOM     16  C   UNL     1       0.842   3.727  20.128  0.00  0.00    +0.000 C 
BRANCH  16  17
ATOM     17  C   UNL     1       0.824   3.232  18.693  0.00  0.00    +0.000 C 
ATOM     18  O   UNL     1       0.354   2.129  18.394  0.00  0.00    +0.000 OA
BRANCH  17  19
ATOM     19  C   UNL     1       1.420   4.181  17.667  0.00  0.00    +0.000 C 
ATOM     20  F   UNL     1       1.952   5.299  18.237  0.00  0.00    +0.000 F 
ATOM     21  F   UNL     1       2.425   3.605  16.954  0.00  0.00    +0.000 F 
ATOM     22  F   UNL     1       0.497   4.617  16.768  0.00  0.00    +0.000 F 
ENDBRANCH  17  19
ENDBRANCH  16  17
ENDBRANCH  15  16
ENDBRANCH  14  15
ENDBRANCH  13  14
ENDBRANCH  12  13
ENDBRANCH   1  12
TORSDOF 15
ENDMDL
MODEL 8
REMARK VINA RESULT:      -5.3      1.800      2.407
REMARK  Name = 
REMARK  16 active torsions:
REMARK  status: ('A' for Active; 'I' for Inactive)
REMARK    1  A    between atoms: C_1  and  C_2
REMARK    2  A    between atoms: C_2  and  C_3
REMARK    3  A    between atoms: C_3  and  C_4
REMARK    4  A    between atoms: C_4  and  C_5
REMARK    5  A    between atoms: C_6  and  C_7
REMARK    6  A    between atoms: C_7  and  C_8
REMARK    7  A    between atoms: C_8  and  C_9
REMARK    8  A    between atoms: C_9  and  C_10
REMARK    9  A    between atoms: C_10  and  C_11
REMARK   10  A    between atoms: C_11  and  C_12
REMARK   11  A    between atoms: C_12  and  C_13
REMARK   12  A    between atoms: C_13  and  C_14
REMARK   13  A    between atoms: C_14  and  C_15
REMARK   14  A    between atoms: C_15  and  C_16
REMARK   15  A    between atoms: C_16  and  C_17
REMARK   16  A    between atoms: C_17  and  C_19
REMARK                            x       y       z     vdW  Elec       q    Type
REMARK                         _______ _______ _______ _____ _____    ______ ____
ROOT
ATOM      1  C   UNL     1       2.635   2.040  19.215  0.00  0.00    +0.000 C 
ENDROOT
BRANCH   1   2
ATOM      2  C   UNL     1       1.574   2.539  20.183  0.00  0.00    +0.000 C 
BRANCH   2   3
ATOM      3  C   UNL     1       2.191   3.126  21.449  0.00  0.00    +0.000 C 
BRANCH   3   4
ATOM      4  C   UNL     1       2.479   4.620  21.298  0.00  0.00    +0.000 C 
BRANCH   4   5
ATOM      5  C   UNL     1       1.577   5.344  20.294  0.00  0.00    +0.000 C 
BRANCH   5   7
ATOM      6  C   UNL     1       1.887   7.848  20.242  0.00  0.00    +0.000 C 
ATOM      7  C   UNL     1       2.186   6.623  19.783  0.00  0.00    +0.000 C 
BRANCH   6   8
ATOM      8  C   UNL     1       0.912   8.082  21.355  0.00  0.00    +0.000 C 
BRANCH   8   9
ATOM      9  C   UNL     1      -0.000   9.277  21.111  0.00  0.00    +0.000 C 
BRANCH   9  11
ATOM     10  C   UNL     1       0.494  11.357  19.792  0.00  0.00    +0.000 C 
ATOM     11  C   UNL     1       0.278   9.858  19.727  0.00  0.00    +0.000 C 
ENDBRANCH   9  11
ENDBRANCH   8   9
ENDBRANCH   6   8
ENDBRANCH   5   7
ENDBRANCH   4   5
ENDBRANCH   3   4
ENDBRANCH   2   3
ENDBRANCH   1   2
BRANCH   1  12
ATOM     12  C   UNL     1       2.186   2.308  17.783  0.00  0.00    +0.000 C 
BRANCH  12  13
ATOM     13  C   UNL     1       2.974   3.461  17.186  0.00  0.00    +0.000 C 
BRANCH  13  14
ATOM     14  C   UNL     1       4.378   3.529  17.775  0.00  0.00    +0.000 C 
BRANCH  14  15
ATOM     15  C   UNL     1       4.830   4.982  17.871  0.00  0.00    +0.000 C 
BRANCH  15  16
ATOM     16  C   UNL     1       5.566   5.254  19.176  0.00  0.00    +0.000 C 
BRANCH  16  17
ATOM     17  C   UNL     1       6.993   5.713  18.937  0.00  0.00    +0.000 C 
ATOM     18  O   UNL     1       7.921   5.353  19.670  0.00  0.00    +0.000 OA
BRANCH  17  19
ATOM     19  C   UNL     1       7.192   6.636  17.747  0.00  0.00    +0.000 C 
ATOM     20  F   UNL     1       6.062   7.327  17.427  0.00  0.00    +0.000 F 
ATOM     21  F   UNL     1       8.156   7.569  17.973  0.00  0.00    +0.000 F 
ATOM     22  F   UNL     1       7.553   5.959  16.623  0.00  0.00    +0.000 F 
ENDBRANCH  17  19
ENDBRANCH  16  17
ENDBRANCH  15  16
ENDBRANCH  14  15
ENDBRANCH  13  14
ENDBRANCH  12  13
ENDBRANCH   1  12
TORSDOF 15
ENDMDL
MODEL 9
REMARK VINA RESULT:      -5.3      1.403      4.007
REMARK  Name = 
REMARK  16 active torsions:
REMARK  status: ('A' for Active; 'I' for Inactive)
REMARK    1  A    between atoms: C_1  and  C_2
REMARK    2  A    between atoms: C_2  and  C_3
REMARK    3  A    between atoms: C_3  and  C_4
REMARK    4  A    between atoms: C_4  and  C_5
REMARK    5  A    between atoms: C_6  and  C_7
REMARK    6  A    between atoms: C_7  and  C_8
REMARK    7  A    between atoms: C_8  and  C_9
REMARK    8  A    between atoms: C_9  and  C_10
REMARK    9  A    between atoms: C_10  and  C_11
REMARK   10  A    between atoms: C_11  and  C_12
REMARK   11  A    between atoms: C_12  and  C_13
REMARK   12  A    between atoms: C_13  and  C_14
REMARK   13  A    between atoms: C_14  and  C_15
REMARK   14  A    between atoms: C_15  and  C_16
REMARK   15  A    between atoms: C_16  and  C_17
REMARK   16  A    between atoms: C_17  and  C_19
REMARK                            x       y       z     vdW  Elec       q    Type
REMARK                         _______ _______ _______ _____ _____    ______ ____
ROOT
ATOM      1  C   UNL     1       2.862   6.209  19.913  0.00  0.00    +0.000 C 
ENDROOT
BRANCH   1   2
ATOM      2  C   UNL     1       1.830   5.704  20.908  0.00  0.00    +0.000 C 
BRANCH   2   3
ATOM      3  C   UNL     1       1.777   4.180  20.948  0.00  0.00    +0.000 C 
BRANCH   3   4
ATOM      4  C   UNL     1       0.492   3.642  20.317  0.00  0.00    +0.000 C 
BRANCH   4   5
ATOM      5  C   UNL     1       0.704   2.819  19.043  0.00  0.00    +0.000 C 
BRANCH   5   7
ATOM      6  C   UNL     1       2.582   3.194  17.400  0.00  0.00    +0.000 C 
ATOM      7  C   UNL     1       1.433   3.585  17.971  0.00  0.00    +0.000 C 
BRANCH   6   8
ATOM      8  C   UNL     1       3.268   1.911  17.754  0.00  0.00    +0.000 C 
BRANCH   8   9
ATOM      9  C   UNL     1       4.551   2.117  18.550  0.00  0.00    +0.000 C 
BRANCH   9  11
ATOM     10  C   UNL     1       5.074   1.288  20.863  0.00  0.00    +0.000 C 
ATOM     11  C   UNL     1       4.217   2.226  20.036  0.00  0.00    +0.000 C 
ENDBRANCH   9  11
ENDBRANCH   8   9
ENDBRANCH   6   8
ENDBRANCH   5   7
ENDBRANCH   4   5
ENDBRANCH   3   4
ENDBRANCH   2   3
ENDBRANCH   1   2
BRANCH   1  12
ATOM     12  C   UNL     1       2.236   7.280  19.026  0.00  0.00    +0.000 C 
BRANCH  12  13
ATOM     13  C   UNL     1       3.095   7.521  17.796  0.00  0.00    +0.000 C 
BRANCH  13  14
ATOM     14  C   UNL     1       4.045   6.353  17.555  0.00  0.00    +0.000 C 
BRANCH  14  15
ATOM     15  C   UNL     1       4.793   6.558  16.243  0.00  0.00    +0.000 C 
BRANCH  15  16
ATOM     16  C   UNL     1       5.385   5.254  15.726  0.00  0.00    +0.000 C 
BRANCH  16  17
ATOM     17  C   UNL     1       6.882   5.174  15.969  0.00  0.00    +0.000 C 
ATOM     18  O   UNL     1       7.694   5.257  15.041  0.00  0.00    +0.000 OA
BRANCH  17  19
ATOM     19  C   UNL     1       7.300   4.987  17.417  0.00  0.00    +0.000 C 
ATOM     20  F   UNL     1       7.661   6.159  18.012  0.00  0.00    +0.000 F 
ATOM     21  F   UNL     1       6.301   4.467  18.180  0.00  0.00    +0.000 F 
ATOM     22  F   UNL     1       8.368   4.154  17.543  0.00  0.00    +0.000 F 
ENDBRANCH  17  19
ENDBRANCH  16  17
ENDBRANCH  15  16
ENDBRANCH  14  15
ENDBRANCH  13  14
ENDBRANCH  12  13
ENDBRANCH   1  12
TORSDOF 15
ENDMDL
