MODEL 1
REMARK VINA RESULT:      -9.2      0.000      0.000
REMARK  Name = 
REMARK  4 active torsions:
REMARK  status: ('A' for Active; 'I' for Inactive)
REMARK    1  A    between atoms: C_1  and  O_2
REMARK    2  A    between atoms: O_2  and  C_3
REMARK    3  A    between atoms: C_7  and  C_8
REMARK    4  A    between atoms: C_21  and  C_22
REMARK                            x       y       z     vdW  Elec       q    Type
REMARK                         _______ _______ _______ _____ _____    ______ ____
ROOT
ATOM      1  C   UNL     1       6.376   5.500  14.977  0.00  0.00    +0.000 C 
ATOM      2  N   UNL     1       7.517   5.544  15.576  0.00  0.00    +0.000 NA
ATOM      3  C   UNL     1       7.640   5.944  16.951  0.00  0.00    +0.000 C 
ATOM      4  C   UNL     1       6.833   4.963  17.754  0.00  0.00    +0.000 C 
ATOM      5  O   UNL     1       7.369   4.191  18.554  0.00  0.00    +0.000 OA
ATOM      6  N   UNL     1       5.442   5.050  17.594  0.00  0.00    +0.000 N 
ATOM      7  C   UNL     1       4.738   4.445  18.701  0.00  0.00    +0.000 C 
ATOM      8  C   UNL     1       4.642   5.594  19.661  0.00  0.00    +0.000 C 
ATOM      9  C   UNL     1       3.449   6.279  19.089  0.00  0.00    +0.000 A 
ATOM     10  C   UNL     1       3.650   6.827  17.780  0.00  0.00    +0.000 A 
ATOM     11  C   UNL     1       2.913   7.994  17.600  0.00  0.00    +0.000 A 
ATOM     12  C   UNL     1       1.924   8.380  18.574  0.00  0.00    +0.000 A 
ATOM     13  C   UNL     1       1.541   7.516  19.625  0.00  0.00    +0.000 A 
ATOM     14  C   UNL     1       2.243   6.343  19.841  0.00  0.00    +0.000 A 
ATOM     15  C   UNL     1       4.775   6.087  16.886  0.00  0.00    +0.000 C 
ATOM     16  C   UNL     1       5.082   6.158  15.551  0.00  0.00    +0.000 C 
ENDROOT
BRANCH   1  21
ATOM     17  C   UNL     1       6.041   3.002  11.998  0.00  0.00    +0.000 A 
ATOM     18  C   UNL     1       7.045   3.488  11.157  0.00  0.00    +0.000 A 
ATOM     19  C   UNL     1       7.784   4.586  11.535  0.00  0.00    +0.000 A 
ATOM     20  C   UNL     1       7.493   5.205  12.757  0.00  0.00    +0.000 A 
ATOM     21  C   UNL     1       6.482   4.751  13.639  0.00  0.00    +0.000 A 
ATOM     22  C   UNL     1       5.751   3.634  13.235  0.00  0.00    +0.000 A 
BRANCH  17  24
ATOM     23  C   UNL     1       6.283   0.820  11.091  0.00  0.00    +0.000 C 
ATOM     24  O   UNL     1       5.439   1.884  11.490  0.00  0.00    +0.000 OA
ENDBRANCH  17  24
ENDBRANCH   1  21
BRANCH  14  25
ATOM     25  C   UNL     1       1.705   5.092  20.522  0.00  0.00    +0.000 A 
ATOM     26  C   UNL     1       0.828   4.237  19.839  0.00  0.00    +0.000 A 
ATOM     27  C   UNL     1       0.753   2.862  20.154  0.00  0.00    +0.000 A 
ATOM     28  C   UNL     1       1.550   2.302  21.161  0.00  0.00    +0.000 A 
ATOM     29  C   UNL     1       2.300   3.139  21.945  0.00  0.00    +0.000 A 
ATOM     30  C   UNL     1       2.277   4.511  21.681  0.00  0.00    +0.000 A 
ENDBRANCH  14  25
TORSDOF 3
ENDMDL
MODEL 2
REMARK VINA RESULT:      -8.0      5.888      8.910
REMARK  Name = 
REMARK  4 active torsions:
REMARK  status: ('A' for Active; 'I' for Inactive)
REMARK    1  A    between atoms: C_1  and  O_2
REMARK    2  A    between atoms: O_2  and  C_3
REMARK    3  A    between atoms: C_7  and  C_8
REMARK    4  A    between atoms: C_21  and  C_22
REMARK                            x       y       z     vdW  Elec       q    Type
REMARK                         _______ _______ _______ _____ _____    ______ ____
ROOT
ATOM      1  C   UNL     1       1.617   9.441  18.069  0.00  0.00    +0.000 C 
ATOM      2  N   UNL     1       2.448  10.376  17.753  0.00  0.00    +0.000 NA
ATOM      3  C   UNL     1       2.064  11.761  17.734  0.00  0.00    +0.000 C 
ATOM      4  C   UNL     1       1.630  12.102  19.132  0.00  0.00    +0.000 C 
ATOM      5  O   UNL     1       2.262  12.905  19.824  0.00  0.00    +0.000 OA
ATOM      6  N   UNL     1       0.426  11.516  19.551  0.00  0.00    +0.000 N 
ATOM      7  C   UNL     1      -0.157  12.231  20.662  0.00  0.00    +0.000 C 
ATOM      8  C   UNL     1      -0.976  13.271  19.956  0.00  0.00    +0.000 C 
ATOM      9  C   UNL     1      -2.186  12.457  19.658  0.00  0.00    +0.000 A 
ATOM     10  C   UNL     1      -1.966  11.381  18.736  0.00  0.00    +0.000 A 
ATOM     11  C   UNL     1      -3.089  11.151  17.947  0.00  0.00    +0.000 A 
ATOM     12  C   UNL     1      -4.337  11.801  18.260  0.00  0.00    +0.000 A 
ATOM     13  C   UNL     1      -4.513  12.529  19.460  0.00  0.00    +0.000 A 
ATOM     14  C   UNL     1      -3.426  12.779  20.278  0.00  0.00    +0.000 A 
ATOM     15  C   UNL     1      -0.460  10.797  18.703  0.00  0.00    +0.000 C 
ATOM     16  C   UNL     1       0.074   9.660  18.151  0.00  0.00    +0.000 C 
ENDROOT
BRANCH   1  21
ATOM     17  C   UNL     1       2.976   6.075  19.501  0.00  0.00    +0.000 A 
ATOM     18  C   UNL     1       3.998   5.815  18.585  0.00  0.00    +0.000 A 
ATOM     19  C   UNL     1       4.223   6.684  17.542  0.00  0.00    +0.000 A 
ATOM     20  C   UNL     1       3.399   7.809  17.415  0.00  0.00    +0.000 A 
ATOM     21  C   UNL     1       2.348   8.111  18.316  0.00  0.00    +0.000 A 
ATOM     22  C   UNL     1       2.145   7.217  19.367  0.00  0.00    +0.000 A 
BRANCH  17  24
ATOM     23  C   UNL     1       1.660   4.549  20.759  0.00  0.00    +0.000 C 
ATOM     24  O   UNL     1       2.921   5.137  20.494  0.00  0.00    +0.000 OA
ENDBRANCH  17  24
ENDBRANCH   1  21
BRANCH  14  25
ATOM     25  C   UNL     1      -3.477  13.052  21.775  0.00  0.00    +0.000 A 
ATOM     26  C   UNL     1      -4.414  13.957  22.296  0.00  0.00    +0.000 A 
ATOM     27  C   UNL     1      -4.889  13.838  23.620  0.00  0.00    +0.000 A 
ATOM     28  C   UNL     1      -4.441  12.813  24.464  0.00  0.00    +0.000 A 
ATOM     29  C   UNL     1      -3.417  12.010  24.034  0.00  0.00    +0.000 A 
ATOM     30  C   UNL     1      -2.890  12.216  22.756  0.00  0.00    +0.000 A 
ENDBRANCH  14  25
TORSDOF 3
ENDMDL
MODEL 3
REMARK VINA RESULT:      -8.0      5.944      8.979
REMARK  Name = 
REMARK  4 active torsions:
REMARK  status: ('A' for Active; 'I' for Inactive)
REMARK    1  A    between atoms: C_1  and  O_2
REMARK    2  A    between atoms: O_2  and  C_3
REMARK    3  A    between atoms: C_7  and  C_8
REMARK    4  A    between atoms: C_21  and  C_22
REMARK                            x       y       z     vdW  Elec       q    Type
REMARK                         _______ _______ _______ _____ _____    ______ ____
ROOT
ATOM      1  C   UNL     1       1.636   9.074  18.086  0.00  0.00    +0.000 C 
ATOM      2  N   UNL     1       2.382  10.091  18.359  0.00  0.00    +0.000 NA
ATOM      3  C   UNL     1       1.867  11.433  18.367  0.00  0.00    +0.000 C 
ATOM      4  C   UNL     1       0.787  11.469  19.411  0.00  0.00    +0.000 C 
ATOM      5  O   UNL     1       0.905  12.146  20.435  0.00  0.00    +0.000 OA
ATOM      6  N   UNL     1      -0.381  10.757  19.098  0.00  0.00    +0.000 N 
ATOM      7  C   UNL     1      -1.508  11.209  19.879  0.00  0.00    +0.000 C 
ATOM      8  C   UNL     1      -2.032  12.330  19.031  0.00  0.00    +0.000 C 
ATOM      9  C   UNL     1      -2.838  11.537  18.063  0.00  0.00    +0.000 A 
ATOM     10  C   UNL     1      -2.067  10.677  17.213  0.00  0.00    +0.000 A 
ATOM     11  C   UNL     1      -2.647  10.557  15.953  0.00  0.00    +0.000 A 
ATOM     12  C   UNL     1      -3.971  11.074  15.715  0.00  0.00    +0.000 A 
ATOM     13  C   UNL     1      -4.786  11.540  16.773  0.00  0.00    +0.000 A 
ATOM     14  C   UNL     1      -4.255  11.672  18.043  0.00  0.00    +0.000 A 
ATOM     15  C   UNL     1      -0.658  10.181  17.828  0.00  0.00    +0.000 C 
ATOM     16  C   UNL     1       0.221   9.202  17.439  0.00  0.00    +0.000 C 
ENDROOT
BRANCH   1  21
ATOM     17  C   UNL     1       2.862   5.778  19.776  0.00  0.00    +0.000 A 
ATOM     18  C   UNL     1       3.952   5.474  18.956  0.00  0.00    +0.000 A 
ATOM     19  C   UNL     1       4.261   6.293  17.895  0.00  0.00    +0.000 A 
ATOM     20  C   UNL     1       3.456   7.411  17.650  0.00  0.00    +0.000 A 
ATOM     21  C   UNL     1       2.339   7.757  18.451  0.00  0.00    +0.000 A 
ATOM     22  C   UNL     1       2.050   6.914  19.524  0.00  0.00    +0.000 A 
BRANCH  17  24
ATOM     23  C   UNL     1       1.569   4.071  20.804  0.00  0.00    +0.000 C 
ATOM     24  O   UNL     1       2.726   4.888  20.805  0.00  0.00    +0.000 OA
ENDBRANCH  17  24
ENDBRANCH   1  21
BRANCH  14  25
ATOM     25  C   UNL     1      -5.039  11.640  19.348  0.00  0.00    +0.000 A 
ATOM     26  C   UNL     1      -4.906  12.682  20.277  0.00  0.00    +0.000 A 
ATOM     27  C   UNL     1      -5.952  13.003  21.170  0.00  0.00    +0.000 A 
ATOM     28  C   UNL     1      -7.159  12.293  21.162  0.00  0.00    +0.000 A 
ATOM     29  C   UNL     1      -7.258  11.176  20.374  0.00  0.00    +0.000 A 
ATOM     30  C   UNL     1      -6.169  10.816  19.575  0.00  0.00    +0.000 A 
ENDBRANCH  14  25
TORSDOF 3
ENDMDL
MODEL 4
REMARK VINA RESULT:      -8.0      5.915      8.810
REMARK  Name = 
REMARK  4 active torsions:
REMARK  status: ('A' for Active; 'I' for Inactive)
REMARK    1  A    between atoms: C_1  and  O_2
REMARK    2  A    between atoms: O_2  and  C_3
REMARK    3  A    between atoms: C_7  and  C_8
REMARK    4  A    between atoms: C_21  and  C_22
REMARK                            x       y       z     vdW  Elec       q    Type
REMARK                         _______ _______ _______ _____ _____    ______ ____
ROOT
ATOM      1  C   UNL     1       1.653   9.526  18.102  0.00  0.00    +0.000 C 
ATOM      2  N   UNL     1       2.470  10.464  17.760  0.00  0.00    +0.000 NA
ATOM      3  C   UNL     1       2.075  11.846  17.731  0.00  0.00    +0.000 C 
ATOM      4  C   UNL     1       1.664  12.200  19.132  0.00  0.00    +0.000 C 
ATOM      5  O   UNL     1       2.302  13.017  19.802  0.00  0.00    +0.000 OA
ATOM      6  N   UNL     1       0.473  11.611  19.581  0.00  0.00    +0.000 N 
ATOM      7  C   UNL     1      -0.095  12.335  20.694  0.00  0.00    +0.000 C 
ATOM      8  C   UNL     1      -0.935  13.360  19.990  0.00  0.00    +0.000 C 
ATOM      9  C   UNL     1      -2.144  12.533  19.724  0.00  0.00    +0.000 A 
ATOM     10  C   UNL     1      -1.932  11.448  18.812  0.00  0.00    +0.000 A 
ATOM     11  C   UNL     1      -3.068  11.200  18.046  0.00  0.00    +0.000 A 
ATOM     12  C   UNL     1      -4.315  11.844  18.375  0.00  0.00    +0.000 A 
ATOM     13  C   UNL     1      -4.474  12.585  19.569  0.00  0.00    +0.000 A 
ATOM     14  C   UNL     1      -3.374  12.853  20.364  0.00  0.00    +0.000 A 
ATOM     15  C   UNL     1      -0.422  10.875  18.758  0.00  0.00    +0.000 C 
ATOM     16  C   UNL     1       0.110   9.735  18.210  0.00  0.00    +0.000 C 
ENDROOT
BRANCH   1  21
ATOM     17  C   UNL     1       3.834   6.302  17.843  0.00  0.00    +0.000 A 
ATOM     18  C   UNL     1       3.476   5.668  19.036  0.00  0.00    +0.000 A 
ATOM     19  C   UNL     1       2.580   6.270  19.890  0.00  0.00    +0.000 A 
ATOM     20  C   UNL     1       2.061   7.524  19.547  0.00  0.00    +0.000 A 
ATOM     21  C   UNL     1       2.399   8.206  18.352  0.00  0.00    +0.000 A 
ATOM     22  C   UNL     1       3.304   7.572  17.501  0.00  0.00    +0.000 A 
BRANCH  17  24
ATOM     23  C   UNL     1       4.456   4.153  17.045  0.00  0.00    +0.000 C 
ATOM     24  O   UNL     1       4.696   5.547  17.096  0.00  0.00    +0.000 OA
ENDBRANCH  17  24
ENDBRANCH   1  21
BRANCH  14  25
ATOM     25  C   UNL     1      -3.400  13.145  21.858  0.00  0.00    +0.000 A 
ATOM     26  C   UNL     1      -4.131  14.235  22.352  0.00  0.00    +0.000 A 
ATOM     27  C   UNL     1      -4.651  14.233  23.665  0.00  0.00    +0.000 A 
ATOM     28  C   UNL     1      -4.455  13.143  24.523  0.00  0.00    +0.000 A 
ATOM     29  C   UNL     1      -3.618  12.135  24.122  0.00  0.00    +0.000 A 
ATOM     30  C   UNL     1      -3.030  12.210  22.856  0.00  0.00    +0.000 A 
ENDBRANCH  14  25
TORSDOF 3
ENDMDL
MODEL 5
REMARK VINA RESULT:      -7.9      5.874      8.842
REMARK  Name = 
REMARK  4 active torsions:
REMARK  status: ('A' for Active; 'I' for Inactive)
REMARK    1  A    between atoms: C_1  and  O_2
REMARK    2  A    between atoms: O_2  and  C_3
REMARK    3  A    between atoms: C_7  and  C_8
REMARK    4  A    between atoms: C_21  and  C_22
REMARK                            x       y       z     vdW  Elec       q    Type
REMARK                         _______ _______ _______ _____ _____    ______ ____
ROOT
ATOM      1  C   UNL     1       1.680   9.036  18.170  0.00  0.00    +0.000 C 
ATOM      2  N   UNL     1       2.424  10.067  18.389  0.00  0.00    +0.000 NA
ATOM      3  C   UNL     1       1.910  11.408  18.318  0.00  0.00    +0.000 C 
ATOM      4  C   UNL     1       0.825  11.502  19.353  0.00  0.00    +0.000 C 
ATOM      5  O   UNL     1       0.938  12.237  20.338  0.00  0.00    +0.000 OA
ATOM      6  N   UNL     1      -0.342  10.774  19.075  0.00  0.00    +0.000 N 
ATOM      7  C   UNL     1      -1.472  11.270  19.824  0.00  0.00    +0.000 C 
ATOM      8  C   UNL     1      -1.992  12.341  18.912  0.00  0.00    +0.000 C 
ATOM      9  C   UNL     1      -2.794  11.493  17.986  0.00  0.00    +0.000 A 
ATOM     10  C   UNL     1      -2.019  10.587  17.190  0.00  0.00    +0.000 A 
ATOM     11  C   UNL     1      -2.593  10.396  15.936  0.00  0.00    +0.000 A 
ATOM     12  C   UNL     1      -3.916  10.898  15.664  0.00  0.00    +0.000 A 
ATOM     13  C   UNL     1      -4.735  11.424  16.689  0.00  0.00    +0.000 A 
ATOM     14  C   UNL     1      -4.210  11.627  17.953  0.00  0.00    +0.000 A 
ATOM     15  C   UNL     1      -0.613  10.127  17.839  0.00  0.00    +0.000 C 
ATOM     16  C   UNL     1       0.268   9.127  17.510  0.00  0.00    +0.000 C 
ENDROOT
BRANCH   1  21
ATOM     17  C   UNL     1       3.804   5.773  18.413  0.00  0.00    +0.000 A 
ATOM     18  C   UNL     1       3.361   5.284  19.644  0.00  0.00    +0.000 A 
ATOM     19  C   UNL     1       2.427   5.991  20.367  0.00  0.00    +0.000 A 
ATOM     20  C   UNL     1       1.957   7.206  19.853  0.00  0.00    +0.000 A 
ATOM     21  C   UNL     1       2.381   7.743  18.612  0.00  0.00    +0.000 A 
ATOM     22  C   UNL     1       3.323   7.004  17.897  0.00  0.00    +0.000 A 
BRANCH  17  24
ATOM     23  C   UNL     1       4.197   3.678  17.366  0.00  0.00    +0.000 C 
ATOM     24  O   UNL     1       4.694   4.926  17.811  0.00  0.00    +0.000 OA
ENDBRANCH  17  24
ENDBRANCH   1  21
BRANCH  14  25
ATOM     25  C   UNL     1      -5.000  11.669  19.254  0.00  0.00    +0.000 A 
ATOM     26  C   UNL     1      -4.890  12.772  20.112  0.00  0.00    +0.000 A 
ATOM     27  C   UNL     1      -5.945  13.136  20.977  0.00  0.00    +0.000 A 
ATOM     28  C   UNL     1      -7.141  12.406  21.011  0.00  0.00    +0.000 A 
ATOM     29  C   UNL     1      -7.217  11.238  20.298  0.00  0.00    +0.000 A 
ATOM     30  C   UNL     1      -6.118  10.844  19.530  0.00  0.00    +0.000 A 
ENDBRANCH  14  25
TORSDOF 3
ENDMDL
MODEL 6
REMARK VINA RESULT:      -7.7      8.322     11.639
REMARK  Name = 
REMARK  4 active torsions:
REMARK  status: ('A' for Active; 'I' for Inactive)
REMARK    1  A    between atoms: C_1  and  O_2
REMARK    2  A    between atoms: O_2  and  C_3
REMARK    3  A    between atoms: C_7  and  C_8
REMARK    4  A    between atoms: C_21  and  C_22
REMARK                            x       y       z     vdW  Elec       q    Type
REMARK                         _______ _______ _______ _____ _____    ______ ____
ROOT
ATOM      1  C   UNL     1      -0.787  11.284  19.352  0.00  0.00    +0.000 C 
ATOM      2  N   UNL     1      -0.152  12.405  19.439  0.00  0.00    +0.000 NA
ATOM      3  C   UNL     1      -0.833  13.670  19.401  0.00  0.00    +0.000 C 
ATOM      4  C   UNL     1      -1.775  13.681  20.573  0.00  0.00    +0.000 C 
ATOM      5  O   UNL     1      -1.624  14.467  21.512  0.00  0.00    +0.000 OA
ATOM      6  N   UNL     1      -2.869  12.808  20.477  0.00  0.00    +0.000 N 
ATOM      7  C   UNL     1      -3.943  13.199  21.359  0.00  0.00    +0.000 C 
ATOM      8  C   UNL     1      -4.708  14.160  20.497  0.00  0.00    +0.000 C 
ATOM      9  C   UNL     1      -5.514  13.184  19.714  0.00  0.00    +0.000 A 
ATOM     10  C   UNL     1      -4.746  12.341  18.844  0.00  0.00    +0.000 A 
ATOM     11  C   UNL     1      -5.452  12.029  17.686  0.00  0.00    +0.000 A 
ATOM     12  C   UNL     1      -6.851  12.358  17.583  0.00  0.00    +0.000 A 
ATOM     13  C   UNL     1      -7.586  12.827  18.696  0.00  0.00    +0.000 A 
ATOM     14  C   UNL     1      -6.928  13.147  19.870  0.00  0.00    +0.000 A 
ATOM     15  C   UNL     1      -3.220  12.080  19.307  0.00  0.00    +0.000 C 
ATOM     16  C   UNL     1      -2.274  11.178  18.889  0.00  0.00    +0.000 C 
ENDROOT
BRANCH   1  21
ATOM     17  C   UNL     1       1.745   8.316  19.395  0.00  0.00    +0.000 A 
ATOM     18  C   UNL     1       1.523   7.824  20.684  0.00  0.00    +0.000 A 
ATOM     19  C   UNL     1       0.605   8.440  21.504  0.00  0.00    +0.000 A 
ATOM     20  C   UNL     1      -0.074   9.567  21.027  0.00  0.00    +0.000 A 
ATOM     21  C   UNL     1       0.121  10.103  19.730  0.00  0.00    +0.000 A 
ATOM     22  C   UNL     1       1.052   9.458  18.917  0.00  0.00    +0.000 A 
BRANCH  17  24
ATOM     23  C   UNL     1       2.804   6.211  19.100  0.00  0.00    +0.000 C 
ATOM     24  O   UNL     1       2.651   7.561  18.703  0.00  0.00    +0.000 OA
ENDBRANCH  17  24
ENDBRANCH   1  21
BRANCH  14  25
ATOM     25  C   UNL     1      -7.538  13.152  21.265  0.00  0.00    +0.000 A 
ATOM     26  C   UNL     1      -7.433  12.020  22.086  0.00  0.00    +0.000 A 
ATOM     27  C   UNL     1      -7.450  12.133  23.493  0.00  0.00    +0.000 A 
ATOM     28  C   UNL     1      -7.575  13.379  24.122  0.00  0.00    +0.000 A 
ATOM     29  C   UNL     1      -7.833  14.480  23.348  0.00  0.00    +0.000 A 
ATOM     30  C   UNL     1      -7.916  14.326  21.962  0.00  0.00    +0.000 A 
ENDBRANCH  14  25
TORSDOF 3
ENDMDL
MODEL 7
REMARK VINA RESULT:      -7.7      6.834      9.865
REMARK  Name = 
REMARK  4 active torsions:
REMARK  status: ('A' for Active; 'I' for Inactive)
REMARK    1  A    between atoms: C_1  and  O_2
REMARK    2  A    between atoms: O_2  and  C_3
REMARK    3  A    between atoms: C_7  and  C_8
REMARK    4  A    between atoms: C_21  and  C_22
REMARK                            x       y       z     vdW  Elec       q    Type
REMARK                         _______ _______ _______ _____ _____    ______ ____
ROOT
ATOM      1  C   UNL     1       0.746  10.022  18.668  0.00  0.00    +0.000 C 
ATOM      2  N   UNL     1       1.479  11.060  18.890  0.00  0.00    +0.000 NA
ATOM      3  C   UNL     1       0.918  12.379  19.004  0.00  0.00    +0.000 C 
ATOM      4  C   UNL     1      -0.034  12.337  20.166  0.00  0.00    +0.000 C 
ATOM      5  O   UNL     1       0.177  12.987  21.194  0.00  0.00    +0.000 OA
ATOM      6  N   UNL     1      -1.202  11.587  19.964  0.00  0.00    +0.000 N 
ATOM      7  C   UNL     1      -2.247  11.968  20.886  0.00  0.00    +0.000 C 
ATOM      8  C   UNL     1      -2.908  13.092  20.144  0.00  0.00    +0.000 C 
ATOM      9  C   UNL     1      -3.791  12.295  19.248  0.00  0.00    +0.000 A 
ATOM     10  C   UNL     1      -3.092  11.495  18.285  0.00  0.00    +0.000 A 
ATOM     11  C   UNL     1      -3.810  11.391  17.096  0.00  0.00    +0.000 A 
ATOM     12  C   UNL     1      -5.171  11.858  17.031  0.00  0.00    +0.000 A 
ATOM     13  C   UNL     1      -5.874  12.257  18.191  0.00  0.00    +0.000 A 
ATOM     14  C   UNL     1      -5.204  12.372  19.396  0.00  0.00    +0.000 A 
ATOM     15  C   UNL     1      -1.603  11.039  18.715  0.00  0.00    +0.000 C 
ATOM     16  C   UNL     1      -0.739  10.110  18.194  0.00  0.00    +0.000 C 
ENDROOT
BRANCH   1  21
ATOM     17  C   UNL     1       2.879   6.773  18.329  0.00  0.00    +0.000 A 
ATOM     18  C   UNL     1       2.740   6.254  19.618  0.00  0.00    +0.000 A 
ATOM     19  C   UNL     1       2.000   6.937  20.557  0.00  0.00    +0.000 A 
ATOM     20  C   UNL     1       1.418   8.158  20.196  0.00  0.00    +0.000 A 
ATOM     21  C   UNL     1       1.536   8.725  18.903  0.00  0.00    +0.000 A 
ATOM     22  C   UNL     1       2.285   8.010  17.969  0.00  0.00    +0.000 A 
BRANCH  17  24
ATOM     23  C   UNL     1       5.008   5.929  17.699  0.00  0.00    +0.000 C 
ATOM     24  O   UNL     1       3.604   5.947  17.515  0.00  0.00    +0.000 OA
ENDBRANCH  17  24
ENDBRANCH   1  21
BRANCH  14  25
ATOM     25  C   UNL     1      -5.829  12.267  20.781  0.00  0.00    +0.000 A 
ATOM     26  C   UNL     1      -5.579  13.253  21.745  0.00  0.00    +0.000 A 
ATOM     27  C   UNL     1      -6.509  13.526  22.772  0.00  0.00    +0.000 A 
ATOM     28  C   UNL     1      -7.715  12.820  22.867  0.00  0.00    +0.000 A 
ATOM     29  C   UNL     1      -7.916  11.750  22.033  0.00  0.00    +0.000 A 
ATOM     30  C   UNL     1      -6.932  11.434  21.093  0.00  0.00    +0.000 A 
ENDBRANCH  14  25
TORSDOF 3
ENDMDL
MODEL 8
REMARK VINA RESULT:      -7.7      6.349      9.444
REMARK  Name = 
REMARK  4 active torsions:
REMARK  status: ('A' for Active; 'I' for Inactive)
REMARK    1  A    between atoms: C_1  and  O_2
REMARK    2  A    between atoms: O_2  and  C_3
REMARK    3  A    between atoms: C_7  and  C_8
REMARK    4  A    between atoms: C_21  and  C_22
REMARK                            x       y       z     vdW  Elec       q    Type
REMARK                         _______ _______ _______ _____ _____    ______ ____
ROOT
ATOM      1  C   UNL     1       1.155   9.889  18.539  0.00  0.00    +0.000 C 
ATOM      2  N   UNL     1       1.992  10.842  18.302  0.00  0.00    +0.000 NA
ATOM      3  C   UNL     1       1.592  12.222  18.292  0.00  0.00    +0.000 C 
ATOM      4  C   UNL     1       1.061  12.522  19.665  0.00  0.00    +0.000 C 
ATOM      5  O   UNL     1       1.635  13.315  20.417  0.00  0.00    +0.000 OA
ATOM      6  N   UNL     1      -0.160  11.913  19.988  0.00  0.00    +0.000 N 
ATOM      7  C   UNL     1      -0.826  12.593  21.075  0.00  0.00    +0.000 C 
ATOM      8  C   UNL     1      -1.608  13.641  20.340  0.00  0.00    +0.000 C 
ATOM      9  C   UNL     1      -2.786  12.820  19.942  0.00  0.00    +0.000 A 
ATOM     10  C   UNL     1      -2.490  11.771  19.011  0.00  0.00    +0.000 A 
ATOM     11  C   UNL     1      -3.555  11.549  18.142  0.00  0.00    +0.000 A 
ATOM     12  C   UNL     1      -4.829  12.176  18.387  0.00  0.00    +0.000 A 
ATOM     13  C   UNL     1      -5.094  12.871  19.590  0.00  0.00    +0.000 A 
ATOM     14  C   UNL     1      -4.068  13.112  20.485  0.00  0.00    +0.000 A 
ATOM     15  C   UNL     1      -0.977  11.205  19.065  0.00  0.00    +0.000 C 
ATOM     16  C   UNL     1      -0.393  10.089  18.522  0.00  0.00    +0.000 C 
ENDROOT
BRANCH   1  21
ATOM     17  C   UNL     1       3.224   6.591  18.287  0.00  0.00    +0.000 A 
ATOM     18  C   UNL     1       2.951   6.035  19.539  0.00  0.00    +0.000 A 
ATOM     19  C   UNL     1       2.145   6.709  20.428  0.00  0.00    +0.000 A 
ATOM     20  C   UNL     1       1.632   7.958  20.057  0.00  0.00    +0.000 A 
ATOM     21  C   UNL     1       1.885   8.563  18.801  0.00  0.00    +0.000 A 
ATOM     22  C   UNL     1       2.700   7.856  17.917  0.00  0.00    +0.000 A 
BRANCH  17  24
ATOM     23  C   UNL     1       4.098   4.415  17.911  0.00  0.00    +0.000 C 
ATOM     24  O   UNL     1       4.000   5.771  17.516  0.00  0.00    +0.000 OA
ENDBRANCH  17  24
ENDBRANCH   1  21
BRANCH  14  25
ATOM     25  C   UNL     1      -4.223  13.347  21.982  0.00  0.00    +0.000 A 
ATOM     26  C   UNL     1      -3.852  12.350  22.895  0.00  0.00    +0.000 A 
ATOM     27  C   UNL     1      -3.441  12.675  24.206  0.00  0.00    +0.000 A 
ATOM     28  C   UNL     1      -3.390  14.005  24.644  0.00  0.00    +0.000 A 
ATOM     29  C   UNL     1      -3.891  14.984  23.826  0.00  0.00    +0.000 A 
ATOM     30  C   UNL     1      -4.391  14.624  22.572  0.00  0.00    +0.000 A 
ENDBRANCH  14  25
TORSDOF 3
ENDMDL
MODEL 9
REMARK VINA RESULT:      -7.6     11.129     14.375
REMARK  Name = 
REMARK  4 active torsions:
REMARK  status: ('A' for Active; 'I' for Inactive)
REMARK    1  A    between atoms: C_1  and  O_2
REMARK    2  A    between atoms: O_2  and  C_3
REMARK    3  A    between atoms: C_7  and  C_8
REMARK    4  A    between atoms: C_21  and  C_22
REMARK                            x       y       z     vdW  Elec       q    Type
REMARK                         _______ _______ _______ _____ _____    ______ ____
ROOT
ATOM      1  C   UNL     1      -5.552  11.994  17.899  0.00  0.00    +0.000 C 
ATOM      2  N   UNL     1      -6.318  12.570  17.035  0.00  0.00    +0.000 NA
ATOM      3  C   UNL     1      -7.350  13.490  17.426  0.00  0.00    +0.000 C 
ATOM      4  C   UNL     1      -6.663  14.625  18.133  0.00  0.00    +0.000 C 
ATOM      5  O   UNL     1      -6.655  15.765  17.662  0.00  0.00    +0.000 OA
ATOM      6  N   UNL     1      -6.119  14.314  19.388  0.00  0.00    +0.000 N 
ATOM      7  C   UNL     1      -5.915  15.498  20.190  0.00  0.00    +0.000 C 
ATOM      8  C   UNL     1      -7.247  15.638  20.866  0.00  0.00    +0.000 C 
ATOM      9  C   UNL     1      -7.047  14.673  21.982  0.00  0.00    +0.000 A 
ATOM     10  C   UNL     1      -6.914  13.306  21.569  0.00  0.00    +0.000 A 
ATOM     11  C   UNL     1      -7.457  12.436  22.511  0.00  0.00    +0.000 A 
ATOM     12  C   UNL     1      -7.855  12.931  23.804  0.00  0.00    +0.000 A 
ATOM     13  C   UNL     1      -7.544  14.245  24.224  0.00  0.00    +0.000 A 
ATOM     14  C   UNL     1      -7.000  15.143  23.324  0.00  0.00    +0.000 A 
ATOM     15  C   UNL     1      -6.329  13.089  20.078  0.00  0.00    +0.000 C 
ATOM     16  C   UNL     1      -5.852  11.978  19.430  0.00  0.00    +0.000 C 
ENDROOT
BRANCH   1  21
ATOM     17  C   UNL     1      -3.036  10.395  15.381  0.00  0.00    +0.000 A 
ATOM     18  C   UNL     1      -2.096   9.874  16.274  0.00  0.00    +0.000 A 
ATOM     19  C   UNL     1      -2.264  10.049  17.628  0.00  0.00    +0.000 A 
ATOM     20  C   UNL     1      -3.376  10.771  18.080  0.00  0.00    +0.000 A 
ATOM     21  C   UNL     1      -4.352  11.320  17.213  0.00  0.00    +0.000 A 
ATOM     22  C   UNL     1      -4.161  11.124  15.846  0.00  0.00    +0.000 A 
BRANCH  17  24
ATOM     23  C   UNL     1      -3.828   9.874  13.203  0.00  0.00    +0.000 C 
ATOM     24  O   UNL     1      -2.739  10.091  14.082  0.00  0.00    +0.000 OA
ENDBRANCH  17  24
ENDBRANCH   1  21
BRANCH  14  25
ATOM     25  C   UNL     1      -6.146  16.354  23.675  0.00  0.00    +0.000 A 
ATOM     26  C   UNL     1      -6.728  17.627  23.762  0.00  0.00    +0.000 A 
ATOM     27  C   UNL     1      -6.176  18.629  24.590  0.00  0.00    +0.000 A 
ATOM     28  C   UNL     1      -5.027  18.389  25.355  0.00  0.00    +0.000 A 
ATOM     29  C   UNL     1      -4.353  17.210  25.173  0.00  0.00    +0.000 A 
ATOM     30  C   UNL     1      -4.861  16.275  24.267  0.00  0.00    +0.000 A 
ENDBRANCH  14  25
TORSDOF 3
ENDMDL
