MODEL 1
REMARK VINA RESULT:      -7.4      0.000      0.000
REMARK  Name = 
REMARK  2 active torsions:
REMARK  status: ('A' for Active; 'I' for Inactive)
REMARK    1  A    between atoms: C_2  and  C_5
REMARK    2  A    between atoms: C_11  and  C_12
REMARK                            x       y       z     vdW  Elec       q    Type
REMARK                         _______ _______ _______ _____ _____    ______ ____
ROOT
ATOM      1  C   UNL     1       2.739   3.088  20.022  0.00  0.00    +0.000 A 
ATOM      2  N   UNL     1       3.381   1.986  19.570  0.00  0.00    +0.000 NA
ATOM      3  N   UNL     1       4.056   2.343  18.475  0.00  0.00    +0.000 NA
ATOM      4  C   UNL     1       3.813   3.655  18.281  0.00  0.00    +0.000 A 
ATOM      5  N   UNL     1       3.007   4.124  19.227  0.00  0.00    +0.000 N 
ATOM      6  N   UNL     1       2.509   5.408  19.318  0.00  0.00    +0.000 NA
ATOM      7  C   UNL     1       3.043   6.400  18.689  0.00  0.00    +0.000 C 
ATOM      8  C   UNL     1       4.376   6.206  17.964  0.00  0.00    +0.000 C 
ATOM      9  S   UNL     1       4.391   4.683  16.929  0.00  0.00    +0.000 S 
ENDROOT
BRANCH   7  10
ATOM     10  C   UNL     1       2.335   7.704  18.792  0.00  0.00    +0.000 A 
ATOM     11  C   UNL     1       2.302   8.640  17.740  0.00  0.00    +0.000 A 
ATOM     12  C   UNL     1       1.651   9.869  17.916  0.00  0.00    +0.000 A 
ATOM     13  C   UNL     1       1.016  10.166  19.126  0.00  0.00    +0.000 A 
ATOM     14  C   UNL     1       1.035   9.241  20.168  0.00  0.00    +0.000 A 
ATOM     15  C   UNL     1       1.694   8.027  20.007  0.00  0.00    +0.000 A 
ENDBRANCH   7  10
BRANCH   1  17
ATOM     16  F   UNL     1       1.792   1.943  21.871  0.00  0.00    +0.000 F 
ATOM     17  C   UNL     1       1.857   3.166  21.232  0.00  0.00    +0.000 C 
ATOM     18  F   UNL     1       0.585   3.551  20.853  0.00  0.00    +0.000 F 
ATOM     19  F   UNL     1       2.369   4.110  22.105  0.00  0.00    +0.000 F 
ENDBRANCH   1  17
TORSDOF 2
ENDMDL
MODEL 2
REMARK VINA RESULT:      -7.4      0.078      1.113
REMARK  Name = 
REMARK  2 active torsions:
REMARK  status: ('A' for Active; 'I' for Inactive)
REMARK    1  A    between atoms: C_2  and  C_5
REMARK    2  A    between atoms: C_11  and  C_12
REMARK                            x       y       z     vdW  Elec       q    Type
REMARK                         _______ _______ _______ _____ _____    ______ ____
ROOT
ATOM      1  C   UNL     1       2.705   3.057  19.990  0.00  0.00    +0.000 A 
ATOM      2  N   UNL     1       3.324   1.959  19.499  0.00  0.00    +0.000 NA
ATOM      3  N   UNL     1       3.979   2.334  18.399  0.00  0.00    +0.000 NA
ATOM      4  C   UNL     1       3.748   3.653  18.241  0.00  0.00    +0.000 A 
ATOM      5  N   UNL     1       2.969   4.109  19.214  0.00  0.00    +0.000 N 
ATOM      6  N   UNL     1       2.488   5.396  19.346  0.00  0.00    +0.000 NA
ATOM      7  C   UNL     1       3.021   6.396  18.729  0.00  0.00    +0.000 C 
ATOM      8  C   UNL     1       4.335   6.203  17.971  0.00  0.00    +0.000 C 
ATOM      9  S   UNL     1       4.310   4.705  16.901  0.00  0.00    +0.000 S 
ENDROOT
BRANCH   7  10
ATOM     10  C   UNL     1       2.331   7.705  18.878  0.00  0.00    +0.000 A 
ATOM     11  C   UNL     1       1.658   8.085  20.054  0.00  0.00    +0.000 A 
ATOM     12  C   UNL     1       0.992   9.317  20.115  0.00  0.00    +0.000 A 
ATOM     13  C   UNL     1       1.008  10.184  19.018  0.00  0.00    +0.000 A 
ATOM     14  C   UNL     1       1.681   9.821  17.853  0.00  0.00    +0.000 A 
ATOM     15  C   UNL     1       2.328   8.592  17.780  0.00  0.00    +0.000 A 
ENDBRANCH   7  10
BRANCH   1  17
ATOM     16  F   UNL     1       1.848   1.900  21.876  0.00  0.00    +0.000 F 
ATOM     17  C   UNL     1       1.850   3.117  21.220  0.00  0.00    +0.000 C 
ATOM     18  F   UNL     1       0.555   3.447  20.869  0.00  0.00    +0.000 F 
ATOM     19  F   UNL     1       2.345   4.091  22.069  0.00  0.00    +0.000 F 
ENDBRANCH   1  17
TORSDOF 2
ENDMDL
MODEL 3
REMARK VINA RESULT:      -7.4      4.046      5.999
REMARK  Name = 
REMARK  2 active torsions:
REMARK  status: ('A' for Active; 'I' for Inactive)
REMARK    1  A    between atoms: C_2  and  C_5
REMARK    2  A    between atoms: C_11  and  C_12
REMARK                            x       y       z     vdW  Elec       q    Type
REMARK                         _______ _______ _______ _____ _____    ______ ____
ROOT
ATOM      1  C   UNL     1       4.087   3.386  18.494  0.00  0.00    +0.000 A 
ATOM      2  N   UNL     1       4.195   3.687  19.809  0.00  0.00    +0.000 NA
ATOM      3  N   UNL     1       5.235   4.512  19.940  0.00  0.00    +0.000 NA
ATOM      4  C   UNL     1       5.740   4.699  18.704  0.00  0.00    +0.000 A 
ATOM      5  N   UNL     1       5.041   4.013  17.807  0.00  0.00    +0.000 N 
ATOM      6  N   UNL     1       5.300   3.929  16.454  0.00  0.00    +0.000 NA
ATOM      7  C   UNL     1       6.048   4.785  15.841  0.00  0.00    +0.000 C 
ATOM      8  C   UNL     1       6.520   6.039  16.578  0.00  0.00    +0.000 C 
ATOM      9  S   UNL     1       7.188   5.656  18.250  0.00  0.00    +0.000 S 
ENDROOT
BRANCH   7  10
ATOM     10  C   UNL     1       6.329   4.506  14.408  0.00  0.00    +0.000 A 
ATOM     11  C   UNL     1       5.567   3.605  13.640  0.00  0.00    +0.000 A 
ATOM     12  C   UNL     1       5.911   3.357  12.305  0.00  0.00    +0.000 A 
ATOM     13  C   UNL     1       6.998   4.014  11.720  0.00  0.00    +0.000 A 
ATOM     14  C   UNL     1       7.752   4.915  12.470  0.00  0.00    +0.000 A 
ATOM     15  C   UNL     1       7.427   5.153  13.800  0.00  0.00    +0.000 A 
ENDBRANCH   7  10
BRANCH   1  17
ATOM     16  F   UNL     1       2.477   3.096  16.775  0.00  0.00    +0.000 F 
ATOM     17  C   UNL     1       3.057   2.489  17.872  0.00  0.00    +0.000 C 
ATOM     18  F   UNL     1       2.078   2.195  18.802  0.00  0.00    +0.000 F 
ATOM     19  F   UNL     1       3.664   1.311  17.474  0.00  0.00    +0.000 F 
ENDBRANCH   1  17
TORSDOF 2
ENDMDL
MODEL 4
REMARK VINA RESULT:      -7.3      4.052      5.969
REMARK  Name = 
REMARK  2 active torsions:
REMARK  status: ('A' for Active; 'I' for Inactive)
REMARK    1  A    between atoms: C_2  and  C_5
REMARK    2  A    between atoms: C_11  and  C_12
REMARK                            x       y       z     vdW  Elec       q    Type
REMARK                         _______ _______ _______ _____ _____    ______ ____
ROOT
ATOM      1  C   UNL     1       4.090   3.544  18.482  0.00  0.00    +0.000 A 
ATOM      2  N   UNL     1       4.187   3.819  19.804  0.00  0.00    +0.000 NA
ATOM      3  N   UNL     1       5.277   4.569  19.972  0.00  0.00    +0.000 NA
ATOM      4  C   UNL     1       5.823   4.738  18.751  0.00  0.00    +0.000 A 
ATOM      5  N   UNL     1       5.101   4.114  17.827  0.00  0.00    +0.000 N 
ATOM      6  N   UNL     1       5.388   4.031  16.480  0.00  0.00    +0.000 NA
ATOM      7  C   UNL     1       6.206   4.842  15.898  0.00  0.00    +0.000 C 
ATOM      8  C   UNL     1       6.744   6.051  16.665  0.00  0.00    +0.000 C 
ATOM      9  S   UNL     1       7.344   5.601  18.346  0.00  0.00    +0.000 S 
ENDROOT
BRANCH   7  10
ATOM     10  C   UNL     1       6.504   4.565  14.468  0.00  0.00    +0.000 A 
ATOM     11  C   UNL     1       7.537   5.212  13.763  0.00  0.00    +0.000 A 
ATOM     12  C   UNL     1       7.738   4.935  12.404  0.00  0.00    +0.000 A 
ATOM     13  C   UNL     1       6.930   4.004  11.745  0.00  0.00    +0.000 A 
ATOM     14  C   UNL     1       5.912   3.351  12.437  0.00  0.00    +0.000 A 
ATOM     15  C   UNL     1       5.695   3.634  13.781  0.00  0.00    +0.000 A 
ENDBRANCH   7  10
BRANCH   1  17
ATOM     16  F   UNL     1       1.928   2.582  18.659  0.00  0.00    +0.000 F 
ATOM     17  C   UNL     1       3.018   2.728  17.823  0.00  0.00    +0.000 C 
ATOM     18  F   UNL     1       3.517   1.480  17.503  0.00  0.00    +0.000 F 
ATOM     19  F   UNL     1       2.619   3.361  16.659  0.00  0.00    +0.000 F 
ENDBRANCH   1  17
TORSDOF 2
ENDMDL
MODEL 5
REMARK VINA RESULT:      -7.3      5.122      6.693
REMARK  Name = 
REMARK  2 active torsions:
REMARK  status: ('A' for Active; 'I' for Inactive)
REMARK    1  A    between atoms: C_2  and  C_5
REMARK    2  A    between atoms: C_11  and  C_12
REMARK                            x       y       z     vdW  Elec       q    Type
REMARK                         _______ _______ _______ _____ _____    ______ ____
ROOT
ATOM      1  C   UNL     1       6.582   4.609  14.207  0.00  0.00    +0.000 A 
ATOM      2  N   UNL     1       7.675   5.384  14.022  0.00  0.00    +0.000 NA
ATOM      3  N   UNL     1       7.930   5.990  15.184  0.00  0.00    +0.000 NA
ATOM      4  C   UNL     1       6.988   5.572  16.053  0.00  0.00    +0.000 A 
ATOM      5  N   UNL     1       6.156   4.721  15.465  0.00  0.00    +0.000 N 
ATOM      6  N   UNL     1       5.046   4.131  16.035  0.00  0.00    +0.000 NA
ATOM      7  C   UNL     1       4.881   4.066  17.313  0.00  0.00    +0.000 C 
ATOM      8  C   UNL     1       6.021   4.481  18.244  0.00  0.00    +0.000 C 
ATOM      9  S   UNL     1       6.768   6.092  17.756  0.00  0.00    +0.000 S 
ENDROOT
BRANCH   7  10
ATOM     10  C   UNL     1       3.588   3.503  17.783  0.00  0.00    +0.000 A 
ATOM     11  C   UNL     1       3.452   2.178  18.241  0.00  0.00    +0.000 A 
ATOM     12  C   UNL     1       2.195   1.697  18.632  0.00  0.00    +0.000 A 
ATOM     13  C   UNL     1       1.074   2.530  18.588  0.00  0.00    +0.000 A 
ATOM     14  C   UNL     1       1.200   3.846  18.146  0.00  0.00    +0.000 A 
ATOM     15  C   UNL     1       2.441   4.325  17.740  0.00  0.00    +0.000 A 
ENDBRANCH   7  10
BRANCH   1  17
ATOM     16  F   UNL     1       6.014   2.407  13.528  0.00  0.00    +0.000 F 
ATOM     17  C   UNL     1       5.928   3.740  13.174  0.00  0.00    +0.000 C 
ATOM     18  F   UNL     1       6.545   3.929  11.952  0.00  0.00    +0.000 F 
ATOM     19  F   UNL     1       4.595   4.097  13.061  0.00  0.00    +0.000 F 
ENDBRANCH   1  17
TORSDOF 2
ENDMDL
MODEL 6
REMARK VINA RESULT:      -7.2      3.921      5.878
REMARK  Name = 
REMARK  2 active torsions:
REMARK  status: ('A' for Active; 'I' for Inactive)
REMARK    1  A    between atoms: C_2  and  C_5
REMARK    2  A    between atoms: C_11  and  C_12
REMARK                            x       y       z     vdW  Elec       q    Type
REMARK                         _______ _______ _______ _____ _____    ______ ____
ROOT
ATOM      1  C   UNL     1       3.710   3.482  18.458  0.00  0.00    +0.000 A 
ATOM      2  N   UNL     1       3.580   4.049  19.679  0.00  0.00    +0.000 NA
ATOM      3  N   UNL     1       4.265   5.194  19.658  0.00  0.00    +0.000 NA
ATOM      4  C   UNL     1       4.798   5.303  18.424  0.00  0.00    +0.000 A 
ATOM      5  N   UNL     1       4.462   4.258  17.677  0.00  0.00    +0.000 N 
ATOM      6  N   UNL     1       4.868   4.010  16.382  0.00  0.00    +0.000 NA
ATOM      7  C   UNL     1       5.343   4.938  15.620  0.00  0.00    +0.000 C 
ATOM      8  C   UNL     1       5.291   6.395  16.081  0.00  0.00    +0.000 C 
ATOM      9  S   UNL     1       5.879   6.599  17.814  0.00  0.00    +0.000 S 
ENDROOT
BRANCH   7  10
ATOM     10  C   UNL     1       5.842   4.505  14.288  0.00  0.00    +0.000 A 
ATOM     11  C   UNL     1       5.131   3.620  13.455  0.00  0.00    +0.000 A 
ATOM     12  C   UNL     1       5.677   3.219  12.229  0.00  0.00    +0.000 A 
ATOM     13  C   UNL     1       6.920   3.707  11.815  0.00  0.00    +0.000 A 
ATOM     14  C   UNL     1       7.627   4.591  12.628  0.00  0.00    +0.000 A 
ATOM     15  C   UNL     1       7.099   4.980  13.854  0.00  0.00    +0.000 A 
ENDBRANCH   7  10
BRANCH   1  17
ATOM     16  F   UNL     1       4.094   1.267  17.700  0.00  0.00    +0.000 F 
ATOM     17  C   UNL     1       3.108   2.181  18.016  0.00  0.00    +0.000 C 
ATOM     18  F   UNL     1       2.310   2.392  16.909  0.00  0.00    +0.000 F 
ATOM     19  F   UNL     1       2.327   1.674  19.040  0.00  0.00    +0.000 F 
ENDBRANCH   1  17
TORSDOF 2
ENDMDL
MODEL 7
REMARK VINA RESULT:      -7.2      3.971      5.946
REMARK  Name = 
REMARK  2 active torsions:
REMARK  status: ('A' for Active; 'I' for Inactive)
REMARK    1  A    between atoms: C_2  and  C_5
REMARK    2  A    between atoms: C_11  and  C_12
REMARK                            x       y       z     vdW  Elec       q    Type
REMARK                         _______ _______ _______ _____ _____    ______ ____
ROOT
ATOM      1  C   UNL     1       3.514   4.349  18.355  0.00  0.00    +0.000 A 
ATOM      2  N   UNL     1       3.620   4.611  19.678  0.00  0.00    +0.000 NA
ATOM      3  N   UNL     1       4.861   5.050  19.896  0.00  0.00    +0.000 NA
ATOM      4  C   UNL     1       5.487   5.048  18.702  0.00  0.00    +0.000 A 
ATOM      5  N   UNL     1       4.669   4.622  17.747  0.00  0.00    +0.000 N 
ATOM      6  N   UNL     1       4.984   4.444  16.416  0.00  0.00    +0.000 NA
ATOM      7  C   UNL     1       6.013   5.001  15.871  0.00  0.00    +0.000 C 
ATOM      8  C   UNL     1       6.816   6.037  16.658  0.00  0.00    +0.000 C 
ATOM      9  S   UNL     1       7.198   5.472  18.368  0.00  0.00    +0.000 S 
ENDROOT
BRANCH   7  10
ATOM     10  C   UNL     1       6.292   4.632  14.458  0.00  0.00    +0.000 A 
ATOM     11  C   UNL     1       5.507   3.709  13.740  0.00  0.00    +0.000 A 
ATOM     12  C   UNL     1       5.848   3.374  12.423  0.00  0.00    +0.000 A 
ATOM     13  C   UNL     1       6.955   3.965  11.807  0.00  0.00    +0.000 A 
ATOM     14  C   UNL     1       7.732   4.887  12.506  0.00  0.00    +0.000 A 
ATOM     15  C   UNL     1       7.409   5.211  13.819  0.00  0.00    +0.000 A 
ENDBRANCH   7  10
BRANCH   1  17
ATOM     16  F   UNL     1       1.620   2.923  18.436  0.00  0.00    +0.000 F 
ATOM     17  C   UNL     1       2.296   3.834  17.647  0.00  0.00    +0.000 C 
ATOM     18  F   UNL     1       2.670   3.225  16.465  0.00  0.00    +0.000 F 
ATOM     19  F   UNL     1       1.458   4.897  17.357  0.00  0.00    +0.000 F 
ENDBRANCH   1  17
TORSDOF 2
ENDMDL
MODEL 8
REMARK VINA RESULT:      -7.1      4.889      6.481
REMARK  Name = 
REMARK  2 active torsions:
REMARK  status: ('A' for Active; 'I' for Inactive)
REMARK    1  A    between atoms: C_2  and  C_5
REMARK    2  A    between atoms: C_11  and  C_12
REMARK                            x       y       z     vdW  Elec       q    Type
REMARK                         _______ _______ _______ _____ _____    ______ ____
ROOT
ATOM      1  C   UNL     1       6.557   4.703  14.623  0.00  0.00    +0.000 A 
ATOM      2  N   UNL     1       7.638   5.501  14.468  0.00  0.00    +0.000 NA
ATOM      3  N   UNL     1       7.837   6.126  15.630  0.00  0.00    +0.000 NA
ATOM      4  C   UNL     1       6.874   5.696  16.471  0.00  0.00    +0.000 A 
ATOM      5  N   UNL     1       6.083   4.819  15.863  0.00  0.00    +0.000 N 
ATOM      6  N   UNL     1       4.967   4.210  16.401  0.00  0.00    +0.000 NA
ATOM      7  C   UNL     1       4.758   4.155  17.673  0.00  0.00    +0.000 C 
ATOM      8  C   UNL     1       5.855   4.608  18.639  0.00  0.00    +0.000 C 
ATOM      9  S   UNL     1       6.581   6.230  18.159  0.00  0.00    +0.000 S 
ENDROOT
BRANCH   7  10
ATOM     10  C   UNL     1       3.462   3.567  18.104  0.00  0.00    +0.000 A 
ATOM     11  C   UNL     1       3.128   2.216  17.892  0.00  0.00    +0.000 A 
ATOM     12  C   UNL     1       1.872   1.735  18.285  0.00  0.00    +0.000 A 
ATOM     13  C   UNL     1       0.951   2.584  18.906  0.00  0.00    +0.000 A 
ATOM     14  C   UNL     1       1.278   3.921  19.129  0.00  0.00    +0.000 A 
ATOM     15  C   UNL     1       2.515   4.409  18.725  0.00  0.00    +0.000 A 
ENDBRANCH   7  10
BRANCH   1  17
ATOM     16  F   UNL     1       4.661   4.182  13.295  0.00  0.00    +0.000 F 
ATOM     17  C   UNL     1       5.960   3.807  13.578  0.00  0.00    +0.000 C 
ATOM     18  F   UNL     1       5.969   2.501  14.028  0.00  0.00    +0.000 F 
ATOM     19  F   UNL     1       6.720   3.889  12.425  0.00  0.00    +0.000 F 
ENDBRANCH   1  17
TORSDOF 2
ENDMDL
MODEL 9
REMARK VINA RESULT:      -7.1      1.034      1.487
REMARK  Name = 
REMARK  2 active torsions:
REMARK  status: ('A' for Active; 'I' for Inactive)
REMARK    1  A    between atoms: C_2  and  C_5
REMARK    2  A    between atoms: C_11  and  C_12
REMARK                            x       y       z     vdW  Elec       q    Type
REMARK                         _______ _______ _______ _____ _____    ______ ____
ROOT
ATOM      1  C   UNL     1       2.300   2.968  18.722  0.00  0.00    +0.000 A 
ATOM      2  N   UNL     1       3.041   1.971  18.185  0.00  0.00    +0.000 NA
ATOM      3  N   UNL     1       4.003   2.541  17.457  0.00  0.00    +0.000 NA
ATOM      4  C   UNL     1       3.830   3.874  17.565  0.00  0.00    +0.000 A 
ATOM      5  N   UNL     1       2.789   4.149  18.341  0.00  0.00    +0.000 N 
ATOM      6  N   UNL     1       2.290   5.401  18.633  0.00  0.00    +0.000 NA
ATOM      7  C   UNL     1       2.986   6.476  18.467  0.00  0.00    +0.000 C 
ATOM      8  C   UNL     1       4.469   6.368  18.113  0.00  0.00    +0.000 C 
ATOM      9  S   UNL     1       4.776   5.165  16.753  0.00  0.00    +0.000 S 
ENDROOT
BRANCH   7  10
ATOM     10  C   UNL     1       2.282   7.762  18.717  0.00  0.00    +0.000 A 
ATOM     11  C   UNL     1       2.185   8.781  17.750  0.00  0.00    +0.000 A 
ATOM     12  C   UNL     1       1.544   9.986  18.064  0.00  0.00    +0.000 A 
ATOM     13  C   UNL     1       0.980  10.179  19.328  0.00  0.00    +0.000 A 
ATOM     14  C   UNL     1       1.063   9.173  20.289  0.00  0.00    +0.000 A 
ATOM     15  C   UNL     1       1.713   7.981  19.990  0.00  0.00    +0.000 A 
ENDBRANCH   7  10
BRANCH   1  17
ATOM     16  F   UNL     1       0.664   4.029  20.073  0.00  0.00    +0.000 F 
ATOM     17  C   UNL     1       1.108   2.803  19.616  0.00  0.00    +0.000 C 
ATOM     18  F   UNL     1       1.445   2.010  20.696  0.00  0.00    +0.000 F 
ATOM     19  F   UNL     1       0.093   2.185  18.908  0.00  0.00    +0.000 F 
ENDBRANCH   1  17
TORSDOF 2
ENDMDL
