MODEL 1
REMARK VINA RESULT:      -7.3      0.000      0.000
REMARK  Name = 
REMARK  2 active torsions:
REMARK  status: ('A' for Active; 'I' for Inactive)
REMARK    1  A    between atoms: O_1  and  C_2
REMARK    2  A    between atoms: C_11  and  C_12
REMARK                            x       y       z     vdW  Elec       q    Type
REMARK                         _______ _______ _______ _____ _____    ______ ____
ROOT
ATOM      1  C   UNL     1       3.287   7.599  17.873  0.00  0.00    +0.000 C 
ATOM      2  C   UNL     1       4.358   7.152  16.881  0.00  0.00    +0.000 C 
ATOM      3  C   UNL     1       5.601   6.716  17.606  0.00  0.00    +0.000 A 
ATOM      4  C   UNL     1       6.774   7.478  17.474  0.00  0.00    +0.000 A 
ATOM      5  C   UNL     1       7.937   7.110  18.142  0.00  0.00    +0.000 A 
ATOM      6  C   UNL     1       7.944   5.972  18.939  0.00  0.00    +0.000 A 
ATOM      7  C   UNL     1       6.780   5.203  19.071  0.00  0.00    +0.000 A 
ATOM      8  C   UNL     1       5.594   5.566  18.414  0.00  0.00    +0.000 A 
ATOM      9  N   UNL     1       4.423   4.798  18.597  0.00  0.00    +0.000 N 
ATOM     10  C   UNL     1       3.348   5.483  19.347  0.00  0.00    +0.000 C 
ATOM     11  C   UNL     1       2.518   6.420  18.452  0.00  0.00    +0.000 C 
ATOM     12  H   UNL     1       4.658   3.929  19.076  0.00  0.00    +0.000 HD
ENDROOT
BRANCH  10  13
ATOM     13  C   UNL     1       2.375   4.506  19.963  0.00  0.00    +0.000 A 
ATOM     14  C   UNL     1       2.201   4.032  21.250  0.00  0.00    +0.000 A 
ATOM     15  C   UNL     1       1.229   3.008  21.171  0.00  0.00    +0.000 A 
ATOM     16  C   UNL     1       0.843   2.947  19.852  0.00  0.00    +0.000 A 
ATOM     17  O   UNL     1       1.527   3.857  19.112  0.00  0.00    +0.000 OA
ENDBRANCH  10  13
BRANCH   1  18
ATOM     18  O   UNL     1       2.341   8.440  17.201  0.00  0.00    +0.000 OA
ATOM     19  H   UNL     1       2.625   9.360  17.338  0.00  0.00    +0.000 HD
ENDBRANCH   1  18
TORSDOF 2
ENDMDL
MODEL 2
REMARK VINA RESULT:      -7.3      3.635      6.093
REMARK  Name = 
REMARK  2 active torsions:
REMARK  status: ('A' for Active; 'I' for Inactive)
REMARK    1  A    between atoms: O_1  and  C_2
REMARK    2  A    between atoms: C_11  and  C_12
REMARK                            x       y       z     vdW  Elec       q    Type
REMARK                         _______ _______ _______ _____ _____    ______ ____
ROOT
ATOM      1  C   UNL     1       6.635   6.211  17.839  0.00  0.00    +0.000 C 
ATOM      2  C   UNL     1       6.236   5.117  18.827  0.00  0.00    +0.000 C 
ATOM      3  C   UNL     1       4.791   4.741  18.642  0.00  0.00    +0.000 A 
ATOM      4  C   UNL     1       3.870   5.040  19.661  0.00  0.00    +0.000 A 
ATOM      5  C   UNL     1       2.525   4.717  19.516  0.00  0.00    +0.000 A 
ATOM      6  C   UNL     1       2.088   4.084  18.359  0.00  0.00    +0.000 A 
ATOM      7  C   UNL     1       3.002   3.777  17.342  0.00  0.00    +0.000 A 
ATOM      8  C   UNL     1       4.360   4.105  17.465  0.00  0.00    +0.000 A 
ATOM      9  N   UNL     1       5.253   3.824  16.408  0.00  0.00    +0.000 N 
ATOM     10  C   UNL     1       5.786   5.018  15.716  0.00  0.00    +0.000 C 
ATOM     11  C   UNL     1       6.973   5.645  16.468  0.00  0.00    +0.000 C 
ATOM     12  H   UNL     1       4.791   3.224  15.723  0.00  0.00    +0.000 HD
ENDROOT
BRANCH  10  13
ATOM     13  C   UNL     1       6.280   4.695  14.327  0.00  0.00    +0.000 A 
ATOM     14  C   UNL     1       5.924   3.735  13.398  0.00  0.00    +0.000 A 
ATOM     15  C   UNL     1       6.862   3.830  12.344  0.00  0.00    +0.000 A 
ATOM     16  C   UNL     1       7.707   4.863  12.676  0.00  0.00    +0.000 A 
ATOM     17  O   UNL     1       7.358   5.400  13.873  0.00  0.00    +0.000 OA
ENDBRANCH  10  13
BRANCH   1  18
ATOM     18  O   UNL     1       7.804   6.883  18.326  0.00  0.00    +0.000 OA
ATOM     19  H   UNL     1       7.601   7.834  18.348  0.00  0.00    +0.000 HD
ENDBRANCH   1  18
TORSDOF 2
ENDMDL
MODEL 3
REMARK VINA RESULT:      -7.2      2.287      5.335
REMARK  Name = 
REMARK  2 active torsions:
REMARK  status: ('A' for Active; 'I' for Inactive)
REMARK    1  A    between atoms: O_1  and  C_2
REMARK    2  A    between atoms: C_11  and  C_12
REMARK                            x       y       z     vdW  Elec       q    Type
REMARK                         _______ _______ _______ _____ _____    ______ ____
ROOT
ATOM      1  C   UNL     1       2.634   6.856  18.263  0.00  0.00    +0.000 C 
ATOM      2  C   UNL     1       2.774   6.415  19.718  0.00  0.00    +0.000 C 
ATOM      3  C   UNL     1       2.450   4.953  19.859  0.00  0.00    +0.000 A 
ATOM      4  C   UNL     1       1.302   4.573  20.575  0.00  0.00    +0.000 A 
ATOM      5  C   UNL     1       0.966   3.230  20.714  0.00  0.00    +0.000 A 
ATOM      6  C   UNL     1       1.778   2.254  20.149  0.00  0.00    +0.000 A 
ATOM      7  C   UNL     1       2.929   2.625  19.440  0.00  0.00    +0.000 A 
ATOM      8  C   UNL     1       3.276   3.974  19.280  0.00  0.00    +0.000 A 
ATOM      9  N   UNL     1       4.417   4.324  18.524  0.00  0.00    +0.000 N 
ATOM     10  C   UNL     1       4.124   5.012  17.248  0.00  0.00    +0.000 C 
ATOM     11  C   UNL     1       3.869   6.517  17.442  0.00  0.00    +0.000 C 
ATOM     12  H   UNL     1       4.966   3.487  18.330  0.00  0.00    +0.000 HD
ENDROOT
BRANCH  10  13
ATOM     13  C   UNL     1       5.265   4.894  16.265  0.00  0.00    +0.000 A 
ATOM     14  C   UNL     1       5.319   4.620  14.911  0.00  0.00    +0.000 A 
ATOM     15  C   UNL     1       6.689   4.481  14.586  0.00  0.00    +0.000 A 
ATOM     16  C   UNL     1       7.384   4.716  15.749  0.00  0.00    +0.000 A 
ATOM     17  O   UNL     1       6.530   4.975  16.772  0.00  0.00    +0.000 OA
ENDBRANCH  10  13
BRANCH   1  18
ATOM     18  O   UNL     1       2.463   8.278  18.215  0.00  0.00    +0.000 OA
ATOM     19  H   UNL     1       1.930   8.531  18.988  0.00  0.00    +0.000 HD
ENDBRANCH   1  18
TORSDOF 2
ENDMDL
MODEL 4
REMARK VINA RESULT:      -7.1      3.277      6.072
REMARK  Name = 
REMARK  2 active torsions:
REMARK  status: ('A' for Active; 'I' for Inactive)
REMARK    1  A    between atoms: O_1  and  C_2
REMARK    2  A    between atoms: C_11  and  C_12
REMARK                            x       y       z     vdW  Elec       q    Type
REMARK                         _______ _______ _______ _____ _____    ______ ____
ROOT
ATOM      1  C   UNL     1       5.899   5.110  19.051  0.00  0.00    +0.000 C 
ATOM      2  C   UNL     1       5.244   3.870  19.655  0.00  0.00    +0.000 C 
ATOM      3  C   UNL     1       3.809   3.766  19.219  0.00  0.00    +0.000 A 
ATOM      4  C   UNL     1       2.790   3.925  20.174  0.00  0.00    +0.000 A 
ATOM      5  C   UNL     1       1.452   3.848  19.802  0.00  0.00    +0.000 A 
ATOM      6  C   UNL     1       1.118   3.602  18.476  0.00  0.00    +0.000 A 
ATOM      7  C   UNL     1       2.128   3.436  17.519  0.00  0.00    +0.000 A 
ATOM      8  C   UNL     1       3.482   3.522  17.873  0.00  0.00    +0.000 A 
ATOM      9  N   UNL     1       4.481   3.394  16.883  0.00  0.00    +0.000 N 
ATOM     10  C   UNL     1       5.236   4.635  16.605  0.00  0.00    +0.000 C 
ATOM     11  C   UNL     1       6.366   4.871  17.622  0.00  0.00    +0.000 C 
ATOM     12  H   UNL     1       4.058   3.063  16.015  0.00  0.00    +0.000 HD
ENDROOT
BRANCH  10  13
ATOM     13  C   UNL     1       5.885   4.610  15.242  0.00  0.00    +0.000 A 
ATOM     14  C   UNL     1       5.642   3.879  14.094  0.00  0.00    +0.000 A 
ATOM     15  C   UNL     1       6.692   4.183  13.196  0.00  0.00    +0.000 A 
ATOM     16  C   UNL     1       7.487   5.105  13.835  0.00  0.00    +0.000 A 
ATOM     17  O   UNL     1       7.002   5.378  15.073  0.00  0.00    +0.000 OA
ENDBRANCH  10  13
BRANCH   1  18
ATOM     18  O   UNL     1       7.053   5.459  19.826  0.00  0.00    +0.000 OA
ATOM     19  H   UNL     1       6.769   5.520  20.754  0.00  0.00    +0.000 HD
ENDBRANCH   1  18
TORSDOF 2
ENDMDL
MODEL 5
REMARK VINA RESULT:      -7.1      2.664      3.347
REMARK  Name = 
REMARK  2 active torsions:
REMARK  status: ('A' for Active; 'I' for Inactive)
REMARK    1  A    between atoms: O_1  and  C_2
REMARK    2  A    between atoms: C_11  and  C_12
REMARK                            x       y       z     vdW  Elec       q    Type
REMARK                         _______ _______ _______ _____ _____    ______ ____
ROOT
ATOM      1  C   UNL     1       6.768   5.140  19.037  0.00  0.00    +0.000 C 
ATOM      2  C   UNL     1       6.823   6.129  17.874  0.00  0.00    +0.000 C 
ATOM      3  C   UNL     1       6.430   5.453  16.589  0.00  0.00    +0.000 A 
ATOM      4  C   UNL     1       7.398   5.278  15.585  0.00  0.00    +0.000 A 
ATOM      5  C   UNL     1       7.071   4.646  14.389  0.00  0.00    +0.000 A 
ATOM      6  C   UNL     1       5.775   4.192  14.181  0.00  0.00    +0.000 A 
ATOM      7  C   UNL     1       4.803   4.369  15.175  0.00  0.00    +0.000 A 
ATOM      8  C   UNL     1       5.117   4.994  16.391  0.00  0.00    +0.000 A 
ATOM      9  N   UNL     1       4.130   5.122  17.393  0.00  0.00    +0.000 N 
ATOM     10  C   UNL     1       4.369   4.301  18.601  0.00  0.00    +0.000 C 
ATOM     11  C   UNL     1       5.355   4.970  19.575  0.00  0.00    +0.000 C 
ATOM     12  H   UNL     1       3.218   4.881  17.005  0.00  0.00    +0.000 HD
ENDROOT
BRANCH  10  13
ATOM     13  C   UNL     1       3.098   4.056  19.379  0.00  0.00    +0.000 A 
ATOM     14  C   UNL     1       1.817   4.565  19.279  0.00  0.00    +0.000 A 
ATOM     15  C   UNL     1       1.102   4.074  20.396  0.00  0.00    +0.000 A 
ATOM     16  C   UNL     1       1.978   3.268  21.086  0.00  0.00    +0.000 A 
ATOM     17  O   UNL     1       3.189   3.243  20.473  0.00  0.00    +0.000 OA
ENDBRANCH  10  13
BRANCH   1  18
ATOM     18  O   UNL     1       7.580   5.631  20.111  0.00  0.00    +0.000 OA
ATOM     19  H   UNL     1       8.248   6.221  19.722  0.00  0.00    +0.000 HD
ENDBRANCH   1  18
TORSDOF 2
ENDMDL
MODEL 6
REMARK VINA RESULT:      -7.0      2.458      5.454
REMARK  Name = 
REMARK  2 active torsions:
REMARK  status: ('A' for Active; 'I' for Inactive)
REMARK    1  A    between atoms: O_1  and  C_2
REMARK    2  A    between atoms: C_11  and  C_12
REMARK                            x       y       z     vdW  Elec       q    Type
REMARK                         _______ _______ _______ _____ _____    ______ ____
ROOT
ATOM      1  C   UNL     1       3.082   6.738  18.077  0.00  0.00    +0.000 C 
ATOM      2  C   UNL     1       3.103   6.110  19.468  0.00  0.00    +0.000 C 
ATOM      3  C   UNL     1       2.580   4.700  19.419  0.00  0.00    +0.000 A 
ATOM      4  C   UNL     1       1.363   4.400  20.054  0.00  0.00    +0.000 A 
ATOM      5  C   UNL     1       0.844   3.109  20.016  0.00  0.00    +0.000 A 
ATOM      6  C   UNL     1       1.540   2.106  19.354  0.00  0.00    +0.000 A 
ATOM      7  C   UNL     1       2.757   2.396  18.723  0.00  0.00    +0.000 A 
ATOM      8  C   UNL     1       3.289   3.694  18.741  0.00  0.00    +0.000 A 
ATOM      9  N   UNL     1       4.496   3.971  18.062  0.00  0.00    +0.000 N 
ATOM     10  C   UNL     1       4.350   4.842  16.875  0.00  0.00    +0.000 C 
ATOM     11  C   UNL     1       4.293   6.333  17.249  0.00  0.00    +0.000 C 
ATOM     12  H   UNL     1       4.935   3.095  17.777  0.00  0.00    +0.000 HD
ENDROOT
BRANCH  10  13
ATOM     13  C   UNL     1       5.503   4.686  15.912  0.00  0.00    +0.000 A 
ATOM     14  C   UNL     1       6.828   5.079  15.955  0.00  0.00    +0.000 A 
ATOM     15  C   UNL     1       7.372   4.791  14.682  0.00  0.00    +0.000 A 
ATOM     16  C   UNL     1       6.360   4.207  13.956  0.00  0.00    +0.000 A 
ATOM     17  O   UNL     1       5.225   4.131  14.696  0.00  0.00    +0.000 OA
ENDBRANCH  10  13
BRANCH   1  18
ATOM     18  O   UNL     1       3.107   8.166  18.204  0.00  0.00    +0.000 OA
ATOM     19  H   UNL     1       2.480   8.404  18.908  0.00  0.00    +0.000 HD
ENDBRANCH   1  18
TORSDOF 2
ENDMDL
MODEL 7
REMARK VINA RESULT:      -6.8      2.666      5.725
REMARK  Name = 
REMARK  2 active torsions:
REMARK  status: ('A' for Active; 'I' for Inactive)
REMARK    1  A    between atoms: O_1  and  C_2
REMARK    2  A    between atoms: C_11  and  C_12
REMARK                            x       y       z     vdW  Elec       q    Type
REMARK                         _______ _______ _______ _____ _____    ______ ____
ROOT
ATOM      1  C   UNL     1       3.235   2.417  18.683  0.00  0.00    +0.000 C 
ATOM      2  C   UNL     1       1.876   3.110  18.616  0.00  0.00    +0.000 C 
ATOM      3  C   UNL     1       1.972   4.512  19.152  0.00  0.00    +0.000 A 
ATOM      4  C   UNL     1       1.306   4.834  20.347  0.00  0.00    +0.000 A 
ATOM      5  C   UNL     1       1.384   6.117  20.878  0.00  0.00    +0.000 A 
ATOM      6  C   UNL     1       2.119   7.093  20.216  0.00  0.00    +0.000 A 
ATOM      7  C   UNL     1       2.780   6.782  19.020  0.00  0.00    +0.000 A 
ATOM      8  C   UNL     1       2.722   5.490  18.477  0.00  0.00    +0.000 A 
ATOM      9  N   UNL     1       3.432   5.190  17.294  0.00  0.00    +0.000 N 
ATOM     10  C   UNL     1       4.571   4.263  17.476  0.00  0.00    +0.000 C 
ATOM     11  C   UNL     1       4.126   2.791  17.507  0.00  0.00    +0.000 C 
ATOM     12  H   UNL     1       3.774   6.054  16.874  0.00  0.00    +0.000 HD
ENDROOT
BRANCH  10  13
ATOM     13  C   UNL     1       5.582   4.382  16.362  0.00  0.00    +0.000 A 
ATOM     14  C   UNL     1       6.884   4.845  16.314  0.00  0.00    +0.000 A 
ATOM     15  C   UNL     1       7.255   4.857  14.948  0.00  0.00    +0.000 A 
ATOM     16  C   UNL     1       6.173   4.366  14.254  0.00  0.00    +0.000 A 
ATOM     17  O   UNL     1       5.157   4.067  15.103  0.00  0.00    +0.000 OA
ENDBRANCH  10  13
BRANCH   1  18
ATOM     18  O   UNL     1       3.043   0.997  18.642  0.00  0.00    +0.000 OA
ATOM     19  H   UNL     1       3.902   0.596  18.425  0.00  0.00    +0.000 HD
ENDBRANCH   1  18
TORSDOF 2
ENDMDL
MODEL 8
REMARK VINA RESULT:      -6.7      2.480      4.950
REMARK  Name = 
REMARK  2 active torsions:
REMARK  status: ('A' for Active; 'I' for Inactive)
REMARK    1  A    between atoms: O_1  and  C_2
REMARK    2  A    between atoms: C_11  and  C_12
REMARK                            x       y       z     vdW  Elec       q    Type
REMARK                         _______ _______ _______ _____ _____    ______ ____
ROOT
ATOM      1  C   UNL     1       5.030   5.818  17.581  0.00  0.00    +0.000 C 
ATOM      2  C   UNL     1       4.448   4.697  16.723  0.00  0.00    +0.000 C 
ATOM      3  C   UNL     1       3.505   3.849  17.533  0.00  0.00    +0.000 A 
ATOM      4  C   UNL     1       3.854   2.518  17.816  0.00  0.00    +0.000 A 
ATOM      5  C   UNL     1       3.010   1.710  18.572  0.00  0.00    +0.000 A 
ATOM      6  C   UNL     1       1.808   2.221  19.044  0.00  0.00    +0.000 A 
ATOM      7  C   UNL     1       1.450   3.546  18.761  0.00  0.00    +0.000 A 
ATOM      8  C   UNL     1       2.293   4.378  18.009  0.00  0.00    +0.000 A 
ATOM      9  N   UNL     1       1.930   5.722  17.773  0.00  0.00    +0.000 N 
ATOM     10  C   UNL     1       2.780   6.720  18.460  0.00  0.00    +0.000 C 
ATOM     11  C   UNL     1       4.083   7.003  17.691  0.00  0.00    +0.000 C 
ATOM     12  H   UNL     1       0.960   5.866  18.053  0.00  0.00    +0.000 HD
ENDROOT
BRANCH  10  13
ATOM     13  C   UNL     1       2.079   8.048  18.619  0.00  0.00    +0.000 A 
ATOM     14  C   UNL     1       1.892   9.123  17.771  0.00  0.00    +0.000 A 
ATOM     15  C   UNL     1       1.295  10.145  18.546  0.00  0.00    +0.000 A 
ATOM     16  C   UNL     1       1.122   9.618  19.805  0.00  0.00    +0.000 A 
ATOM     17  O   UNL     1       1.586   8.344  19.857  0.00  0.00    +0.000 OA
ENDBRANCH  10  13
BRANCH   1  18
ATOM     18  O   UNL     1       6.242   6.292  16.979  0.00  0.00    +0.000 OA
ATOM     19  H   UNL     1       6.533   7.067  17.489  0.00  0.00    +0.000 HD
ENDBRANCH   1  18
TORSDOF 2
ENDMDL
MODEL 9
REMARK VINA RESULT:      -6.6      3.096      5.731
REMARK  Name = 
REMARK  2 active torsions:
REMARK  status: ('A' for Active; 'I' for Inactive)
REMARK    1  A    between atoms: O_1  and  C_2
REMARK    2  A    between atoms: C_11  and  C_12
REMARK                            x       y       z     vdW  Elec       q    Type
REMARK                         _______ _______ _______ _____ _____    ______ ____
ROOT
ATOM      1  C   UNL     1       3.741   6.431  17.632  0.00  0.00    +0.000 C 
ATOM      2  C   UNL     1       4.051   5.695  18.933  0.00  0.00    +0.000 C 
ATOM      3  C   UNL     1       3.515   4.291  18.885  0.00  0.00    +0.000 A 
ATOM      4  C   UNL     1       2.458   3.932  19.740  0.00  0.00    +0.000 A 
ATOM      5  C   UNL     1       1.930   2.646  19.712  0.00  0.00    +0.000 A 
ATOM      6  C   UNL     1       2.458   1.702  18.839  0.00  0.00    +0.000 A 
ATOM      7  C   UNL     1       3.516   2.050  17.989  0.00  0.00    +0.000 A 
ATOM      8  C   UNL     1       4.054   3.346  17.995  0.00  0.00    +0.000 A 
ATOM      9  N   UNL     1       5.091   3.684  17.098  0.00  0.00    +0.000 N 
ATOM     10  C   UNL     1       4.704   4.645  16.042  0.00  0.00    +0.000 C 
ATOM     11  C   UNL     1       4.743   6.102  16.536  0.00  0.00    +0.000 C 
ATOM     12  H   UNL     1       5.450   2.836  16.659  0.00  0.00    +0.000 HD
ENDROOT
BRANCH  10  13
ATOM     13  C   UNL     1       5.624   4.573  14.847  0.00  0.00    +0.000 A 
ATOM     14  C   UNL     1       5.649   3.770  13.722  0.00  0.00    +0.000 A 
ATOM     15  C   UNL     1       6.853   4.070  13.042  0.00  0.00    +0.000 A 
ATOM     16  C   UNL     1       7.467   5.062  13.771  0.00  0.00    +0.000 A 
ATOM     17  O   UNL     1       6.726   5.380  14.863  0.00  0.00    +0.000 OA
ENDBRANCH  10  13
BRANCH   1  18
ATOM     18  O   UNL     1       3.807   7.845  17.863  0.00  0.00    +0.000 OA
ATOM     19  H   UNL     1       3.820   8.279  16.993  0.00  0.00    +0.000 HD
ENDBRANCH   1  18
TORSDOF 2
ENDMDL
