MODEL 1
REMARK VINA RESULT:      -7.2      0.000      0.000
REMARK  Name = 
REMARK  11 active torsions:
REMARK  status: ('A' for Active; 'I' for Inactive)
REMARK    1  A    between atoms: C_1  and  C_2
REMARK    2  A    between atoms: C_2  and  O_3
REMARK    3  A    between atoms: C_2  and  C_19
REMARK    4  A    between atoms: O_3  and  C_4
REMARK    5  A    between atoms: C_4  and  C_6
REMARK    6  A    between atoms: C_9  and  O_10
REMARK    7  A    between atoms: O_10  and  C_11
REMARK    8  A    between atoms: C_11  and  C_12
REMARK    9  A    between atoms: N_21  and  C_22
REMARK   10  A    between atoms: N_21  and  C_23
REMARK   11  A    between atoms: C_23  and  C_24
REMARK                            x       y       z     vdW  Elec       q    Type
REMARK                         _______ _______ _______ _____ _____    ______ ____
ROOT
ATOM      1  C   UNL     1       0.854  10.000  18.205  0.00  0.00    +0.000 C 
ATOM      2  O   UNL     1      -0.285   9.886  17.787  0.00  0.00    +0.000 OA
ENDROOT
BRANCH   1   3
ATOM      3  C   UNL     1       1.632   8.843  18.690  0.00  0.00    +0.000 A 
ATOM      4  C   UNL     1       2.482   8.240  17.763  0.00  0.00    +0.000 A 
ATOM      5  C   UNL     1       3.166   7.081  18.099  0.00  0.00    +0.000 A 
ATOM      6  C   UNL     1       3.015   6.508  19.363  0.00  0.00    +0.000 A 
ATOM      7  C   UNL     1       2.178   7.120  20.300  0.00  0.00    +0.000 A 
ATOM      8  C   UNL     1       1.485   8.289  19.967  0.00  0.00    +0.000 A 
BRANCH   6   9
ATOM      9  O   UNL     1       3.631   5.349  19.770  0.00  0.00    +0.000 OA
BRANCH   9  10
ATOM     10  C   UNL     1       3.876   4.418  18.712  0.00  0.00    +0.000 C 
BRANCH  10  11
ATOM     11  C   UNL     1       2.960   3.210  18.797  0.00  0.00    +0.000 C 
ATOM     12  C   UNL     1       1.642   3.398  18.064  0.00  0.00    +0.000 C 
ATOM     13  C   UNL     1       0.706   2.549  18.887  0.00  0.00    +0.000 C 
ATOM     14  C   UNL     1       1.221   2.777  20.292  0.00  0.00    +0.000 C 
ATOM     15  O   UNL     1       2.634   2.974  20.182  0.00  0.00    +0.000 OA
ENDBRANCH  10  11
ENDBRANCH   9  10
ENDBRANCH   6   9
ENDBRANCH   1   3
BRANCH   1  16
ATOM     16  O   UNL     1       1.550  11.146  18.381  0.00  0.00    +0.000 OA
BRANCH  16  18
ATOM     17  C   UNL     1       1.804  13.406  19.047  0.00  0.00    +0.000 C 
ATOM     18  C   UNL     1       0.907  12.170  19.147  0.00  0.00    +0.000 C 
BRANCH  18  19
ATOM     19  C   UNL     1       0.529  11.874  20.621  0.00  0.00    +0.000 C 
ATOM     20  O   UNL     1       1.414  11.681  21.461  0.00  0.00    +0.000 OA
ATOM     21  N   UNL     1      -0.824  11.843  20.951  0.00  0.00    +0.000 N 
ATOM     22  C   UNL     1      -1.925  12.126  20.043  0.00  0.00    +0.000 C 
BRANCH  21  23
ATOM     23  C   UNL     1      -1.176  11.381  22.287  0.00  0.00    +0.000 C 
BRANCH  23  24
ATOM     24  C   UNL     1      -1.888  12.432  23.103  0.00  0.00    +0.000 A 
ATOM     25  C   UNL     1      -3.194  12.226  23.559  0.00  0.00    +0.000 A 
ATOM     26  C   UNL     1      -3.837  13.200  24.325  0.00  0.00    +0.000 A 
ATOM     27  C   UNL     1      -3.183  14.393  24.631  0.00  0.00    +0.000 A 
ATOM     28  C   UNL     1      -1.889  14.617  24.166  0.00  0.00    +0.000 A 
ATOM     29  C   UNL     1      -1.246  13.644  23.405  0.00  0.00    +0.000 A 
ENDBRANCH  23  24
ENDBRANCH  21  23
ENDBRANCH  18  19
ENDBRANCH  16  18
ENDBRANCH   1  16
TORSDOF 9
ENDMDL
MODEL 2
REMARK VINA RESULT:      -7.0      0.641      1.128
REMARK  Name = 
REMARK  11 active torsions:
REMARK  status: ('A' for Active; 'I' for Inactive)
REMARK    1  A    between atoms: C_1  and  C_2
REMARK    2  A    between atoms: C_2  and  O_3
REMARK    3  A    between atoms: C_2  and  C_19
REMARK    4  A    between atoms: O_3  and  C_4
REMARK    5  A    between atoms: C_4  and  C_6
REMARK    6  A    between atoms: C_9  and  O_10
REMARK    7  A    between atoms: O_10  and  C_11
REMARK    8  A    between atoms: C_11  and  C_12
REMARK    9  A    between atoms: N_21  and  C_22
REMARK   10  A    between atoms: N_21  and  C_23
REMARK   11  A    between atoms: C_23  and  C_24
REMARK                            x       y       z     vdW  Elec       q    Type
REMARK                         _______ _______ _______ _____ _____    ______ ____
ROOT
ATOM      1  C   UNL     1       1.442   9.358  18.106  0.00  0.00    +0.000 C 
ATOM      2  O   UNL     1       0.388   9.262  17.504  0.00  0.00    +0.000 OA
ENDROOT
BRANCH   1   3
ATOM      3  C   UNL     1       2.235   8.174  18.495  0.00  0.00    +0.000 A 
ATOM      4  C   UNL     1       3.172   7.728  17.563  0.00  0.00    +0.000 A 
ATOM      5  C   UNL     1       3.882   6.559  17.797  0.00  0.00    +0.000 A 
ATOM      6  C   UNL     1       3.670   5.820  18.961  0.00  0.00    +0.000 A 
ATOM      7  C   UNL     1       2.744   6.274  19.905  0.00  0.00    +0.000 A 
ATOM      8  C   UNL     1       2.025   7.452  19.675  0.00  0.00    +0.000 A 
BRANCH   6   9
ATOM      9  O   UNL     1       4.306   4.639  19.260  0.00  0.00    +0.000 OA
BRANCH   9  10
ATOM     10  C   UNL     1       4.148   3.625  18.263  0.00  0.00    +0.000 C 
BRANCH  10  11
ATOM     11  C   UNL     1       3.009   2.677  18.596  0.00  0.00    +0.000 C 
ATOM     12  C   UNL     1       1.675   3.106  18.010  0.00  0.00    +0.000 C 
ATOM     13  C   UNL     1       0.702   2.572  19.032  0.00  0.00    +0.000 C 
ATOM     14  C   UNL     1       1.450   2.791  20.329  0.00  0.00    +0.000 C 
ATOM     15  O   UNL     1       2.842   2.642  20.028  0.00  0.00    +0.000 OA
ENDBRANCH  10  11
ENDBRANCH   9  10
ENDBRANCH   6   9
ENDBRANCH   1   3
BRANCH   1  16
ATOM     16  O   UNL     1       2.011  10.487  18.587  0.00  0.00    +0.000 OA
BRANCH  16  18
ATOM     17  C   UNL     1       1.787  12.819  18.944  0.00  0.00    +0.000 C 
ATOM     18  C   UNL     1       1.122  11.456  19.152  0.00  0.00    +0.000 C 
BRANCH  18  19
ATOM     19  C   UNL     1       0.661  11.280  20.621  0.00  0.00    +0.000 C 
ATOM     20  O   UNL     1       1.478  10.966  21.494  0.00  0.00    +0.000 OA
ATOM     21  N   UNL     1      -0.685  11.495  20.910  0.00  0.00    +0.000 N 
ATOM     22  C   UNL     1      -1.696  11.933  19.961  0.00  0.00    +0.000 C 
BRANCH  21  23
ATOM     23  C   UNL     1      -1.145  11.146  22.248  0.00  0.00    +0.000 C 
BRANCH  23  24
ATOM     24  C   UNL     1      -1.768  12.311  22.976  0.00  0.00    +0.000 A 
ATOM     25  C   UNL     1      -1.043  13.484  23.209  0.00  0.00    +0.000 A 
ATOM     26  C   UNL     1      -1.635  14.562  23.871  0.00  0.00    +0.000 A 
ATOM     27  C   UNL     1      -2.953  14.471  24.314  0.00  0.00    +0.000 A 
ATOM     28  C   UNL     1      -3.679  13.301  24.104  0.00  0.00    +0.000 A 
ATOM     29  C   UNL     1      -3.090  12.228  23.441  0.00  0.00    +0.000 A 
ENDBRANCH  23  24
ENDBRANCH  21  23
ENDBRANCH  18  19
ENDBRANCH  16  18
ENDBRANCH   1  16
TORSDOF 9
ENDMDL
MODEL 3
REMARK VINA RESULT:      -6.9      6.309     10.586
REMARK  Name = 
REMARK  11 active torsions:
REMARK  status: ('A' for Active; 'I' for Inactive)
REMARK    1  A    between atoms: C_1  and  C_2
REMARK    2  A    between atoms: C_2  and  O_3
REMARK    3  A    between atoms: C_2  and  C_19
REMARK    4  A    between atoms: O_3  and  C_4
REMARK    5  A    between atoms: C_4  and  C_6
REMARK    6  A    between atoms: C_9  and  O_10
REMARK    7  A    between atoms: O_10  and  C_11
REMARK    8  A    between atoms: C_11  and  C_12
REMARK    9  A    between atoms: N_21  and  C_22
REMARK   10  A    between atoms: N_21  and  C_23
REMARK   11  A    between atoms: C_23  and  C_24
REMARK                            x       y       z     vdW  Elec       q    Type
REMARK                         _______ _______ _______ _____ _____    ______ ____
ROOT
ATOM      1  C   UNL     1       8.123   8.028  18.160  0.00  0.00    +0.000 C 
ATOM      2  O   UNL     1       8.497   7.182  18.952  0.00  0.00    +0.000 OA
ENDROOT
BRANCH   1   3
ATOM      3  C   UNL     1       8.530   9.444  18.272  0.00  0.00    +0.000 A 
ATOM      4  C   UNL     1       9.328   9.769  19.369  0.00  0.00    +0.000 A 
ATOM      5  C   UNL     1       9.664  11.093  19.614  0.00  0.00    +0.000 A 
ATOM      6  C   UNL     1       9.210  12.110  18.772  0.00  0.00    +0.000 A 
ATOM      7  C   UNL     1       8.425  11.783  17.662  0.00  0.00    +0.000 A 
ATOM      8  C   UNL     1       8.083  10.450  17.409  0.00  0.00    +0.000 A 
BRANCH   6   9
ATOM      9  O   UNL     1       9.470  13.446  18.955  0.00  0.00    +0.000 OA
BRANCH   9  10
ATOM     10  C   UNL     1       8.314  14.283  18.850  0.00  0.00    +0.000 C 
BRANCH  10  11
ATOM     11  C   UNL     1       8.554  15.465  17.926  0.00  0.00    +0.000 C 
ATOM     12  C   UNL     1      10.003  15.921  17.893  0.00  0.00    +0.000 C 
ATOM     13  C   UNL     1       9.856  17.399  17.630  0.00  0.00    +0.000 C 
ATOM     14  C   UNL     1       8.616  17.743  18.427  0.00  0.00    +0.000 C 
ATOM     15  O   UNL     1       7.777  16.584  18.397  0.00  0.00    +0.000 OA
ENDBRANCH  10  11
ENDBRANCH   9  10
ENDBRANCH   6   9
ENDBRANCH   1   3
BRANCH   1  16
ATOM     16  O   UNL     1       7.247   7.867  17.143  0.00  0.00    +0.000 OA
BRANCH  16  18
ATOM     17  C   UNL     1       6.933   5.891  15.872  0.00  0.00    +0.000 C 
ATOM     18  C   UNL     1       6.501   6.645  17.133  0.00  0.00    +0.000 C 
BRANCH  18  19
ATOM     19  C   UNL     1       4.957   6.712  17.239  0.00  0.00    +0.000 C 
ATOM     20  O   UNL     1       4.299   7.293  16.369  0.00  0.00    +0.000 OA
ATOM     21  N   UNL     1       4.354   6.095  18.333  0.00  0.00    +0.000 N 
ATOM     22  C   UNL     1       5.043   5.334  19.363  0.00  0.00    +0.000 C 
BRANCH  21  23
ATOM     23  C   UNL     1       2.927   6.322  18.526  0.00  0.00    +0.000 C 
BRANCH  23  24
ATOM     24  C   UNL     1       2.181   5.068  18.909  0.00  0.00    +0.000 A 
ATOM     25  C   UNL     1       1.897   4.082  17.959  0.00  0.00    +0.000 A 
ATOM     26  C   UNL     1       1.218   2.919  18.328  0.00  0.00    +0.000 A 
ATOM     27  C   UNL     1       0.809   2.738  19.648  0.00  0.00    +0.000 A 
ATOM     28  C   UNL     1       1.069   3.722  20.599  0.00  0.00    +0.000 A 
ATOM     29  C   UNL     1       1.749   4.880  20.232  0.00  0.00    +0.000 A 
ENDBRANCH  23  24
ENDBRANCH  21  23
ENDBRANCH  18  19
ENDBRANCH  16  18
ENDBRANCH   1  16
TORSDOF 9
ENDMDL
MODEL 4
REMARK VINA RESULT:      -6.9      4.628     10.769
REMARK  Name = 
REMARK  11 active torsions:
REMARK  status: ('A' for Active; 'I' for Inactive)
REMARK    1  A    between atoms: C_1  and  C_2
REMARK    2  A    between atoms: C_2  and  O_3
REMARK    3  A    between atoms: C_2  and  C_19
REMARK    4  A    between atoms: O_3  and  C_4
REMARK    5  A    between atoms: C_4  and  C_6
REMARK    6  A    between atoms: C_9  and  O_10
REMARK    7  A    between atoms: O_10  and  C_11
REMARK    8  A    between atoms: C_11  and  C_12
REMARK    9  A    between atoms: N_21  and  C_22
REMARK   10  A    between atoms: N_21  and  C_23
REMARK   11  A    between atoms: C_23  and  C_24
REMARK                            x       y       z     vdW  Elec       q    Type
REMARK                         _______ _______ _______ _____ _____    ______ ____
ROOT
ATOM      1  C   UNL     1       3.910   5.758  18.226  0.00  0.00    +0.000 C 
ATOM      2  O   UNL     1       3.631   4.573  18.237  0.00  0.00    +0.000 OA
ENDROOT
BRANCH   1   3
ATOM      3  C   UNL     1       2.963   6.792  18.689  0.00  0.00    +0.000 A 
ATOM      4  C   UNL     1       2.727   7.849  17.810  0.00  0.00    +0.000 A 
ATOM      5  C   UNL     1       1.938   8.920  18.206  0.00  0.00    +0.000 A 
ATOM      6  C   UNL     1       1.374   8.953  19.482  0.00  0.00    +0.000 A 
ATOM      7  C   UNL     1       1.594   7.886  20.359  0.00  0.00    +0.000 A 
ATOM      8  C   UNL     1       2.388   6.803  19.965  0.00  0.00    +0.000 A 
BRANCH   6   9
ATOM      9  O   UNL     1       0.606   9.983  19.967  0.00  0.00    +0.000 OA
BRANCH   9  10
ATOM     10  C   UNL     1      -0.015  10.775  18.949  0.00  0.00    +0.000 C 
BRANCH  10  11
ATOM     11  C   UNL     1      -1.441  10.330  18.677  0.00  0.00    +0.000 C 
ATOM     12  C   UNL     1      -1.661   9.839  17.256  0.00  0.00    +0.000 C 
ATOM     13  C   UNL     1      -3.103  10.214  17.018  0.00  0.00    +0.000 C 
ATOM     14  C   UNL     1      -3.214  11.533  17.752  0.00  0.00    +0.000 C 
ATOM     15  O   UNL     1      -2.320  11.457  18.868  0.00  0.00    +0.000 OA
ENDBRANCH  10  11
ENDBRANCH   9  10
ENDBRANCH   6   9
ENDBRANCH   1   3
BRANCH   1  16
ATOM     16  O   UNL     1       5.032   6.331  17.735  0.00  0.00    +0.000 OA
BRANCH  16  18
ATOM     17  C   UNL     1       7.145   5.815  18.678  0.00  0.00    +0.000 C 
ATOM     18  C   UNL     1       6.161   5.468  17.558  0.00  0.00    +0.000 C 
BRANCH  18  19
ATOM     19  C   UNL     1       6.872   5.442  16.181  0.00  0.00    +0.000 C 
ATOM     20  O   UNL     1       7.733   6.287  15.912  0.00  0.00    +0.000 OA
ATOM     21  N   UNL     1       6.511   4.442  15.282  0.00  0.00    +0.000 N 
ATOM     22  C   UNL     1       5.561   3.370  15.543  0.00  0.00    +0.000 C 
BRANCH  21  23
ATOM     23  C   UNL     1       7.042   4.535  13.928  0.00  0.00    +0.000 C 
BRANCH  23  24
ATOM     24  C   UNL     1       6.222   3.766  12.922  0.00  0.00    +0.000 A 
ATOM     25  C   UNL     1       6.725   2.609  12.318  0.00  0.00    +0.000 A 
ATOM     26  C   UNL     1       5.951   1.897  11.400  0.00  0.00    +0.000 A 
ATOM     27  C   UNL     1       4.672   2.342  11.070  0.00  0.00    +0.000 A 
ATOM     28  C   UNL     1       4.168   3.504  11.650  0.00  0.00    +0.000 A 
ATOM     29  C   UNL     1       4.938   4.212  12.569  0.00  0.00    +0.000 A 
ENDBRANCH  23  24
ENDBRANCH  21  23
ENDBRANCH  18  19
ENDBRANCH  16  18
ENDBRANCH   1  16
TORSDOF 9
ENDMDL
MODEL 5
REMARK VINA RESULT:      -6.6      2.321      3.137
REMARK  Name = 
REMARK  11 active torsions:
REMARK  status: ('A' for Active; 'I' for Inactive)
REMARK    1  A    between atoms: C_1  and  C_2
REMARK    2  A    between atoms: C_2  and  O_3
REMARK    3  A    between atoms: C_2  and  C_19
REMARK    4  A    between atoms: O_3  and  C_4
REMARK    5  A    between atoms: C_4  and  C_6
REMARK    6  A    between atoms: C_9  and  O_10
REMARK    7  A    between atoms: O_10  and  C_11
REMARK    8  A    between atoms: C_11  and  C_12
REMARK    9  A    between atoms: N_21  and  C_22
REMARK   10  A    between atoms: N_21  and  C_23
REMARK   11  A    between atoms: C_23  and  C_24
REMARK                            x       y       z     vdW  Elec       q    Type
REMARK                         _______ _______ _______ _____ _____    ______ ____
ROOT
ATOM      1  C   UNL     1       1.744   9.071  18.359  0.00  0.00    +0.000 C 
ATOM      2  O   UNL     1       1.925   9.775  17.383  0.00  0.00    +0.000 OA
ENDROOT
BRANCH   1   3
ATOM      3  C   UNL     1       2.531   7.845  18.600  0.00  0.00    +0.000 A 
ATOM      4  C   UNL     1       3.452   7.500  17.611  0.00  0.00    +0.000 A 
ATOM      5  C   UNL     1       4.154   6.307  17.701  0.00  0.00    +0.000 A 
ATOM      6  C   UNL     1       3.950   5.441  18.777  0.00  0.00    +0.000 A 
ATOM      7  C   UNL     1       3.040   5.793  19.779  0.00  0.00    +0.000 A 
ATOM      8  C   UNL     1       2.329   6.995  19.694  0.00  0.00    +0.000 A 
BRANCH   6   9
ATOM      9  O   UNL     1       4.579   4.230  18.931  0.00  0.00    +0.000 OA
BRANCH   9  10
ATOM     10  C   UNL     1       4.325   3.304  17.871  0.00  0.00    +0.000 C 
BRANCH  10  11
ATOM     11  C   UNL     1       3.128   2.418  18.168  0.00  0.00    +0.000 C 
ATOM     12  C   UNL     1       1.798   3.056  17.805  0.00  0.00    +0.000 C 
ATOM     13  C   UNL     1       0.871   2.445  18.826  0.00  0.00    +0.000 C 
ATOM     14  C   UNL     1       1.754   2.373  20.054  0.00  0.00    +0.000 C 
ATOM     15  O   UNL     1       3.089   2.155  19.585  0.00  0.00    +0.000 OA
ENDBRANCH  10  11
ENDBRANCH   9  10
ENDBRANCH   6   9
ENDBRANCH   1   3
BRANCH   1  16
ATOM     16  O   UNL     1       0.788   9.213  19.305  0.00  0.00    +0.000 OA
BRANCH  16  18
ATOM     17  C   UNL     1       0.505  10.071  21.497  0.00  0.00    +0.000 C 
ATOM     18  C   UNL     1       0.798  10.441  20.040  0.00  0.00    +0.000 C 
BRANCH  18  19
ATOM     19  C   UNL     1      -0.114  11.602  19.568  0.00  0.00    +0.000 C 
ATOM     20  O   UNL     1      -1.342  11.502  19.659  0.00  0.00    +0.000 OA
ATOM     21  N   UNL     1       0.499  12.741  19.052  0.00  0.00    +0.000 N 
ATOM     22  C   UNL     1       1.934  12.969  18.973  0.00  0.00    +0.000 C 
BRANCH  21  23
ATOM     23  C   UNL     1      -0.361  13.745  18.438  0.00  0.00    +0.000 C 
BRANCH  23  24
ATOM     24  C   UNL     1      -0.402  15.037  19.216  0.00  0.00    +0.000 A 
ATOM     25  C   UNL     1      -0.792  15.057  20.558  0.00  0.00    +0.000 A 
ATOM     26  C   UNL     1      -0.812  16.257  21.272  0.00  0.00    +0.000 A 
ATOM     27  C   UNL     1      -0.450  17.448  20.645  0.00  0.00    +0.000 A 
ATOM     28  C   UNL     1      -0.077  17.444  19.303  0.00  0.00    +0.000 A 
ATOM     29  C   UNL     1      -0.055  16.246  18.592  0.00  0.00    +0.000 A 
ENDBRANCH  23  24
ENDBRANCH  21  23
ENDBRANCH  18  19
ENDBRANCH  16  18
ENDBRANCH   1  16
TORSDOF 9
ENDMDL
MODEL 6
REMARK VINA RESULT:      -6.6      3.131      9.682
REMARK  Name = 
REMARK  11 active torsions:
REMARK  status: ('A' for Active; 'I' for Inactive)
REMARK    1  A    between atoms: C_1  and  C_2
REMARK    2  A    between atoms: C_2  and  O_3
REMARK    3  A    between atoms: C_2  and  C_19
REMARK    4  A    between atoms: O_3  and  C_4
REMARK    5  A    between atoms: C_4  and  C_6
REMARK    6  A    between atoms: C_9  and  O_10
REMARK    7  A    between atoms: O_10  and  C_11
REMARK    8  A    between atoms: C_11  and  C_12
REMARK    9  A    between atoms: N_21  and  C_22
REMARK   10  A    between atoms: N_21  and  C_23
REMARK   11  A    between atoms: C_23  and  C_24
REMARK                            x       y       z     vdW  Elec       q    Type
REMARK                         _______ _______ _______ _____ _____    ______ ____
ROOT
ATOM      1  C   UNL     1       2.952   5.965  20.130  0.00  0.00    +0.000 C 
ATOM      2  O   UNL     1       4.121   5.796  19.834  0.00  0.00    +0.000 OA
ENDROOT
BRANCH   1   3
ATOM      3  C   UNL     1       2.214   7.187  19.750  0.00  0.00    +0.000 A 
ATOM      4  C   UNL     1       2.367   7.613  18.431  0.00  0.00    +0.000 A 
ATOM      5  C   UNL     1       1.800   8.811  18.018  0.00  0.00    +0.000 A 
ATOM      6  C   UNL     1       1.073   9.599  18.912  0.00  0.00    +0.000 A 
ATOM      7  C   UNL     1       0.904   9.165  20.230  0.00  0.00    +0.000 A 
ATOM      8  C   UNL     1       1.473   7.958  20.652  0.00  0.00    +0.000 A 
BRANCH   6   9
ATOM      9  O   UNL     1       0.504  10.809  18.597  0.00  0.00    +0.000 OA
BRANCH   9  10
ATOM     10  C   UNL     1      -0.355  11.329  19.616  0.00  0.00    +0.000 C 
BRANCH  10  11
ATOM     11  C   UNL     1      -0.212  12.834  19.762  0.00  0.00    +0.000 C 
ATOM     12  C   UNL     1       0.362  13.509  18.528  0.00  0.00    +0.000 C 
ATOM     13  C   UNL     1       1.101  14.679  19.130  0.00  0.00    +0.000 C 
ATOM     14  C   UNL     1       1.649  14.085  20.409  0.00  0.00    +0.000 C 
ATOM     15  O   UNL     1       0.699  13.108  20.846  0.00  0.00    +0.000 OA
ENDBRANCH  10  11
ENDBRANCH   9  10
ENDBRANCH   6   9
ENDBRANCH   1   3
BRANCH   1  16
ATOM     16  O   UNL     1       2.176   5.163  20.893  0.00  0.00    +0.000 OA
BRANCH  16  18
ATOM     17  C   UNL     1       1.393   3.015  21.521  0.00  0.00    +0.000 C 
ATOM     18  C   UNL     1       1.855   3.879  20.345  0.00  0.00    +0.000 C 
BRANCH  18  19
ATOM     19  C   UNL     1       2.922   3.141  19.497  0.00  0.00    +0.000 C 
ATOM     20  O   UNL     1       3.791   2.460  20.051  0.00  0.00    +0.000 OA
ATOM     21  N   UNL     1       2.856   3.272  18.112  0.00  0.00    +0.000 N 
ATOM     22  C   UNL     1       1.829   3.995  17.377  0.00  0.00    +0.000 C 
BRANCH  21  23
ATOM     23  C   UNL     1       3.965   2.734  17.335  0.00  0.00    +0.000 C 
BRANCH  23  24
ATOM     24  C   UNL     1       4.976   3.787  16.951  0.00  0.00    +0.000 A 
ATOM     25  C   UNL     1       4.933   4.401  15.696  0.00  0.00    +0.000 A 
ATOM     26  C   UNL     1       5.865   5.384  15.357  0.00  0.00    +0.000 A 
ATOM     27  C   UNL     1       6.854   5.753  16.268  0.00  0.00    +0.000 A 
ATOM     28  C   UNL     1       6.918   5.134  17.514  0.00  0.00    +0.000 A 
ATOM     29  C   UNL     1       5.987   4.156  17.853  0.00  0.00    +0.000 A 
ENDBRANCH  23  24
ENDBRANCH  21  23
ENDBRANCH  18  19
ENDBRANCH  16  18
ENDBRANCH   1  16
TORSDOF 9
ENDMDL
MODEL 7
REMARK VINA RESULT:      -6.6      1.413      2.102
REMARK  Name = 
REMARK  11 active torsions:
REMARK  status: ('A' for Active; 'I' for Inactive)
REMARK    1  A    between atoms: C_1  and  C_2
REMARK    2  A    between atoms: C_2  and  O_3
REMARK    3  A    between atoms: C_2  and  C_19
REMARK    4  A    between atoms: O_3  and  C_4
REMARK    5  A    between atoms: C_4  and  C_6
REMARK    6  A    between atoms: C_9  and  O_10
REMARK    7  A    between atoms: O_10  and  C_11
REMARK    8  A    between atoms: C_11  and  C_12
REMARK    9  A    between atoms: N_21  and  C_22
REMARK   10  A    between atoms: N_21  and  C_23
REMARK   11  A    between atoms: C_23  and  C_24
REMARK                            x       y       z     vdW  Elec       q    Type
REMARK                         _______ _______ _______ _____ _____    ______ ____
ROOT
ATOM      1  C   UNL     1       1.780   9.100  18.396  0.00  0.00    +0.000 C 
ATOM      2  O   UNL     1       2.073   9.953  17.578  0.00  0.00    +0.000 OA
ENDROOT
BRANCH   1   3
ATOM      3  C   UNL     1       2.570   7.861  18.555  0.00  0.00    +0.000 A 
ATOM      4  C   UNL     1       3.462   7.563  17.526  0.00  0.00    +0.000 A 
ATOM      5  C   UNL     1       4.163   6.365  17.539  0.00  0.00    +0.000 A 
ATOM      6  C   UNL     1       3.985   5.450  18.577  0.00  0.00    +0.000 A 
ATOM      7  C   UNL     1       3.104   5.754  19.619  0.00  0.00    +0.000 A 
ATOM      8  C   UNL     1       2.395   6.960  19.612  0.00  0.00    +0.000 A 
BRANCH   6   9
ATOM      9  O   UNL     1       4.614   4.231  18.656  0.00  0.00    +0.000 OA
BRANCH   9  10
ATOM     10  C   UNL     1       4.262   3.326  17.605  0.00  0.00    +0.000 C 
BRANCH  10  11
ATOM     11  C   UNL     1       3.109   2.420  18.001  0.00  0.00    +0.000 C 
ATOM     12  C   UNL     1       1.743   3.040  17.758  0.00  0.00    +0.000 C 
ATOM     13  C   UNL     1       0.918   2.411  18.854  0.00  0.00    +0.000 C 
ATOM     14  C   UNL     1       1.906   2.347  19.999  0.00  0.00    +0.000 C 
ATOM     15  O   UNL     1       3.198   2.151  19.414  0.00  0.00    +0.000 OA
ENDBRANCH  10  11
ENDBRANCH   9  10
ENDBRANCH   6   9
ENDBRANCH   1   3
BRANCH   1  16
ATOM     16  O   UNL     1       0.695   9.075  19.201  0.00  0.00    +0.000 OA
BRANCH  16  18
ATOM     17  C   UNL     1       0.095   8.824  21.481  0.00  0.00    +0.000 C 
ATOM     18  C   UNL     1       0.835   9.712  20.476  0.00  0.00    +0.000 C 
BRANCH  18  19
ATOM     19  C   UNL     1       0.406  11.194  20.622  0.00  0.00    +0.000 C 
ATOM     20  O   UNL     1       1.080  11.970  21.307  0.00  0.00    +0.000 OA
ATOM     21  N   UNL     1      -0.746  11.606  19.954  0.00  0.00    +0.000 N 
ATOM     22  C   UNL     1      -1.556  10.778  19.074  0.00  0.00    +0.000 C 
BRANCH  21  23
ATOM     23  C   UNL     1      -1.246  12.943  20.246  0.00  0.00    +0.000 C 
BRANCH  23  24
ATOM     24  C   UNL     1      -2.405  12.938  21.212  0.00  0.00    +0.000 A 
ATOM     25  C   UNL     1      -2.259  12.431  22.507  0.00  0.00    +0.000 A 
ATOM     26  C   UNL     1      -3.335  12.444  23.397  0.00  0.00    +0.000 A 
ATOM     27  C   UNL     1      -4.568  12.956  22.995  0.00  0.00    +0.000 A 
ATOM     28  C   UNL     1      -4.730  13.447  21.701  0.00  0.00    +0.000 A 
ATOM     29  C   UNL     1      -3.656  13.436  20.815  0.00  0.00    +0.000 A 
ENDBRANCH  23  24
ENDBRANCH  21  23
ENDBRANCH  18  19
ENDBRANCH  16  18
ENDBRANCH   1  16
TORSDOF 9
ENDMDL
MODEL 8
REMARK VINA RESULT:      -6.6      1.406      2.178
REMARK  Name = 
REMARK  11 active torsions:
REMARK  status: ('A' for Active; 'I' for Inactive)
REMARK    1  A    between atoms: C_1  and  C_2
REMARK    2  A    between atoms: C_2  and  O_3
REMARK    3  A    between atoms: C_2  and  C_19
REMARK    4  A    between atoms: O_3  and  C_4
REMARK    5  A    between atoms: C_4  and  C_6
REMARK    6  A    between atoms: C_9  and  O_10
REMARK    7  A    between atoms: O_10  and  C_11
REMARK    8  A    between atoms: C_11  and  C_12
REMARK    9  A    between atoms: N_21  and  C_22
REMARK   10  A    between atoms: N_21  and  C_23
REMARK   11  A    between atoms: C_23  and  C_24
REMARK                            x       y       z     vdW  Elec       q    Type
REMARK                         _______ _______ _______ _____ _____    ______ ____
ROOT
ATOM      1  C   UNL     1       0.686  11.346  18.775  0.00  0.00    +0.000 C 
ATOM      2  O   UNL     1      -0.483  11.608  18.556  0.00  0.00    +0.000 OA
ENDROOT
BRANCH   1   3
ATOM      3  C   UNL     1       1.158   9.960  18.967  0.00  0.00    +0.000 A 
ATOM      4  C   UNL     1       0.975   9.419  20.240  0.00  0.00    +0.000 A 
ATOM      5  C   UNL     1       1.487   8.165  20.541  0.00  0.00    +0.000 A 
ATOM      6  C   UNL     1       2.187   7.433  19.580  0.00  0.00    +0.000 A 
ATOM      7  C   UNL     1       2.357   7.967  18.299  0.00  0.00    +0.000 A 
ATOM      8  C   UNL     1       1.842   9.230  17.989  0.00  0.00    +0.000 A 
BRANCH   6   9
ATOM      9  O   UNL     1       2.751   6.200  19.800  0.00  0.00    +0.000 OA
BRANCH   9  10
ATOM     10  C   UNL     1       1.947   5.327  20.600  0.00  0.00    +0.000 C 
BRANCH  10  11
ATOM     11  C   UNL     1       1.150   4.354  19.749  0.00  0.00    +0.000 C 
ATOM     12  C   UNL     1       1.146   2.937  20.296  0.00  0.00    +0.000 C 
ATOM     13  C   UNL     1       1.041   2.118  19.033  0.00  0.00    +0.000 C 
ATOM     14  C   UNL     1       1.887   2.917  18.065  0.00  0.00    +0.000 C 
ATOM     15  O   UNL     1       1.746   4.292  18.438  0.00  0.00    +0.000 OA
ENDBRANCH  10  11
ENDBRANCH   9  10
ENDBRANCH   6   9
ENDBRANCH   1   3
BRANCH   1  16
ATOM     16  O   UNL     1       1.700  12.221  18.964  0.00  0.00    +0.000 OA
BRANCH  16  18
ATOM     17  C   UNL     1       2.345  14.478  18.633  0.00  0.00    +0.000 C 
ATOM     18  C   UNL     1       1.328  13.559  19.315  0.00  0.00    +0.000 C 
BRANCH  18  19
ATOM     19  C   UNL     1       1.168  13.921  20.814  0.00  0.00    +0.000 C 
ATOM     20  O   UNL     1       2.062  13.640  21.618  0.00  0.00    +0.000 OA
ATOM     21  N   UNL     1      -0.001  14.570  21.204  0.00  0.00    +0.000 N 
ATOM     22  C   UNL     1      -1.070  14.998  20.314  0.00  0.00    +0.000 C 
BRANCH  21  23
ATOM     23  C   UNL     1      -0.228  14.737  22.634  0.00  0.00    +0.000 C 
BRANCH  23  24
ATOM     24  C   UNL     1      -1.417  13.954  23.134  0.00  0.00    +0.000 A 
ATOM     25  C   UNL     1      -2.457  14.588  23.822  0.00  0.00    +0.000 A 
ATOM     26  C   UNL     1      -3.559  13.856  24.268  0.00  0.00    +0.000 A 
ATOM     27  C   UNL     1      -3.626  12.483  24.037  0.00  0.00    +0.000 A 
ATOM     28  C   UNL     1      -2.588  11.838  23.369  0.00  0.00    +0.000 A 
ATOM     29  C   UNL     1      -1.490  12.568  22.921  0.00  0.00    +0.000 A 
ENDBRANCH  23  24
ENDBRANCH  21  23
ENDBRANCH  18  19
ENDBRANCH  16  18
ENDBRANCH   1  16
TORSDOF 9
ENDMDL
MODEL 9
REMARK VINA RESULT:      -6.6      1.385      1.918
REMARK  Name = 
REMARK  11 active torsions:
REMARK  status: ('A' for Active; 'I' for Inactive)
REMARK    1  A    between atoms: C_1  and  C_2
REMARK    2  A    between atoms: C_2  and  O_3
REMARK    3  A    between atoms: C_2  and  C_19
REMARK    4  A    between atoms: O_3  and  C_4
REMARK    5  A    between atoms: C_4  and  C_6
REMARK    6  A    between atoms: C_9  and  O_10
REMARK    7  A    between atoms: O_10  and  C_11
REMARK    8  A    between atoms: C_11  and  C_12
REMARK    9  A    between atoms: N_21  and  C_22
REMARK   10  A    between atoms: N_21  and  C_23
REMARK   11  A    between atoms: C_23  and  C_24
REMARK                            x       y       z     vdW  Elec       q    Type
REMARK                         _______ _______ _______ _____ _____    ______ ____
ROOT
ATOM      1  C   UNL     1       0.394  10.228  19.396  0.00  0.00    +0.000 C 
ATOM      2  O   UNL     1       0.092  10.874  18.409  0.00  0.00    +0.000 OA
ENDROOT
BRANCH   1   3
ATOM      3  C   UNL     1       1.270   9.041  19.320  0.00  0.00    +0.000 A 
ATOM      4  C   UNL     1       1.835   8.772  18.073  0.00  0.00    +0.000 A 
ATOM      5  C   UNL     1       2.580   7.617  17.884  0.00  0.00    +0.000 A 
ATOM      6  C   UNL     1       2.773   6.715  18.932  0.00  0.00    +0.000 A 
ATOM      7  C   UNL     1       2.223   6.992  20.187  0.00  0.00    +0.000 A 
ATOM      8  C   UNL     1       1.470   8.155  20.384  0.00  0.00    +0.000 A 
BRANCH   6   9
ATOM      9  O   UNL     1       3.471   5.537  18.826  0.00  0.00    +0.000 OA
BRANCH   9  10
ATOM     10  C   UNL     1       2.766   4.504  18.131  0.00  0.00    +0.000 C 
BRANCH  10  11
ATOM     11  C   UNL     1       2.354   3.376  19.060  0.00  0.00    +0.000 C 
ATOM     12  C   UNL     1       0.992   3.587  19.700  0.00  0.00    +0.000 C 
ATOM     13  C   UNL     1       1.160   2.884  21.024  0.00  0.00    +0.000 C 
ATOM     14  C   UNL     1       2.597   3.204  21.375  0.00  0.00    +0.000 C 
ATOM     15  O   UNL     1       3.310   3.292  20.136  0.00  0.00    +0.000 OA
ENDBRANCH  10  11
ENDBRANCH   9  10
ENDBRANCH   6   9
ENDBRANCH   1   3
BRANCH   1  16
ATOM     16  O   UNL     1      -0.057  10.402  20.659  0.00  0.00    +0.000 OA
BRANCH  16  18
ATOM     17  C   UNL     1       0.776  12.594  21.009  0.00  0.00    +0.000 C 
ATOM     18  C   UNL     1      -0.484  11.725  21.004  0.00  0.00    +0.000 C 
BRANCH  18  19
ATOM     19  C   UNL     1      -1.306  11.929  22.302  0.00  0.00    +0.000 C 
ATOM     20  O   UNL     1      -0.834  11.593  23.394  0.00  0.00    +0.000 OA
ATOM     21  N   UNL     1      -2.570  12.502  22.188  0.00  0.00    +0.000 N 
ATOM     22  C   UNL     1      -3.172  12.989  20.955  0.00  0.00    +0.000 C 
BRANCH  21  23
ATOM     23  C   UNL     1      -3.408  12.517  23.380  0.00  0.00    +0.000 C 
BRANCH  23  24
ATOM     24  C   UNL     1      -3.665  13.911  23.897  0.00  0.00    +0.000 A 
ATOM     25  C   UNL     1      -4.889  14.549  23.668  0.00  0.00    +0.000 A 
ATOM     26  C   UNL     1      -5.120  15.833  24.164  0.00  0.00    +0.000 A 
ATOM     27  C   UNL     1      -4.127  16.494  24.885  0.00  0.00    +0.000 A 
ATOM     28  C   UNL     1      -2.898  15.876  25.104  0.00  0.00    +0.000 A 
ATOM     29  C   UNL     1      -2.668  14.593  24.612  0.00  0.00    +0.000 A 
ENDBRANCH  23  24
ENDBRANCH  21  23
ENDBRANCH  18  19
ENDBRANCH  16  18
ENDBRANCH   1  16
TORSDOF 9
ENDMDL
