MODEL 1
REMARK VINA RESULT:      -6.5      0.000      0.000
REMARK  Name = 
REMARK  2 active torsions:
REMARK  status: ('A' for Active; 'I' for Inactive)
REMARK    1  A    between atoms: C_1  and  C_2
REMARK    2  A    between atoms: C_2  and  C_4
REMARK                            x       y       z     vdW  Elec       q    Type
REMARK                         _______ _______ _______ _____ _____    ______ ____
ROOT
ATOM      1  C   UNL     1       5.534   5.792  16.664  0.00  0.00    +0.000 C 
ATOM      2  C   UNL     1       4.379   5.493  17.274  0.00  0.00    +0.000 C 
ATOM      3  C   UNL     1       3.475   6.626  17.685  0.00  0.00    +0.000 C 
ATOM      4  O   UNL     1       3.714   7.817  17.632  0.00  0.00    +0.000 OA
ATOM      5  N   UNL     1       2.309   6.018  18.116  0.00  0.00    +0.000 N 
ATOM      6  C   UNL     1       2.416   4.630  18.065  0.00  0.00    +0.000 A 
ATOM      7  C   UNL     1       1.449   3.717  18.441  0.00  0.00    +0.000 A 
ATOM      8  C   UNL     1       1.779   2.363  18.358  0.00  0.00    +0.000 A 
ATOM      9  C   UNL     1       3.057   1.963  17.936  0.00  0.00    +0.000 A 
ATOM     10  C   UNL     1       4.020   2.907  17.564  0.00  0.00    +0.000 A 
ATOM     11  C   UNL     1       3.678   4.247  17.595  0.00  0.00    +0.000 A 
ATOM     12  H   UNL     1       1.507   6.535  18.444  0.00  0.00    +0.000 HD
ENDROOT
BRANCH   1  14
ATOM     13  C   UNL     1       6.017   4.193  14.746  0.00  0.00    +0.000 C 
ATOM     14  C   UNL     1       6.466   4.820  16.037  0.00  0.00    +0.000 C 
ATOM     15  O   UNL     1       7.528   4.503  16.562  0.00  0.00    +0.000 OA
ENDBRANCH   1  14
TORSDOF 1
ENDMDL
MODEL 2
REMARK VINA RESULT:      -6.5      1.615      3.587
REMARK  Name = 
REMARK  2 active torsions:
REMARK  status: ('A' for Active; 'I' for Inactive)
REMARK    1  A    between atoms: C_1  and  C_2
REMARK    2  A    between atoms: C_2  and  C_4
REMARK                            x       y       z     vdW  Elec       q    Type
REMARK                         _______ _______ _______ _____ _____    ______ ____
ROOT
ATOM      1  C   UNL     1       3.678   6.854  17.739  0.00  0.00    +0.000 C 
ATOM      2  C   UNL     1       3.755   5.526  17.582  0.00  0.00    +0.000 C 
ATOM      3  C   UNL     1       5.006   4.951  16.969  0.00  0.00    +0.000 C 
ATOM      4  O   UNL     1       5.937   5.563  16.483  0.00  0.00    +0.000 OA
ATOM      5  N   UNL     1       4.872   3.580  17.098  0.00  0.00    +0.000 N 
ATOM      6  C   UNL     1       3.651   3.244  17.678  0.00  0.00    +0.000 A 
ATOM      7  C   UNL     1       3.184   1.968  17.933  0.00  0.00    +0.000 A 
ATOM      8  C   UNL     1       1.904   1.850  18.475  0.00  0.00    +0.000 A 
ATOM      9  C   UNL     1       1.121   2.991  18.718  0.00  0.00    +0.000 A 
ATOM     10  C   UNL     1       1.615   4.272  18.447  0.00  0.00    +0.000 A 
ATOM     11  C   UNL     1       2.904   4.394  17.959  0.00  0.00    +0.000 A 
ATOM     12  H   UNL     1       5.574   2.926  16.784  0.00  0.00    +0.000 HD
ENDROOT
BRANCH   1  14
ATOM     13  C   UNL     1       1.872   8.645  17.706  0.00  0.00    +0.000 C 
ATOM     14  C   UNL     1       2.613   7.585  18.473  0.00  0.00    +0.000 C 
ATOM     15  O   UNL     1       2.375   7.375  19.658  0.00  0.00    +0.000 OA
ENDBRANCH   1  14
TORSDOF 1
ENDMDL
MODEL 3
REMARK VINA RESULT:      -6.3      2.579      4.410
REMARK  Name = 
REMARK  2 active torsions:
REMARK  status: ('A' for Active; 'I' for Inactive)
REMARK    1  A    between atoms: C_1  and  C_2
REMARK    2  A    between atoms: C_2  and  C_4
REMARK                            x       y       z     vdW  Elec       q    Type
REMARK                         _______ _______ _______ _____ _____    ______ ____
ROOT
ATOM      1  C   UNL     1       1.786   5.131  20.689  0.00  0.00    +0.000 C 
ATOM      2  C   UNL     1       2.410   5.629  19.613  0.00  0.00    +0.000 C 
ATOM      3  C   UNL     1       2.393   7.122  19.405  0.00  0.00    +0.000 C 
ATOM      4  O   UNL     1       1.774   7.948  20.047  0.00  0.00    +0.000 OA
ATOM      5  N   UNL     1       3.248   7.347  18.341  0.00  0.00    +0.000 N 
ATOM      6  C   UNL     1       3.751   6.149  17.836  0.00  0.00    +0.000 A 
ATOM      7  C   UNL     1       4.612   6.006  16.764  0.00  0.00    +0.000 A 
ATOM      8  C   UNL     1       4.955   4.707  16.387  0.00  0.00    +0.000 A 
ATOM      9  C   UNL     1       4.413   3.599  17.061  0.00  0.00    +0.000 A 
ATOM     10  C   UNL     1       3.540   3.771  18.140  0.00  0.00    +0.000 A 
ATOM     11  C   UNL     1       3.241   5.058  18.549  0.00  0.00    +0.000 A 
ATOM     12  H   UNL     1       3.447   8.267  17.980  0.00  0.00    +0.000 HD
ENDROOT
BRANCH   1  14
ATOM     13  C   UNL     1       1.014   2.727  20.383  0.00  0.00    +0.000 C 
ATOM     14  C   UNL     1       1.839   3.721  21.153  0.00  0.00    +0.000 C 
ATOM     15  O   UNL     1       2.482   3.383  22.141  0.00  0.00    +0.000 OA
ENDBRANCH   1  14
TORSDOF 1
ENDMDL
MODEL 4
REMARK VINA RESULT:      -6.3      2.278      3.397
REMARK  Name = 
REMARK  2 active torsions:
REMARK  status: ('A' for Active; 'I' for Inactive)
REMARK    1  A    between atoms: C_1  and  C_2
REMARK    2  A    between atoms: C_2  and  C_4
REMARK                            x       y       z     vdW  Elec       q    Type
REMARK                         _______ _______ _______ _____ _____    ______ ____
ROOT
ATOM      1  C   UNL     1       6.115   4.528  17.374  0.00  0.00    +0.000 C 
ATOM      2  C   UNL     1       5.052   4.878  18.112  0.00  0.00    +0.000 C 
ATOM      3  C   UNL     1       4.670   3.997  19.274  0.00  0.00    +0.000 C 
ATOM      4  O   UNL     1       5.148   2.920  19.571  0.00  0.00    +0.000 OA
ATOM      5  N   UNL     1       3.673   4.690  19.937  0.00  0.00    +0.000 N 
ATOM      6  C   UNL     1       3.362   5.879  19.281  0.00  0.00    +0.000 A 
ATOM      7  C   UNL     1       2.402   6.800  19.657  0.00  0.00    +0.000 A 
ATOM      8  C   UNL     1       2.215   7.906  18.827  0.00  0.00    +0.000 A 
ATOM      9  C   UNL     1       2.959   8.047  17.644  0.00  0.00    +0.000 A 
ATOM     10  C   UNL     1       3.923   7.099  17.284  0.00  0.00    +0.000 A 
ATOM     11  C   UNL     1       4.147   6.030  18.132  0.00  0.00    +0.000 A 
ATOM     12  H   UNL     1       3.226   4.346  20.774  0.00  0.00    +0.000 HD
ENDROOT
BRANCH   1  14
ATOM     13  C   UNL     1       6.527   4.896  14.892  0.00  0.00    +0.000 C 
ATOM     14  C   UNL     1       6.744   5.349  16.308  0.00  0.00    +0.000 C 
ATOM     15  O   UNL     1       7.446   6.322  16.564  0.00  0.00    +0.000 OA
ENDBRANCH   1  14
TORSDOF 1
ENDMDL
MODEL 5
REMARK VINA RESULT:      -6.3      2.056      3.850
REMARK  Name = 
REMARK  2 active torsions:
REMARK  status: ('A' for Active; 'I' for Inactive)
REMARK    1  A    between atoms: C_1  and  C_2
REMARK    2  A    between atoms: C_2  and  C_4
REMARK                            x       y       z     vdW  Elec       q    Type
REMARK                         _______ _______ _______ _____ _____    ______ ____
ROOT
ATOM      1  C   UNL     1       3.511   3.764  19.567  0.00  0.00    +0.000 C 
ATOM      2  C   UNL     1       3.737   4.699  18.635  0.00  0.00    +0.000 C 
ATOM      3  C   UNL     1       3.243   6.100  18.894  0.00  0.00    +0.000 C 
ATOM      4  O   UNL     1       2.549   6.477  19.818  0.00  0.00    +0.000 OA
ATOM      5  N   UNL     1       3.767   6.862  17.866  0.00  0.00    +0.000 N 
ATOM      6  C   UNL     1       4.488   6.075  16.970  0.00  0.00    +0.000 A 
ATOM      7  C   UNL     1       5.124   6.508  15.822  0.00  0.00    +0.000 A 
ATOM      8  C   UNL     1       5.751   5.542  15.033  0.00  0.00    +0.000 A 
ATOM      9  C   UNL     1       5.701   4.184  15.390  0.00  0.00    +0.000 A 
ATOM     10  C   UNL     1       5.047   3.771  16.556  0.00  0.00    +0.000 A 
ATOM     11  C   UNL     1       4.471   4.732  17.367  0.00  0.00    +0.000 A 
ATOM     12  H   UNL     1       3.613   7.856  17.784  0.00  0.00    +0.000 HD
ENDROOT
BRANCH   1  14
ATOM     13  C   UNL     1       3.434   1.404  18.622  0.00  0.00    +0.000 C 
ATOM     14  C   UNL     1       4.064   2.385  19.571  0.00  0.00    +0.000 C 
ATOM     15  O   UNL     1       4.957   2.043  20.339  0.00  0.00    +0.000 OA
ENDBRANCH   1  14
TORSDOF 1
ENDMDL
MODEL 6
REMARK VINA RESULT:      -6.2      2.627      4.695
REMARK  Name = 
REMARK  2 active torsions:
REMARK  status: ('A' for Active; 'I' for Inactive)
REMARK    1  A    between atoms: C_1  and  C_2
REMARK    2  A    between atoms: C_2  and  C_4
REMARK                            x       y       z     vdW  Elec       q    Type
REMARK                         _______ _______ _______ _____ _____    ______ ____
ROOT
ATOM      1  C   UNL     1       4.683   4.373  19.265  0.00  0.00    +0.000 C 
ATOM      2  C   UNL     1       5.620   4.695  18.362  0.00  0.00    +0.000 C 
ATOM      3  C   UNL     1       6.947   5.205  18.860  0.00  0.00    +0.000 C 
ATOM      4  O   UNL     1       7.250   5.475  20.006  0.00  0.00    +0.000 OA
ATOM      5  N   UNL     1       7.749   5.280  17.735  0.00  0.00    +0.000 N 
ATOM      6  C   UNL     1       7.045   4.921  16.588  0.00  0.00    +0.000 A 
ATOM      7  C   UNL     1       7.532   4.904  15.295  0.00  0.00    +0.000 A 
ATOM      8  C   UNL     1       6.640   4.560  14.278  0.00  0.00    +0.000 A 
ATOM      9  C   UNL     1       5.297   4.274  14.571  0.00  0.00    +0.000 A 
ATOM     10  C   UNL     1       4.826   4.301  15.889  0.00  0.00    +0.000 A 
ATOM     11  C   UNL     1       5.721   4.591  16.904  0.00  0.00    +0.000 A 
ATOM     12  H   UNL     1       8.711   5.582  17.764  0.00  0.00    +0.000 HD
ENDROOT
BRANCH   1  14
ATOM     13  C   UNL     1       2.240   4.584  18.593  0.00  0.00    +0.000 C 
ATOM     14  C   UNL     1       3.392   3.698  18.979  0.00  0.00    +0.000 C 
ATOM     15  O   UNL     1       3.249   2.485  19.096  0.00  0.00    +0.000 OA
ENDBRANCH   1  14
TORSDOF 1
ENDMDL
MODEL 7
REMARK VINA RESULT:      -6.2      0.912      1.055
REMARK  Name = 
REMARK  2 active torsions:
REMARK  status: ('A' for Active; 'I' for Inactive)
REMARK    1  A    between atoms: C_1  and  C_2
REMARK    2  A    between atoms: C_2  and  C_4
REMARK                            x       y       z     vdW  Elec       q    Type
REMARK                         _______ _______ _______ _____ _____    ______ ____
ROOT
ATOM      1  C   UNL     1       5.352   6.412  16.950  0.00  0.00    +0.000 C 
ATOM      2  C   UNL     1       4.211   5.925  17.456  0.00  0.00    +0.000 C 
ATOM      3  C   UNL     1       3.149   6.902  17.892  0.00  0.00    +0.000 C 
ATOM      4  O   UNL     1       3.240   8.113  17.948  0.00  0.00    +0.000 OA
ATOM      5  N   UNL     1       2.046   6.124  18.194  0.00  0.00    +0.000 N 
ATOM      6  C   UNL     1       2.328   4.768  18.043  0.00  0.00    +0.000 A 
ATOM      7  C   UNL     1       1.464   3.716  18.280  0.00  0.00    +0.000 A 
ATOM      8  C   UNL     1       1.965   2.424  18.114  0.00  0.00    +0.000 A 
ATOM      9  C   UNL     1       3.306   2.218  17.750  0.00  0.00    +0.000 A 
ATOM     10  C   UNL     1       4.162   3.300  17.519  0.00  0.00    +0.000 A 
ATOM     11  C   UNL     1       3.654   4.581  17.631  0.00  0.00    +0.000 A 
ATOM     12  H   UNL     1       1.168   6.510  18.506  0.00  0.00    +0.000 HD
ENDROOT
BRANCH   1  14
ATOM     13  C   UNL     1       7.382   4.908  17.240  0.00  0.00    +0.000 C 
ATOM     14  C   UNL     1       6.433   5.616  16.314  0.00  0.00    +0.000 C 
ATOM     15  O   UNL     1       6.580   5.572  15.097  0.00  0.00    +0.000 OA
ENDBRANCH   1  14
TORSDOF 1
ENDMDL
MODEL 8
REMARK VINA RESULT:      -6.2      2.496      3.574
REMARK  Name = 
REMARK  2 active torsions:
REMARK  status: ('A' for Active; 'I' for Inactive)
REMARK    1  A    between atoms: C_1  and  C_2
REMARK    2  A    between atoms: C_2  and  C_4
REMARK                            x       y       z     vdW  Elec       q    Type
REMARK                         _______ _______ _______ _____ _____    ______ ____
ROOT
ATOM      1  C   UNL     1       6.411   4.869  17.732  0.00  0.00    +0.000 C 
ATOM      2  C   UNL     1       5.215   5.065  18.305  0.00  0.00    +0.000 C 
ATOM      3  C   UNL     1       4.733   4.055  19.314  0.00  0.00    +0.000 C 
ATOM      4  O   UNL     1       5.253   2.996  19.603  0.00  0.00    +0.000 OA
ATOM      5  N   UNL     1       3.582   4.605  19.851  0.00  0.00    +0.000 N 
ATOM      6  C   UNL     1       3.273   5.821  19.245  0.00  0.00    +0.000 A 
ATOM      7  C   UNL     1       2.185   6.626  19.523  0.00  0.00    +0.000 A 
ATOM      8  C   UNL     1       2.033   7.785  18.762  0.00  0.00    +0.000 A 
ATOM      9  C   UNL     1       2.942   8.092  17.736  0.00  0.00    +0.000 A 
ATOM     10  C   UNL     1       4.035   7.258  17.471  0.00  0.00    +0.000 A 
ATOM     11  C   UNL     1       4.217   6.137  18.260  0.00  0.00    +0.000 A 
ATOM     12  H   UNL     1       3.040   4.152  20.571  0.00  0.00    +0.000 HD
ENDROOT
BRANCH   1  14
ATOM     13  C   UNL     1       7.635   7.086  17.504  0.00  0.00    +0.000 C 
ATOM     14  C   UNL     1       7.125   5.830  16.854  0.00  0.00    +0.000 C 
ATOM     15  O   UNL     1       7.256   5.640  15.649  0.00  0.00    +0.000 OA
ENDBRANCH   1  14
TORSDOF 1
ENDMDL
MODEL 9
REMARK VINA RESULT:      -6.2      1.847      3.231
REMARK  Name = 
REMARK  2 active torsions:
REMARK  status: ('A' for Active; 'I' for Inactive)
REMARK    1  A    between atoms: C_1  and  C_2
REMARK    2  A    between atoms: C_2  and  C_4
REMARK                            x       y       z     vdW  Elec       q    Type
REMARK                         _______ _______ _______ _____ _____    ______ ____
ROOT
ATOM      1  C   UNL     1       5.540   3.488  16.359  0.00  0.00    +0.000 C 
ATOM      2  C   UNL     1       4.496   3.949  17.062  0.00  0.00    +0.000 C 
ATOM      3  C   UNL     1       3.626   2.953  17.784  0.00  0.00    +0.000 C 
ATOM      4  O   UNL     1       3.684   1.741  17.721  0.00  0.00    +0.000 OA
ATOM      5  N   UNL     1       2.762   3.718  18.548  0.00  0.00    +0.000 N 
ATOM      6  C   UNL     1       2.970   5.079  18.335  0.00  0.00    +0.000 A 
ATOM      7  C   UNL     1       2.271   6.119  18.918  0.00  0.00    +0.000 A 
ATOM      8  C   UNL     1       2.606   7.416  18.527  0.00  0.00    +0.000 A 
ATOM      9  C   UNL     1       3.597   7.637  17.556  0.00  0.00    +0.000 A 
ATOM     10  C   UNL     1       4.289   6.566  16.978  0.00  0.00    +0.000 A 
ATOM     11  C   UNL     1       3.994   5.283  17.403  0.00  0.00    +0.000 A 
ATOM     12  H   UNL     1       2.063   3.318  19.156  0.00  0.00    +0.000 HD
ENDROOT
BRANCH   1  14
ATOM     13  C   UNL     1       6.458   4.588  14.258  0.00  0.00    +0.000 C 
ATOM     14  C   UNL     1       6.601   4.315  15.730  0.00  0.00    +0.000 C 
ATOM     15  O   UNL     1       7.573   4.719  16.360  0.00  0.00    +0.000 OA
ENDBRANCH   1  14
TORSDOF 1
ENDMDL
