MODEL 1
REMARK VINA RESULT:      -7.9      0.000      0.000
REMARK  Name = 
REMARK  4 active torsions:
REMARK  status: ('A' for Active; 'I' for Inactive)
REMARK    1  A    between atoms: C_1  and  C_2
REMARK    2  A    between atoms: C_4  and  O_5
REMARK    3  A    between atoms: C_6  and  C_7
REMARK    4  A    between atoms: C_12  and  C_13
REMARK                            x       y       z     vdW  Elec       q    Type
REMARK                         _______ _______ _______ _____ _____    ______ ____
ROOT
ATOM      1  C   UNL     1       1.466   3.114  21.389  0.00  0.00    +0.000 C 
ATOM      2  C   UNL     1       2.304   3.394  20.172  0.00  0.00    +0.000 A 
ATOM      3  N   UNL     1       2.893   2.316  19.600  0.00  0.00    +0.000 NA
ATOM      4  C   UNL     1       3.636   2.537  18.501  0.00  0.00    +0.000 A 
ATOM      5  C   UNL     1       3.836   3.767  17.903  0.00  0.00    +0.000 A 
ATOM      6  C   UNL     1       3.207   4.882  18.484  0.00  0.00    +0.000 A 
ATOM      7  C   UNL     1       2.448   4.698  19.665  0.00  0.00    +0.000 A 
ATOM      8  C   UNL     1       1.749   5.861  20.336  0.00  0.00    +0.000 C 
ATOM      9  C   UNL     1       2.282   7.233  19.898  0.00  0.00    +0.000 C 
ATOM     10  C   UNL     1       2.367   7.280  18.371  0.00  0.00    +0.000 C 
ATOM     11  C   UNL     1       3.391   6.260  17.882  0.00  0.00    +0.000 C 
ENDROOT
BRANCH   9  12
ATOM     12  C   UNL     1       1.449   8.373  20.449  0.00  0.00    +0.000 A 
ATOM     13  C   UNL     1       0.975   9.369  19.582  0.00  0.00    +0.000 A 
ATOM     14  C   UNL     1       0.190  10.417  20.064  0.00  0.00    +0.000 A 
ATOM     15  C   UNL     1      -0.129  10.486  21.417  0.00  0.00    +0.000 A 
ATOM     16  C   UNL     1       0.337   9.506  22.291  0.00  0.00    +0.000 A 
ATOM     17  C   UNL     1       1.119   8.455  21.811  0.00  0.00    +0.000 A 
ENDBRANCH   9  12
BRANCH   4  18
ATOM     18  O   UNL     1       4.190   1.400  18.010  0.00  0.00    +0.000 OA
ATOM     19  H   UNL     1       3.396   0.960  17.651  0.00  0.00    +0.000 HD
ENDBRANCH   4  18
BRANCH   5  20
ATOM     20  C   UNL     1       4.662   3.877  16.738  0.00  0.00    +0.000 C 
ATOM     21  N   UNL     1       5.378   3.979  15.830  0.00  0.00    +0.000 NA
ENDBRANCH   5  20
TORSDOF 3
ENDMDL
MODEL 2
REMARK VINA RESULT:      -7.9      0.135      1.087
REMARK  Name = 
REMARK  4 active torsions:
REMARK  status: ('A' for Active; 'I' for Inactive)
REMARK    1  A    between atoms: C_1  and  C_2
REMARK    2  A    between atoms: C_4  and  O_5
REMARK    3  A    between atoms: C_6  and  C_7
REMARK    4  A    between atoms: C_12  and  C_13
REMARK                            x       y       z     vdW  Elec       q    Type
REMARK                         _______ _______ _______ _____ _____    ______ ____
ROOT
ATOM      1  C   UNL     1       1.326   3.068  21.163  0.00  0.00    +0.000 C 
ATOM      2  C   UNL     1       2.236   3.392  20.010  0.00  0.00    +0.000 A 
ATOM      3  N   UNL     1       2.848   2.334  19.425  0.00  0.00    +0.000 NA
ATOM      4  C   UNL     1       3.654   2.595  18.382  0.00  0.00    +0.000 A 
ATOM      5  C   UNL     1       3.900   3.847  17.852  0.00  0.00    +0.000 A 
ATOM      6  C   UNL     1       3.248   4.943  18.446  0.00  0.00    +0.000 A 
ATOM      7  C   UNL     1       2.422   4.716  19.571  0.00  0.00    +0.000 A 
ATOM      8  C   UNL     1       1.695   5.855  20.253  0.00  0.00    +0.000 C 
ATOM      9  C   UNL     1       2.266   7.239  19.908  0.00  0.00    +0.000 C 
ATOM     10  C   UNL     1       2.439   7.353  18.392  0.00  0.00    +0.000 C 
ATOM     11  C   UNL     1       3.480   6.344  17.918  0.00  0.00    +0.000 C 
ENDROOT
BRANCH   9  12
ATOM     12  C   UNL     1       1.412   8.364  20.462  0.00  0.00    +0.000 A 
ATOM     13  C   UNL     1       1.105   8.392  21.830  0.00  0.00    +0.000 A 
ATOM     14  C   UNL     1       0.337   9.428  22.365  0.00  0.00    +0.000 A 
ATOM     15  C   UNL     1      -0.134  10.446  21.541  0.00  0.00    +0.000 A 
ATOM     16  C   UNL     1       0.161  10.430  20.179  0.00  0.00    +0.000 A 
ATOM     17  C   UNL     1       0.932   9.397  19.643  0.00  0.00    +0.000 A 
ENDBRANCH   9  12
BRANCH   4  18
ATOM     18  O   UNL     1       4.225   1.474  17.873  0.00  0.00    +0.000 OA
ATOM     19  H   UNL     1       3.476   0.852  17.938  0.00  0.00    +0.000 HD
ENDBRANCH   4  18
BRANCH   5  20
ATOM     20  C   UNL     1       4.793   3.999  16.743  0.00  0.00    +0.000 C 
ATOM     21  N   UNL     1       5.522   4.062  15.841  0.00  0.00    +0.000 NA
ENDBRANCH   5  20
TORSDOF 3
ENDMDL
MODEL 3
REMARK VINA RESULT:      -7.7      4.149      5.570
REMARK  Name = 
REMARK  4 active torsions:
REMARK  status: ('A' for Active; 'I' for Inactive)
REMARK    1  A    between atoms: C_1  and  C_2
REMARK    2  A    between atoms: C_4  and  O_5
REMARK    3  A    between atoms: C_6  and  C_7
REMARK    4  A    between atoms: C_12  and  C_13
REMARK                            x       y       z     vdW  Elec       q    Type
REMARK                         _______ _______ _______ _____ _____    ______ ____
ROOT
ATOM      1  C   UNL     1       7.307   6.457  18.253  0.00  0.00    +0.000 C 
ATOM      2  C   UNL     1       6.882   5.732  17.005  0.00  0.00    +0.000 A 
ATOM      3  N   UNL     1       7.652   5.942  15.910  0.00  0.00    +0.000 NA
ATOM      4  C   UNL     1       7.302   5.294  14.785  0.00  0.00    +0.000 A 
ATOM      5  C   UNL     1       6.235   4.425  14.659  0.00  0.00    +0.000 A 
ATOM      6  C   UNL     1       5.450   4.191  15.802  0.00  0.00    +0.000 A 
ATOM      7  C   UNL     1       5.760   4.884  16.995  0.00  0.00    +0.000 A 
ATOM      8  C   UNL     1       4.950   4.674  18.257  0.00  0.00    +0.000 C 
ATOM      9  C   UNL     1       3.580   4.028  18.005  0.00  0.00    +0.000 C 
ATOM     10  C   UNL     1       3.753   2.808  17.097  0.00  0.00    +0.000 C 
ATOM     11  C   UNL     1       4.260   3.255  15.729  0.00  0.00    +0.000 C 
ENDROOT
BRANCH   9  12
ATOM     12  C   UNL     1       2.870   3.670  19.296  0.00  0.00    +0.000 A 
ATOM     13  C   UNL     1       1.547   4.091  19.501  0.00  0.00    +0.000 A 
ATOM     14  C   UNL     1       0.868   3.757  20.673  0.00  0.00    +0.000 A 
ATOM     15  C   UNL     1       1.501   3.000  21.656  0.00  0.00    +0.000 A 
ATOM     16  C   UNL     1       2.814   2.576  21.468  0.00  0.00    +0.000 A 
ATOM     17  C   UNL     1       3.495   2.906  20.295  0.00  0.00    +0.000 A 
ENDBRANCH   9  12
BRANCH   4  18
ATOM     18  O   UNL     1       8.126   5.576  13.745  0.00  0.00    +0.000 OA
ATOM     19  H   UNL     1       8.591   4.723  13.654  0.00  0.00    +0.000 HD
ENDBRANCH   4  18
BRANCH   5  20
ATOM     20  C   UNL     1       5.956   3.803  13.399  0.00  0.00    +0.000 C 
ATOM     21  N   UNL     1       5.719   3.353  12.356  0.00  0.00    +0.000 NA
ENDBRANCH   5  20
TORSDOF 3
ENDMDL
MODEL 4
REMARK VINA RESULT:      -7.6      4.107      5.617
REMARK  Name = 
REMARK  4 active torsions:
REMARK  status: ('A' for Active; 'I' for Inactive)
REMARK    1  A    between atoms: C_1  and  C_2
REMARK    2  A    between atoms: C_4  and  O_5
REMARK    3  A    between atoms: C_6  and  C_7
REMARK    4  A    between atoms: C_12  and  C_13
REMARK                            x       y       z     vdW  Elec       q    Type
REMARK                         _______ _______ _______ _____ _____    ______ ____
ROOT
ATOM      1  C   UNL     1       7.242   6.527  18.266  0.00  0.00    +0.000 C 
ATOM      2  C   UNL     1       6.846   5.781  17.021  0.00  0.00    +0.000 A 
ATOM      3  N   UNL     1       7.626   5.993  15.933  0.00  0.00    +0.000 NA
ATOM      4  C   UNL     1       7.302   5.326  14.812  0.00  0.00    +0.000 A 
ATOM      5  C   UNL     1       6.251   4.438  14.682  0.00  0.00    +0.000 A 
ATOM      6  C   UNL     1       5.456   4.203  15.817  0.00  0.00    +0.000 A 
ATOM      7  C   UNL     1       5.739   4.914  17.007  0.00  0.00    +0.000 A 
ATOM      8  C   UNL     1       4.917   4.704  18.261  0.00  0.00    +0.000 C 
ATOM      9  C   UNL     1       3.561   4.031  17.999  0.00  0.00    +0.000 C 
ATOM     10  C   UNL     1       3.767   2.805  17.107  0.00  0.00    +0.000 C 
ATOM     11  C   UNL     1       4.283   3.246  15.741  0.00  0.00    +0.000 C 
ENDROOT
BRANCH   9  12
ATOM     12  C   UNL     1       2.841   3.675  19.285  0.00  0.00    +0.000 A 
ATOM     13  C   UNL     1       3.473   2.852  20.229  0.00  0.00    +0.000 A 
ATOM     14  C   UNL     1       2.838   2.527  21.428  0.00  0.00    +0.000 A 
ATOM     15  C   UNL     1       1.563   3.018  21.699  0.00  0.00    +0.000 A 
ATOM     16  C   UNL     1       0.922   3.834  20.770  0.00  0.00    +0.000 A 
ATOM     17  C   UNL     1       1.557   4.163  19.571  0.00  0.00    +0.000 A 
ENDBRANCH   9  12
BRANCH   4  18
ATOM     18  O   UNL     1       8.134   5.611  13.779  0.00  0.00    +0.000 OA
ATOM     19  H   UNL     1       8.589   6.399  14.134  0.00  0.00    +0.000 HD
ENDBRANCH   4  18
BRANCH   5  20
ATOM     20  C   UNL     1       5.999   3.797  13.426  0.00  0.00    +0.000 C 
ATOM     21  N   UNL     1       5.809   3.329  12.381  0.00  0.00    +0.000 NA
ENDBRANCH   5  20
TORSDOF 3
ENDMDL
MODEL 5
REMARK VINA RESULT:      -7.6      1.203      1.831
REMARK  Name = 
REMARK  4 active torsions:
REMARK  status: ('A' for Active; 'I' for Inactive)
REMARK    1  A    between atoms: C_1  and  C_2
REMARK    2  A    between atoms: C_4  and  O_5
REMARK    3  A    between atoms: C_6  and  C_7
REMARK    4  A    between atoms: C_12  and  C_13
REMARK                            x       y       z     vdW  Elec       q    Type
REMARK                         _______ _______ _______ _____ _____    ______ ____
ROOT
ATOM      1  C   UNL     1       1.997   3.930  21.111  0.00  0.00    +0.000 C 
ATOM      2  C   UNL     1       2.690   4.537  19.922  0.00  0.00    +0.000 A 
ATOM      3  N   UNL     1       3.446   3.690  19.183  0.00  0.00    +0.000 NA
ATOM      4  C   UNL     1       4.064   4.204  18.106  0.00  0.00    +0.000 A 
ATOM      5  C   UNL     1       3.982   5.518  17.686  0.00  0.00    +0.000 A 
ATOM      6  C   UNL     1       3.179   6.393  18.441  0.00  0.00    +0.000 A 
ATOM      7  C   UNL     1       2.544   5.900  19.605  0.00  0.00    +0.000 A 
ATOM      8  C   UNL     1       1.669   6.793  20.459  0.00  0.00    +0.000 C 
ATOM      9  C   UNL     1       1.894   8.292  20.207  0.00  0.00    +0.000 C 
ATOM     10  C   UNL     1       1.877   8.562  18.701  0.00  0.00    +0.000 C 
ATOM     11  C   UNL     1       3.052   7.848  18.039  0.00  0.00    +0.000 C 
ENDROOT
BRANCH   9  12
ATOM     12  C   UNL     1       0.886   9.153  20.943  0.00  0.00    +0.000 A 
ATOM     13  C   UNL     1       0.634   8.917  22.303  0.00  0.00    +0.000 A 
ATOM     14  C   UNL     1      -0.275   9.710  23.005  0.00  0.00    +0.000 A 
ATOM     15  C   UNL     1      -0.946  10.744  22.358  0.00  0.00    +0.000 A 
ATOM     16  C   UNL     1      -0.708  10.988  21.008  0.00  0.00    +0.000 A 
ATOM     17  C   UNL     1       0.203  10.200  20.304  0.00  0.00    +0.000 A 
ENDBRANCH   9  12
BRANCH   4  18
ATOM     18  O   UNL     1       4.801   3.281  17.439  0.00  0.00    +0.000 OA
ATOM     19  H   UNL     1       5.521   3.846  17.100  0.00  0.00    +0.000 HD
ENDBRANCH   4  18
BRANCH   5  20
ATOM     20  C   UNL     1       4.699   5.951  16.524  0.00  0.00    +0.000 C 
ATOM     21  N   UNL     1       5.242   6.348  15.578  0.00  0.00    +0.000 NA
ENDBRANCH   5  20
TORSDOF 3
ENDMDL
MODEL 6
REMARK VINA RESULT:      -7.6      1.096      1.269
REMARK  Name = 
REMARK  4 active torsions:
REMARK  status: ('A' for Active; 'I' for Inactive)
REMARK    1  A    between atoms: C_1  and  C_2
REMARK    2  A    between atoms: C_4  and  O_5
REMARK    3  A    between atoms: C_6  and  C_7
REMARK    4  A    between atoms: C_12  and  C_13
REMARK                            x       y       z     vdW  Elec       q    Type
REMARK                         _______ _______ _______ _____ _____    ______ ____
ROOT
ATOM      1  C   UNL     1       1.977   3.729  21.004  0.00  0.00    +0.000 C 
ATOM      2  C   UNL     1       2.697   4.318  19.822  0.00  0.00    +0.000 A 
ATOM      3  N   UNL     1       3.434   3.450  19.087  0.00  0.00    +0.000 NA
ATOM      4  C   UNL     1       4.076   3.949  18.016  0.00  0.00    +0.000 A 
ATOM      5  C   UNL     1       4.036   5.265  17.599  0.00  0.00    +0.000 A 
ATOM      6  C   UNL     1       3.254   6.161  18.349  0.00  0.00    +0.000 A 
ATOM      7  C   UNL     1       2.594   5.685  19.507  0.00  0.00    +0.000 A 
ATOM      8  C   UNL     1       1.739   6.602  20.355  0.00  0.00    +0.000 C 
ATOM      9  C   UNL     1       2.010   8.094  20.109  0.00  0.00    +0.000 C 
ATOM     10  C   UNL     1       2.014   8.367  18.604  0.00  0.00    +0.000 C 
ATOM     11  C   UNL     1       3.172   7.620  17.950  0.00  0.00    +0.000 C 
ENDROOT
BRANCH   9  12
ATOM     12  C   UNL     1       1.021   8.982  20.839  0.00  0.00    +0.000 A 
ATOM     13  C   UNL     1       0.287   9.938  20.121  0.00  0.00    +0.000 A 
ATOM     14  C   UNL     1      -0.642  10.754  20.768  0.00  0.00    +0.000 A 
ATOM     15  C   UNL     1      -0.848  10.627  22.139  0.00  0.00    +0.000 A 
ATOM     16  C   UNL     1      -0.124   9.685  22.866  0.00  0.00    +0.000 A 
ATOM     17  C   UNL     1       0.804   8.865  22.220  0.00  0.00    +0.000 A 
ENDBRANCH   9  12
BRANCH   4  18
ATOM     18  O   UNL     1       4.791   3.006  17.353  0.00  0.00    +0.000 OA
ATOM     19  H   UNL     1       4.096   2.629  16.781  0.00  0.00    +0.000 HD
ENDBRANCH   4  18
BRANCH   5  20
ATOM     20  C   UNL     1       4.776   5.679  16.444  0.00  0.00    +0.000 C 
ATOM     21  N   UNL     1       5.336   6.059  15.501  0.00  0.00    +0.000 NA
ENDBRANCH   5  20
TORSDOF 3
ENDMDL
MODEL 7
REMARK VINA RESULT:      -7.4      2.914      6.863
REMARK  Name = 
REMARK  4 active torsions:
REMARK  status: ('A' for Active; 'I' for Inactive)
REMARK    1  A    between atoms: C_1  and  C_2
REMARK    2  A    between atoms: C_4  and  O_5
REMARK    3  A    between atoms: C_6  and  C_7
REMARK    4  A    between atoms: C_12  and  C_13
REMARK                            x       y       z     vdW  Elec       q    Type
REMARK                         _______ _______ _______ _____ _____    ______ ____
ROOT
ATOM      1  C   UNL     1       3.781   1.393  18.340  0.00  0.00    +0.000 C 
ATOM      2  C   UNL     1       3.435   2.821  18.663  0.00  0.00    +0.000 A 
ATOM      3  N   UNL     1       2.730   3.013  19.804  0.00  0.00    +0.000 NA
ATOM      4  C   UNL     1       2.421   4.282  20.124  0.00  0.00    +0.000 A 
ATOM      5  C   UNL     1       2.773   5.401  19.393  0.00  0.00    +0.000 A 
ATOM      6  C   UNL     1       3.524   5.202  18.221  0.00  0.00    +0.000 A 
ATOM      7  C   UNL     1       3.836   3.879  17.828  0.00  0.00    +0.000 A 
ATOM      8  C   UNL     1       4.640   3.602  16.575  0.00  0.00    +0.000 C 
ATOM      9  C   UNL     1       4.686   4.789  15.602  0.00  0.00    +0.000 C 
ATOM     10  C   UNL     1       5.044   6.063  16.372  0.00  0.00    +0.000 C 
ATOM     11  C   UNL     1       3.936   6.386  17.370  0.00  0.00    +0.000 C 
ENDROOT
BRANCH   9  12
ATOM     12  C   UNL     1       5.639   4.546  14.448  0.00  0.00    +0.000 A 
ATOM     13  C   UNL     1       5.260   3.686  13.405  0.00  0.00    +0.000 A 
ATOM     14  C   UNL     1       6.112   3.462  12.323  0.00  0.00    +0.000 A 
ATOM     15  C   UNL     1       7.353   4.091  12.270  0.00  0.00    +0.000 A 
ATOM     16  C   UNL     1       7.744   4.945  13.299  0.00  0.00    +0.000 A 
ATOM     17  C   UNL     1       6.892   5.173  14.380  0.00  0.00    +0.000 A 
ENDBRANCH   9  12
BRANCH   4  18
ATOM     18  O   UNL     1       1.708   4.370  21.275  0.00  0.00    +0.000 OA
ATOM     19  H   UNL     1       2.394   4.122  21.924  0.00  0.00    +0.000 HD
ENDBRANCH   4  18
BRANCH   5  20
ATOM     20  C   UNL     1       2.373   6.705  19.832  0.00  0.00    +0.000 C 
ATOM     21  N   UNL     1       2.013   7.765  20.139  0.00  0.00    +0.000 NA
ENDBRANCH   5  20
TORSDOF 3
ENDMDL
MODEL 8
REMARK VINA RESULT:      -7.3      2.916      6.880
REMARK  Name = 
REMARK  4 active torsions:
REMARK  status: ('A' for Active; 'I' for Inactive)
REMARK    1  A    between atoms: C_1  and  C_2
REMARK    2  A    between atoms: C_4  and  O_5
REMARK    3  A    between atoms: C_6  and  C_7
REMARK    4  A    between atoms: C_12  and  C_13
REMARK                            x       y       z     vdW  Elec       q    Type
REMARK                         _______ _______ _______ _____ _____    ______ ____
ROOT
ATOM      1  C   UNL     1       3.748   1.375  18.262  0.00  0.00    +0.000 C 
ATOM      2  C   UNL     1       3.415   2.801  18.606  0.00  0.00    +0.000 A 
ATOM      3  N   UNL     1       2.713   2.983  19.751  0.00  0.00    +0.000 NA
ATOM      4  C   UNL     1       2.416   4.250  20.089  0.00  0.00    +0.000 A 
ATOM      5  C   UNL     1       2.776   5.376  19.375  0.00  0.00    +0.000 A 
ATOM      6  C   UNL     1       3.524   5.188  18.198  0.00  0.00    +0.000 A 
ATOM      7  C   UNL     1       3.824   3.868  17.786  0.00  0.00    +0.000 A 
ATOM      8  C   UNL     1       4.623   3.602  16.528  0.00  0.00    +0.000 C 
ATOM      9  C   UNL     1       4.679   4.803  15.572  0.00  0.00    +0.000 C 
ATOM     10  C   UNL     1       5.049   6.061  16.360  0.00  0.00    +0.000 C 
ATOM     11  C   UNL     1       3.945   6.380  17.365  0.00  0.00    +0.000 C 
ENDROOT
BRANCH   9  12
ATOM     12  C   UNL     1       5.628   4.568  14.413  0.00  0.00    +0.000 A 
ATOM     13  C   UNL     1       6.873   5.215  14.393  0.00  0.00    +0.000 A 
ATOM     14  C   UNL     1       7.770   4.999  13.346  0.00  0.00    +0.000 A 
ATOM     15  C   UNL     1       7.435   4.136  12.306  0.00  0.00    +0.000 A 
ATOM     16  C   UNL     1       6.201   3.488  12.311  0.00  0.00    +0.000 A 
ATOM     17  C   UNL     1       5.304   3.700  13.359  0.00  0.00    +0.000 A 
ENDBRANCH   9  12
BRANCH   4  18
ATOM     18  O   UNL     1       1.705   4.327  21.242  0.00  0.00    +0.000 OA
ATOM     19  H   UNL     1       0.819   4.530  20.888  0.00  0.00    +0.000 HD
ENDBRANCH   4  18
BRANCH   5  20
ATOM     20  C   UNL     1       2.388   6.676  19.833  0.00  0.00    +0.000 C 
ATOM     21  N   UNL     1       2.024   7.726  20.170  0.00  0.00    +0.000 NA
ENDBRANCH   5  20
TORSDOF 3
ENDMDL
MODEL 9
REMARK VINA RESULT:      -7.1      1.524      2.136
REMARK  Name = 
REMARK  4 active torsions:
REMARK  status: ('A' for Active; 'I' for Inactive)
REMARK    1  A    between atoms: C_1  and  C_2
REMARK    2  A    between atoms: C_4  and  O_5
REMARK    3  A    between atoms: C_6  and  C_7
REMARK    4  A    between atoms: C_12  and  C_13
REMARK                            x       y       z     vdW  Elec       q    Type
REMARK                         _______ _______ _______ _____ _____    ______ ____
ROOT
ATOM      1  C   UNL     1       1.722   3.135  18.591  0.00  0.00    +0.000 C 
ATOM      2  C   UNL     1       2.893   3.799  17.921  0.00  0.00    +0.000 A 
ATOM      3  N   UNL     1       3.731   2.976  17.245  0.00  0.00    +0.000 NA
ATOM      4  C   UNL     1       4.778   3.548  16.624  0.00  0.00    +0.000 A 
ATOM      5  C   UNL     1       5.061   4.900  16.609  0.00  0.00    +0.000 A 
ATOM      6  C   UNL     1       4.178   5.756  17.291  0.00  0.00    +0.000 A 
ATOM      7  C   UNL     1       3.086   5.191  17.991  0.00  0.00    +0.000 A 
ATOM      8  C   UNL     1       2.103   6.061  18.746  0.00  0.00    +0.000 C 
ATOM      9  C   UNL     1       2.631   7.474  19.034  0.00  0.00    +0.000 C 
ATOM     10  C   UNL     1       3.220   8.067  17.752  0.00  0.00    +0.000 C 
ATOM     11  C   UNL     1       4.434   7.249  17.320  0.00  0.00    +0.000 C 
ENDROOT
BRANCH   9  12
ATOM     12  C   UNL     1       1.565   8.373  19.630  0.00  0.00    +0.000 A 
ATOM     13  C   UNL     1       1.140   8.163  20.951  0.00  0.00    +0.000 A 
ATOM     14  C   UNL     1       0.175   8.990  21.526  0.00  0.00    +0.000 A 
ATOM     15  C   UNL     1      -0.380  10.034  20.790  0.00  0.00    +0.000 A 
ATOM     16  C   UNL     1       0.030  10.252  19.477  0.00  0.00    +0.000 A 
ATOM     17  C   UNL     1       0.998   9.429  18.900  0.00  0.00    +0.000 A 
ENDBRANCH   9  12
BRANCH   4  18
ATOM     18  O   UNL     1       5.561   2.642  15.986  0.00  0.00    +0.000 OA
ATOM     19  H   UNL     1       4.881   2.122  15.518  0.00  0.00    +0.000 HD
ENDBRANCH   4  18
BRANCH   5  20
ATOM     20  C   UNL     1       6.218   5.388  15.919  0.00  0.00    +0.000 C 
ATOM     21  N   UNL     1       7.178   5.801  15.414  0.00  0.00    +0.000 NA
ENDBRANCH   5  20
TORSDOF 3
ENDMDL
