MODEL 1
REMARK VINA RESULT:      -8.2      0.000      0.000
REMARK  Name = 
REMARK  6 active torsions:
REMARK  status: ('A' for Active; 'I' for Inactive)
REMARK    1  A    between atoms: C_1  and  C_2
REMARK    2  A    between atoms: C_6  and  C_7
REMARK    3  A    between atoms: C_9  and  C_10
REMARK    4  A    between atoms: C_13  and  O_14
REMARK    5  A    between atoms: O_14  and  C_15
REMARK    6  A    between atoms: C_15  and  C_16
REMARK                            x       y       z     vdW  Elec       q    Type
REMARK                         _______ _______ _______ _____ _____    ______ ____
ROOT
ATOM      1  C   UNL     1       3.288   6.697  18.280  0.00  0.00    +0.000 A 
ATOM      2  C   UNL     1       3.004   7.838  17.521  0.00  0.00    +0.000 A 
ATOM      3  C   UNL     1       2.174   8.834  18.027  0.00  0.00    +0.000 A 
ATOM      4  C   UNL     1       1.584   8.692  19.283  0.00  0.00    +0.000 A 
ATOM      5  C   UNL     1       1.887   7.578  20.068  0.00  0.00    +0.000 A 
ATOM      6  C   UNL     1       2.734   6.590  19.570  0.00  0.00    +0.000 A 
ENDROOT
BRANCH   1  15
ATOM      7  C   UNL     1       3.605   2.569  19.882  0.00  0.00    +0.000 C 
ATOM      8  C   UNL     1       3.364   3.554  18.770  0.00  0.00    +0.000 C 
ATOM      9  O   UNL     1       2.314   3.544  18.125  0.00  0.00    +0.000 OA
ATOM     10  N   UNL     1       4.367   4.481  18.563  0.00  0.00    +0.000 N 
ATOM     11  N   UNL     1       5.566   4.481  19.236  0.00  0.00    +0.000 NA
ATOM     12  C   UNL     1       6.262   5.445  18.712  0.00  0.00    +0.000 C 
ATOM     13  C   UNL     1       7.639   5.800  19.161  0.00  0.00    +0.000 C 
ATOM     14  C   UNL     1       5.626   6.160  17.556  0.00  0.00    +0.000 C 
ATOM     15  C   UNL     1       4.205   5.636  17.691  0.00  0.00    +0.000 C 
ENDBRANCH   1  15
BRANCH   4  16
ATOM     16  O   UNL     1       0.692   9.585  19.816  0.00  0.00    +0.000 OA
BRANCH  16  17
ATOM     17  C   UNL     1       0.494  10.749  19.011  0.00  0.00    +0.000 C 
BRANCH  17  18
ATOM     18  C   UNL     1      -0.936  10.813  18.577  0.00  0.00    +0.000 A 
ATOM     19  C   UNL     1      -1.422  10.014  17.538  0.00  0.00    +0.000 A 
ATOM     20  C   UNL     1      -2.759  10.120  17.169  0.00  0.00    +0.000 A 
ATOM     21  C   UNL     1      -3.553  11.017  17.866  0.00  0.00    +0.000 A 
ATOM     22 CL   UNL     1      -5.207  11.222  17.458  0.00  0.00    +0.000 Cl
ATOM     23  N   UNL     1      -3.127  11.791  18.882  0.00  0.00    +0.000 NA
ATOM     24  C   UNL     1      -1.825  11.673  19.210  0.00  0.00    +0.000 A 
ENDBRANCH  17  18
ENDBRANCH  16  17
ENDBRANCH   4  16
TORSDOF 4
ENDMDL
MODEL 2
REMARK VINA RESULT:      -7.9      1.446      2.677
REMARK  Name = 
REMARK  6 active torsions:
REMARK  status: ('A' for Active; 'I' for Inactive)
REMARK    1  A    between atoms: C_1  and  C_2
REMARK    2  A    between atoms: C_6  and  C_7
REMARK    3  A    between atoms: C_9  and  C_10
REMARK    4  A    between atoms: C_13  and  O_14
REMARK    5  A    between atoms: O_14  and  C_15
REMARK    6  A    between atoms: C_15  and  C_16
REMARK                            x       y       z     vdW  Elec       q    Type
REMARK                         _______ _______ _______ _____ _____    ______ ____
ROOT
ATOM      1  C   UNL     1       2.448   6.538  19.571  0.00  0.00    +0.000 A 
ATOM      2  C   UNL     1       2.607   6.924  18.235  0.00  0.00    +0.000 A 
ATOM      3  C   UNL     1       2.170   8.173  17.805  0.00  0.00    +0.000 A 
ATOM      4  C   UNL     1       1.535   9.044  18.691  0.00  0.00    +0.000 A 
ATOM      5  C   UNL     1       1.403   8.690  20.034  0.00  0.00    +0.000 A 
ATOM      6  C   UNL     1       1.858   7.446  20.470  0.00  0.00    +0.000 A 
ENDROOT
BRANCH   1  15
ATOM      7  C   UNL     1       5.375   4.154  17.237  0.00  0.00    +0.000 C 
ATOM      8  C   UNL     1       4.905   4.822  18.499  0.00  0.00    +0.000 C 
ATOM      9  O   UNL     1       5.595   5.668  19.070  0.00  0.00    +0.000 OA
ATOM     10  N   UNL     1       3.644   4.460  18.935  0.00  0.00    +0.000 N 
ATOM     11  N   UNL     1       2.876   3.485  18.343  0.00  0.00    +0.000 NA
ATOM     12  C   UNL     1       1.810   3.384  19.079  0.00  0.00    +0.000 C 
ATOM     13  C   UNL     1       0.696   2.437  18.784  0.00  0.00    +0.000 C 
ATOM     14  C   UNL     1       1.780   4.240  20.312  0.00  0.00    +0.000 C 
ATOM     15  C   UNL     1       2.945   5.166  20.000  0.00  0.00    +0.000 C 
ENDBRANCH   1  15
BRANCH   4  16
ATOM     16  O   UNL     1       1.003  10.254  18.328  0.00  0.00    +0.000 OA
BRANCH  16  17
ATOM     17  C   UNL     1       0.126  10.813  19.308  0.00  0.00    +0.000 C 
BRANCH  17  18
ATOM     18  C   UNL     1      -1.258  10.892  18.746  0.00  0.00    +0.000 A 
ATOM     19  C   UNL     1      -1.660  10.087  17.676  0.00  0.00    +0.000 A 
ATOM     20  C   UNL     1      -2.956  10.207  17.186  0.00  0.00    +0.000 A 
ATOM     21  C   UNL     1      -3.797  11.123  17.798  0.00  0.00    +0.000 A 
ATOM     22 CL   UNL     1      -5.404  11.347  17.240  0.00  0.00    +0.000 Cl
ATOM     23  N   UNL     1      -3.452  11.904  18.840  0.00  0.00    +0.000 NA
ATOM     24  C   UNL     1      -2.188  11.772  19.286  0.00  0.00    +0.000 A 
ENDBRANCH  17  18
ENDBRANCH  16  17
ENDBRANCH   4  16
TORSDOF 4
ENDMDL
MODEL 3
REMARK VINA RESULT:      -7.9      1.426      2.781
REMARK  Name = 
REMARK  6 active torsions:
REMARK  status: ('A' for Active; 'I' for Inactive)
REMARK    1  A    between atoms: C_1  and  C_2
REMARK    2  A    between atoms: C_6  and  C_7
REMARK    3  A    between atoms: C_9  and  C_10
REMARK    4  A    between atoms: C_13  and  O_14
REMARK    5  A    between atoms: O_14  and  C_15
REMARK    6  A    between atoms: C_15  and  C_16
REMARK                            x       y       z     vdW  Elec       q    Type
REMARK                         _______ _______ _______ _____ _____    ______ ____
ROOT
ATOM      1  C   UNL     1       2.557   6.591  19.431  0.00  0.00    +0.000 A 
ATOM      2  C   UNL     1       1.886   7.342  20.402  0.00  0.00    +0.000 A 
ATOM      3  C   UNL     1       1.372   8.598  20.091  0.00  0.00    +0.000 A 
ATOM      4  C   UNL     1       1.550   9.139  18.817  0.00  0.00    +0.000 A 
ATOM      5  C   UNL     1       2.183   8.386  17.828  0.00  0.00    +0.000 A 
ATOM      6  C   UNL     1       2.681   7.121  18.133  0.00  0.00    +0.000 A 
ENDROOT
BRANCH   1  15
ATOM      7  C   UNL     1       5.237   4.202  16.820  0.00  0.00    +0.000 C 
ATOM      8  C   UNL     1       4.896   4.875  18.121  0.00  0.00    +0.000 C 
ATOM      9  O   UNL     1       5.639   5.725  18.615  0.00  0.00    +0.000 OA
ATOM     10  N   UNL     1       3.688   4.512  18.684  0.00  0.00    +0.000 N 
ATOM     11  N   UNL     1       2.866   3.532  18.178  0.00  0.00    +0.000 NA
ATOM     12  C   UNL     1       1.881   3.433  19.020  0.00  0.00    +0.000 C 
ATOM     13  C   UNL     1       0.746   2.482  18.844  0.00  0.00    +0.000 C 
ATOM     14  C   UNL     1       1.975   4.294  20.245  0.00  0.00    +0.000 C 
ATOM     15  C   UNL     1       3.099   5.221  19.812  0.00  0.00    +0.000 C 
ENDBRANCH   1  15
BRANCH   4  16
ATOM     16  O   UNL     1       1.147  10.399  18.457  0.00  0.00    +0.000 OA
BRANCH  16  17
ATOM     17  C   UNL     1       0.252  11.005  19.392  0.00  0.00    +0.000 C 
BRANCH  17  18
ATOM     18  C   UNL     1      -1.130  11.012  18.820  0.00  0.00    +0.000 A 
ATOM     19  C   UNL     1      -1.502  10.137  17.793  0.00  0.00    +0.000 A 
ATOM     20  C   UNL     1      -2.798  10.192  17.292  0.00  0.00    +0.000 A 
ATOM     21  C   UNL     1      -3.669  11.114  17.849  0.00  0.00    +0.000 A 
ATOM     22 CL   UNL     1      -5.279  11.259  17.273  0.00  0.00    +0.000 Cl
ATOM     23  N   UNL     1      -3.354  11.961  18.849  0.00  0.00    +0.000 NA
ATOM     24  C   UNL     1      -2.089  11.891  19.307  0.00  0.00    +0.000 A 
ENDBRANCH  17  18
ENDBRANCH  16  17
ENDBRANCH   4  16
TORSDOF 4
ENDMDL
MODEL 4
REMARK VINA RESULT:      -7.9      0.322      1.035
REMARK  Name = 
REMARK  6 active torsions:
REMARK  status: ('A' for Active; 'I' for Inactive)
REMARK    1  A    between atoms: C_1  and  C_2
REMARK    2  A    between atoms: C_6  and  C_7
REMARK    3  A    between atoms: C_9  and  C_10
REMARK    4  A    between atoms: C_13  and  O_14
REMARK    5  A    between atoms: O_14  and  C_15
REMARK    6  A    between atoms: C_15  and  C_16
REMARK                            x       y       z     vdW  Elec       q    Type
REMARK                         _______ _______ _______ _____ _____    ______ ____
ROOT
ATOM      1  C   UNL     1       3.082   6.851  18.227  0.00  0.00    +0.000 A 
ATOM      2  C   UNL     1       2.611   6.745  19.540  0.00  0.00    +0.000 A 
ATOM      3  C   UNL     1       1.797   7.738  20.080  0.00  0.00    +0.000 A 
ATOM      4  C   UNL     1       1.470   8.869  19.331  0.00  0.00    +0.000 A 
ATOM      5  C   UNL     1       1.901   8.970  18.007  0.00  0.00    +0.000 A 
ATOM      6  C   UNL     1       2.699   7.967  17.460  0.00  0.00    +0.000 A 
ENDROOT
BRANCH   1  15
ATOM      7  C   UNL     1       3.003   2.679  19.739  0.00  0.00    +0.000 C 
ATOM      8  C   UNL     1       2.908   3.700  18.639  0.00  0.00    +0.000 C 
ATOM      9  O   UNL     1       1.909   3.777  17.923  0.00  0.00    +0.000 OA
ATOM     10  N   UNL     1       3.984   4.559  18.527  0.00  0.00    +0.000 N 
ATOM     11  N   UNL     1       5.130   4.461  19.281  0.00  0.00    +0.000 NA
ATOM     12  C   UNL     1       5.925   5.386  18.831  0.00  0.00    +0.000 C 
ATOM     13  C   UNL     1       7.288   5.635  19.384  0.00  0.00    +0.000 C 
ATOM     14  C   UNL     1       5.423   6.168  17.652  0.00  0.00    +0.000 C 
ATOM     15  C   UNL     1       3.964   5.740  17.675  0.00  0.00    +0.000 C 
ENDBRANCH   1  15
BRANCH   4  16
ATOM     16  O   UNL     1       0.746   9.926  19.816  0.00  0.00    +0.000 OA
BRANCH  16  17
ATOM     17  C   UNL     1       0.472  10.931  18.838  0.00  0.00    +0.000 C 
BRANCH  17  18
ATOM     18  C   UNL     1      -0.989  10.924  18.517  0.00  0.00    +0.000 A 
ATOM     19  C   UNL     1      -1.522  10.067  17.550  0.00  0.00    +0.000 A 
ATOM     20  C   UNL     1      -2.887  10.107  17.285  0.00  0.00    +0.000 A 
ATOM     21  C   UNL     1      -3.661  11.000  18.010  0.00  0.00    +0.000 A 
ATOM     22 CL   UNL     1      -5.348  11.127  17.728  0.00  0.00    +0.000 Cl
ATOM     23  N   UNL     1      -3.188  11.830  18.960  0.00  0.00    +0.000 NA
ATOM     24  C   UNL     1      -1.861  11.774  19.188  0.00  0.00    +0.000 A 
ENDBRANCH  17  18
ENDBRANCH  16  17
ENDBRANCH   4  16
TORSDOF 4
ENDMDL
MODEL 5
REMARK VINA RESULT:      -7.8      3.792      8.199
REMARK  Name = 
REMARK  6 active torsions:
REMARK  status: ('A' for Active; 'I' for Inactive)
REMARK    1  A    between atoms: C_1  and  C_2
REMARK    2  A    between atoms: C_6  and  C_7
REMARK    3  A    between atoms: C_9  and  C_10
REMARK    4  A    between atoms: C_13  and  O_14
REMARK    5  A    between atoms: O_14  and  C_15
REMARK    6  A    between atoms: C_15  and  C_16
REMARK                            x       y       z     vdW  Elec       q    Type
REMARK                         _______ _______ _______ _____ _____    ______ ____
ROOT
ATOM      1  C   UNL     1       1.861   8.622  19.307  0.00  0.00    +0.000 A 
ATOM      2  C   UNL     1       2.518   8.463  18.081  0.00  0.00    +0.000 A 
ATOM      3  C   UNL     1       3.087   7.240  17.740  0.00  0.00    +0.000 A 
ATOM      4  C   UNL     1       3.041   6.165  18.630  0.00  0.00    +0.000 A 
ATOM      5  C   UNL     1       2.357   6.297  19.838  0.00  0.00    +0.000 A 
ATOM      6  C   UNL     1       1.770   7.517  20.172  0.00  0.00    +0.000 A 
ENDROOT
BRANCH   1  15
ATOM      7  C   UNL     1      -0.554   9.394  22.950  0.00  0.00    +0.000 C 
ATOM      8  C   UNL     1       0.594   9.689  22.025  0.00  0.00    +0.000 C 
ATOM      9  O   UNL     1       1.757   9.692  22.431  0.00  0.00    +0.000 OA
ATOM     10  N   UNL     1       0.257   9.902  20.702  0.00  0.00    +0.000 N 
ATOM     11  N   UNL     1      -1.035   9.952  20.235  0.00  0.00    +0.000 NA
ATOM     12  C   UNL     1      -0.941  10.246  18.973  0.00  0.00    +0.000 C 
ATOM     13  C   UNL     1      -2.122  10.391  18.074  0.00  0.00    +0.000 C 
ATOM     14  C   UNL     1       0.446  10.510  18.462  0.00  0.00    +0.000 C 
ATOM     15  C   UNL     1       1.249   9.976  19.638  0.00  0.00    +0.000 C 
ENDBRANCH   1  15
BRANCH   4  16
ATOM     16  O   UNL     1       3.646   4.957  18.404  0.00  0.00    +0.000 OA
BRANCH  16  17
ATOM     17  C   UNL     1       5.072   5.004  18.493  0.00  0.00    +0.000 C 
BRANCH  17  18
ATOM     18  C   UNL     1       5.655   4.959  17.116  0.00  0.00    +0.000 A 
ATOM     19  C   UNL     1       5.028   4.262  16.078  0.00  0.00    +0.000 A 
ATOM     20  C   UNL     1       5.619   4.246  14.819  0.00  0.00    +0.000 A 
ATOM     21  C   UNL     1       6.808   4.938  14.652  0.00  0.00    +0.000 A 
ATOM     22 CL   UNL     1       7.611   4.950  13.136  0.00  0.00    +0.000 Cl
ATOM     23  N   UNL     1       7.434   5.634  15.622  0.00  0.00    +0.000 NA
ATOM     24  C   UNL     1       6.843   5.623  16.833  0.00  0.00    +0.000 A 
ENDBRANCH  17  18
ENDBRANCH  16  17
ENDBRANCH   4  16
TORSDOF 4
ENDMDL
MODEL 6
REMARK VINA RESULT:      -7.8      2.822      3.915
REMARK  Name = 
REMARK  6 active torsions:
REMARK  status: ('A' for Active; 'I' for Inactive)
REMARK    1  A    between atoms: C_1  and  C_2
REMARK    2  A    between atoms: C_6  and  C_7
REMARK    3  A    between atoms: C_9  and  C_10
REMARK    4  A    between atoms: C_13  and  O_14
REMARK    5  A    between atoms: O_14  and  C_15
REMARK    6  A    between atoms: C_15  and  C_16
REMARK                            x       y       z     vdW  Elec       q    Type
REMARK                         _______ _______ _______ _____ _____    ______ ____
ROOT
ATOM      1  C   UNL     1       3.929   5.171  18.965  0.00  0.00    +0.000 A 
ATOM      2  C   UNL     1       3.226   4.656  20.060  0.00  0.00    +0.000 A 
ATOM      3  C   UNL     1       2.195   5.387  20.643  0.00  0.00    +0.000 A 
ATOM      4  C   UNL     1       1.872   6.658  20.167  0.00  0.00    +0.000 A 
ATOM      5  C   UNL     1       2.537   7.169  19.052  0.00  0.00    +0.000 A 
ATOM      6  C   UNL     1       3.557   6.430  18.456  0.00  0.00    +0.000 A 
ENDROOT
BRANCH   1  15
ATOM      7  C   UNL     1       8.088   6.637  18.462  0.00  0.00    +0.000 C 
ATOM      8  C   UNL     1       7.076   5.645  18.966  0.00  0.00    +0.000 C 
ATOM      9  O   UNL     1       7.002   5.359  20.162  0.00  0.00    +0.000 OA
ATOM     10  N   UNL     1       6.220   5.128  18.013  0.00  0.00    +0.000 N 
ATOM     11  N   UNL     1       6.314   5.395  16.667  0.00  0.00    +0.000 NA
ATOM     12  C   UNL     1       5.395   4.671  16.101  0.00  0.00    +0.000 C 
ATOM     13  C   UNL     1       5.144   4.666  14.631  0.00  0.00    +0.000 C 
ATOM     14  C   UNL     1       4.622   3.762  17.012  0.00  0.00    +0.000 C 
ATOM     15  C   UNL     1       5.045   4.337  18.354  0.00  0.00    +0.000 C 
ENDBRANCH   1  15
BRANCH   4  16
ATOM     16  O   UNL     1       0.929   7.473  20.736  0.00  0.00    +0.000 OA
BRANCH  16  17
ATOM     17  C   UNL     1       1.476   8.459  21.614  0.00  0.00    +0.000 C 
BRANCH  17  18
ATOM     18  C   UNL     1       0.464   9.538  21.837  0.00  0.00    +0.000 A 
ATOM     19  C   UNL     1       0.076  10.402  20.807  0.00  0.00    +0.000 A 
ATOM     20  C   UNL     1      -0.863  11.393  21.071  0.00  0.00    +0.000 A 
ATOM     21  C   UNL     1      -1.379  11.471  22.356  0.00  0.00    +0.000 A 
ATOM     22 CL   UNL     1      -2.525  12.679  22.768  0.00  0.00    +0.000 Cl
ATOM     23  N   UNL     1      -1.043  10.648  23.369  0.00  0.00    +0.000 NA
ATOM     24  C   UNL     1      -0.125   9.704  23.084  0.00  0.00    +0.000 A 
ENDBRANCH  17  18
ENDBRANCH  16  17
ENDBRANCH   4  16
TORSDOF 4
ENDMDL
MODEL 7
REMARK VINA RESULT:      -7.8      0.650      1.429
REMARK  Name = 
REMARK  6 active torsions:
REMARK  status: ('A' for Active; 'I' for Inactive)
REMARK    1  A    between atoms: C_1  and  C_2
REMARK    2  A    between atoms: C_6  and  C_7
REMARK    3  A    between atoms: C_9  and  C_10
REMARK    4  A    between atoms: C_13  and  O_14
REMARK    5  A    between atoms: O_14  and  C_15
REMARK    6  A    between atoms: C_15  and  C_16
REMARK                            x       y       z     vdW  Elec       q    Type
REMARK                         _______ _______ _______ _____ _____    ______ ____
ROOT
ATOM      1  C   UNL     1       3.526   6.629  18.110  0.00  0.00    +0.000 A 
ATOM      2  C   UNL     1       3.005   6.386  19.386  0.00  0.00    +0.000 A 
ATOM      3  C   UNL     1       2.079   7.260  19.949  0.00  0.00    +0.000 A 
ATOM      4  C   UNL     1       1.684   8.409  19.263  0.00  0.00    +0.000 A 
ATOM      5  C   UNL     1       2.165   8.645  17.975  0.00  0.00    +0.000 A 
ATOM      6  C   UNL     1       3.077   7.760  17.404  0.00  0.00    +0.000 A 
ENDROOT
BRANCH   1  15
ATOM      7  C   UNL     1       3.829   2.392  19.398  0.00  0.00    +0.000 C 
ATOM      8  C   UNL     1       3.662   3.459  18.351  0.00  0.00    +0.000 C 
ATOM      9  O   UNL     1       2.681   3.475  17.607  0.00  0.00    +0.000 OA
ATOM     10  N   UNL     1       4.648   4.427  18.320  0.00  0.00    +0.000 N 
ATOM     11  N   UNL     1       5.776   4.402  19.106  0.00  0.00    +0.000 NA
ATOM     12  C   UNL     1       6.485   5.425  18.733  0.00  0.00    +0.000 C 
ATOM     13  C   UNL     1       7.799   5.778  19.343  0.00  0.00    +0.000 C 
ATOM     14  C   UNL     1       5.940   6.217  17.580  0.00  0.00    +0.000 C 
ATOM     15  C   UNL     1       4.531   5.645  17.531  0.00  0.00    +0.000 C 
ENDBRANCH   1  15
BRANCH   4  16
ATOM     16  O   UNL     1       0.843   9.359  19.781  0.00  0.00    +0.000 OA
BRANCH  16  17
ATOM     17  C   UNL     1       0.723  10.526  18.965  0.00  0.00    +0.000 C 
BRANCH  17  18
ATOM     18  C   UNL     1      -0.715  10.733  18.607  0.00  0.00    +0.000 A 
ATOM     19  C   UNL     1      -1.514  11.654  19.292  0.00  0.00    +0.000 A 
ATOM     20  C   UNL     1      -2.847  11.801  18.924  0.00  0.00    +0.000 A 
ATOM     21  C   UNL     1      -3.319  11.024  17.878  0.00  0.00    +0.000 A 
ATOM     22 CL   UNL     1      -4.957  11.130  17.377  0.00  0.00    +0.000 Cl
ATOM     23  N   UNL     1      -2.577  10.139  17.184  0.00  0.00    +0.000 NA
ATOM     24  C   UNL     1      -1.293  10.012  17.569  0.00  0.00    +0.000 A 
ENDBRANCH  17  18
ENDBRANCH  16  17
ENDBRANCH   4  16
TORSDOF 4
ENDMDL
MODEL 8
REMARK VINA RESULT:      -7.8      2.607      3.702
REMARK  Name = 
REMARK  6 active torsions:
REMARK  status: ('A' for Active; 'I' for Inactive)
REMARK    1  A    between atoms: C_1  and  C_2
REMARK    2  A    between atoms: C_6  and  C_7
REMARK    3  A    between atoms: C_9  and  C_10
REMARK    4  A    between atoms: C_13  and  O_14
REMARK    5  A    between atoms: O_14  and  C_15
REMARK    6  A    between atoms: C_15  and  C_16
REMARK                            x       y       z     vdW  Elec       q    Type
REMARK                         _______ _______ _______ _____ _____    ______ ____
ROOT
ATOM      1  C   UNL     1       3.831   5.623  18.578  0.00  0.00    +0.000 A 
ATOM      2  C   UNL     1       3.106   5.433  19.760  0.00  0.00    +0.000 A 
ATOM      3  C   UNL     1       2.189   6.389  20.187  0.00  0.00    +0.000 A 
ATOM      4  C   UNL     1       2.005   7.566  19.461  0.00  0.00    +0.000 A 
ATOM      5  C   UNL     1       2.692   7.753  18.261  0.00  0.00    +0.000 A 
ATOM      6  C   UNL     1       3.596   6.788  17.823  0.00  0.00    +0.000 A 
ENDROOT
BRANCH   1  15
ATOM      7  C   UNL     1       8.228   6.227  18.513  0.00  0.00    +0.000 C 
ATOM      8  C   UNL     1       6.990   5.485  18.936  0.00  0.00    +0.000 C 
ATOM      9  O   UNL     1       6.731   5.300  20.127  0.00  0.00    +0.000 OA
ATOM     10  N   UNL     1       6.157   5.077  17.912  0.00  0.00    +0.000 N 
ATOM     11  N   UNL     1       6.449   5.228  16.576  0.00  0.00    +0.000 NA
ATOM     12  C   UNL     1       5.472   4.656  15.938  0.00  0.00    +0.000 C 
ATOM     13  C   UNL     1       5.387   4.599  14.450  0.00  0.00    +0.000 C 
ATOM     14  C   UNL     1       4.439   3.977  16.790  0.00  0.00    +0.000 C 
ATOM     15  C   UNL     1       4.820   4.551  18.146  0.00  0.00    +0.000 C 
ENDBRANCH   1  15
BRANCH   4  16
ATOM     16  O   UNL     1       1.185   8.590  19.857  0.00  0.00    +0.000 OA
BRANCH  16  17
ATOM     17  C   UNL     1       0.907   8.594  21.259  0.00  0.00    +0.000 C 
BRANCH  17  18
ATOM     18  C   UNL     1       0.008   9.746  21.581  0.00  0.00    +0.000 A 
ATOM     19  C   UNL     1      -0.456   9.971  22.881  0.00  0.00    +0.000 A 
ATOM     20  C   UNL     1      -1.296  11.052  23.124  0.00  0.00    +0.000 A 
ATOM     21  C   UNL     1      -1.627  11.868  22.053  0.00  0.00    +0.000 A 
ATOM     22 CL   UNL     1      -2.675  13.210  22.265  0.00  0.00    +0.000 Cl
ATOM     23  N   UNL     1      -1.187  11.694  20.791  0.00  0.00    +0.000 NA
ATOM     24  C   UNL     1      -0.383  10.633  20.586  0.00  0.00    +0.000 A 
ENDBRANCH  17  18
ENDBRANCH  16  17
ENDBRANCH   4  16
TORSDOF 4
ENDMDL
MODEL 9
REMARK VINA RESULT:      -7.8      1.667      2.450
REMARK  Name = 
REMARK  6 active torsions:
REMARK  status: ('A' for Active; 'I' for Inactive)
REMARK    1  A    between atoms: C_1  and  C_2
REMARK    2  A    between atoms: C_6  and  C_7
REMARK    3  A    between atoms: C_9  and  C_10
REMARK    4  A    between atoms: C_13  and  O_14
REMARK    5  A    between atoms: O_14  and  C_15
REMARK    6  A    between atoms: C_15  and  C_16
REMARK                            x       y       z     vdW  Elec       q    Type
REMARK                         _______ _______ _______ _____ _____    ______ ____
ROOT
ATOM      1  C   UNL     1       3.749   5.871  18.464  0.00  0.00    +0.000 A 
ATOM      2  C   UNL     1       3.641   6.981  17.618  0.00  0.00    +0.000 A 
ATOM      3  C   UNL     1       2.797   8.038  17.945  0.00  0.00    +0.000 A 
ATOM      4  C   UNL     1       2.020   7.991  19.104  0.00  0.00    +0.000 A 
ATOM      5  C   UNL     1       2.145   6.909  19.976  0.00  0.00    +0.000 A 
ATOM      6  C   UNL     1       3.004   5.859  19.658  0.00  0.00    +0.000 A 
ENDROOT
BRANCH   1  15
ATOM      7  C   UNL     1       8.173   6.182  18.645  0.00  0.00    +0.000 C 
ATOM      8  C   UNL     1       6.867   5.519  18.990  0.00  0.00    +0.000 C 
ATOM      9  O   UNL     1       6.532   5.339  20.162  0.00  0.00    +0.000 OA
ATOM     10  N   UNL     1       6.067   5.178  17.917  0.00  0.00    +0.000 N 
ATOM     11  N   UNL     1       6.440   5.324  16.601  0.00  0.00    +0.000 NA
ATOM     12  C   UNL     1       5.464   4.826  15.903  0.00  0.00    +0.000 C 
ATOM     13  C   UNL     1       5.457   4.790  14.412  0.00  0.00    +0.000 C 
ATOM     14  C   UNL     1       4.344   4.208  16.688  0.00  0.00    +0.000 C 
ATOM     15  C   UNL     1       4.687   4.740  18.070  0.00  0.00    +0.000 C 
ENDBRANCH   1  15
BRANCH   4  16
ATOM     16  O   UNL     1       1.106   8.950  19.453  0.00  0.00    +0.000 OA
BRANCH  16  17
ATOM     17  C   UNL     1       1.051  10.050  18.542  0.00  0.00    +0.000 C 
BRANCH  17  18
ATOM     18  C   UNL     1      -0.377  10.429  18.311  0.00  0.00    +0.000 A 
ATOM     19  C   UNL     1      -1.202   9.691  17.456  0.00  0.00    +0.000 A 
ATOM     20  C   UNL     1      -2.520  10.092  17.270  0.00  0.00    +0.000 A 
ATOM     21  C   UNL     1      -2.958  11.213  17.958  0.00  0.00    +0.000 A 
ATOM     22 CL   UNL     1      -4.564  11.786  17.767  0.00  0.00    +0.000 Cl
ATOM     23  N   UNL     1      -2.200  11.940  18.802  0.00  0.00    +0.000 NA
ATOM     24  C   UNL     1      -0.926  11.532  18.954  0.00  0.00    +0.000 A 
ENDBRANCH  17  18
ENDBRANCH  16  17
ENDBRANCH   4  16
TORSDOF 4
ENDMDL
