MODEL 1
REMARK VINA RESULT:      -7.6      0.000      0.000
REMARK  Name = 
REMARK  6 active torsions:
REMARK  status: ('A' for Active; 'I' for Inactive)
REMARK    1  A    between atoms: C_1  and  C_2
REMARK    2  A    between atoms: C_7  and  C_8
REMARK    3  A    between atoms: C_11  and  N_12
REMARK    4  A    between atoms: N_12  and  C_13
REMARK    5  A    between atoms: C_13  and  C_14
REMARK    6  A    between atoms: C_16  and  C_17
REMARK                            x       y       z     vdW  Elec       q    Type
REMARK                         _______ _______ _______ _____ _____    ______ ____
ROOT
ATOM      1  N   UNL     1       5.674   5.560  16.423  0.00  0.00    +0.000 NA
ATOM      2  H   UNL     1       5.002   5.157  15.771  0.00  0.00    +0.000 HD
ENDROOT
BRANCH   1  13
ATOM      3  C   UNL     1       0.599   2.185  18.976  0.00  0.00    +0.000 C 
ATOM      4  C   UNL     1       1.889   2.869  18.607  0.00  0.00    +0.000 A 
ATOM      5  C   UNL     1       2.585   2.460  17.449  0.00  0.00    +0.000 A 
ATOM      6  C   UNL     1       3.785   3.070  17.068  0.00  0.00    +0.000 A 
ATOM      7  C   UNL     1       4.287   4.097  17.851  0.00  0.00    +0.000 A 
ATOM      8  C   UNL     1       3.612   4.491  18.998  0.00  0.00    +0.000 A 
ATOM      9  C   UNL     1       2.412   3.909  19.404  0.00  0.00    +0.000 A 
ATOM     10  C   UNL     1       1.711   4.372  20.649  0.00  0.00    +0.000 C 
ATOM     11  O   UNL     1       4.245   5.481  19.701  0.00  0.00    +0.000 OA
ATOM     12  C   UNL     1       5.435   5.784  18.946  0.00  0.00    +0.000 C 
ATOM     13  C   UNL     1       5.560   4.862  17.709  0.00  0.00    +0.000 C 
ENDBRANCH   1  13
BRANCH   1  14
ATOM     14  C   UNL     1       7.012   5.430  15.836  0.00  0.00    +0.000 C 
BRANCH  14  15
ATOM     15  C   UNL     1       6.910   4.852  14.452  0.00  0.00    +0.000 A 
ATOM     16  C   UNL     1       5.975   3.952  13.985  0.00  0.00    +0.000 A 
ATOM     17  C   UNL     1       6.151   3.605  12.605  0.00  0.00    +0.000 A 
ATOM     18  C   UNL     1       7.232   4.293  12.077  0.00  0.00    +0.000 A 
ATOM     19  S   UNL     1       8.001   5.307  13.218  0.00  0.00    +0.000 S 
BRANCH  17  20
ATOM     20  C   UNL     1       5.351   2.681  11.803  0.00  0.00    +0.000 C 
ATOM     21  N   UNL     1       5.959   1.511  11.451  0.00  0.00    +0.000 N 
ATOM     22  O   UNL     1       4.199   2.913  11.446  0.00  0.00    +0.000 OA
ATOM     23  H   UNL     1       6.913   1.282  11.684  0.00  0.00    +0.000 HD
ATOM     24  H   UNL     1       5.433   0.867  10.878  0.00  0.00    +0.000 HD
ENDBRANCH  17  20
ENDBRANCH  14  15
ENDBRANCH   1  14
TORSDOF 4
ENDMDL
MODEL 2
REMARK VINA RESULT:      -7.4      1.185      1.194
REMARK  Name = 
REMARK  6 active torsions:
REMARK  status: ('A' for Active; 'I' for Inactive)
REMARK    1  A    between atoms: C_1  and  C_2
REMARK    2  A    between atoms: C_7  and  C_8
REMARK    3  A    between atoms: C_11  and  N_12
REMARK    4  A    between atoms: N_12  and  C_13
REMARK    5  A    between atoms: C_13  and  C_14
REMARK    6  A    between atoms: C_16  and  C_17
REMARK                            x       y       z     vdW  Elec       q    Type
REMARK                         _______ _______ _______ _____ _____    ______ ____
ROOT
ATOM      1  N   UNL     1       6.207   4.037  16.836  0.00  0.00    +0.000 NA
ATOM      2  H   UNL     1       6.884   3.275  16.865  0.00  0.00    +0.000 HD
ENDROOT
BRANCH   1  13
ATOM      3  C   UNL     1       1.206   2.937  21.013  0.00  0.00    +0.000 C 
ATOM      4  C   UNL     1       2.458   3.314  20.265  0.00  0.00    +0.000 A 
ATOM      5  C   UNL     1       3.338   2.300  19.829  0.00  0.00    +0.000 A 
ATOM      6  C   UNL     1       4.511   2.606  19.129  0.00  0.00    +0.000 A 
ATOM      7  C   UNL     1       4.798   3.935  18.863  0.00  0.00    +0.000 A 
ATOM      8  C   UNL     1       3.942   4.934  19.304  0.00  0.00    +0.000 A 
ATOM      9  C   UNL     1       2.764   4.665  19.999  0.00  0.00    +0.000 A 
ATOM     10  C   UNL     1       1.862   5.777  20.451  0.00  0.00    +0.000 C 
ATOM     11  O   UNL     1       4.374   6.202  19.016  0.00  0.00    +0.000 OA
ATOM     12  C   UNL     1       5.616   6.029  18.305  0.00  0.00    +0.000 C 
ATOM     13  C   UNL     1       5.995   4.532  18.202  0.00  0.00    +0.000 C 
ENDBRANCH   1  13
BRANCH   1  14
ATOM     14  C   UNL     1       6.729   5.077  15.943  0.00  0.00    +0.000 C 
BRANCH  14  15
ATOM     15  C   UNL     1       6.698   4.593  14.520  0.00  0.00    +0.000 A 
ATOM     16  C   UNL     1       5.815   3.694  13.958  0.00  0.00    +0.000 A 
ATOM     17  C   UNL     1       6.051   3.450  12.565  0.00  0.00    +0.000 A 
ATOM     18  C   UNL     1       7.122   4.212  12.126  0.00  0.00    +0.000 A 
ATOM     19  S   UNL     1       7.812   5.172  13.361  0.00  0.00    +0.000 S 
BRANCH  17  20
ATOM     20  C   UNL     1       5.315   2.556  11.673  0.00  0.00    +0.000 C 
ATOM     21  N   UNL     1       5.920   1.368  11.382  0.00  0.00    +0.000 N 
ATOM     22  O   UNL     1       4.218   2.827  11.193  0.00  0.00    +0.000 OA
ATOM     23  H   UNL     1       6.835   1.108  11.717  0.00  0.00    +0.000 HD
ATOM     24  H   UNL     1       5.441   0.744  10.750  0.00  0.00    +0.000 HD
ENDBRANCH  17  20
ENDBRANCH  14  15
ENDBRANCH   1  14
TORSDOF 4
ENDMDL
MODEL 3
REMARK VINA RESULT:      -7.3      3.312      4.431
REMARK  Name = 
REMARK  6 active torsions:
REMARK  status: ('A' for Active; 'I' for Inactive)
REMARK    1  A    between atoms: C_1  and  C_2
REMARK    2  A    between atoms: C_7  and  C_8
REMARK    3  A    between atoms: C_11  and  N_12
REMARK    4  A    between atoms: N_12  and  C_13
REMARK    5  A    between atoms: C_13  and  C_14
REMARK    6  A    between atoms: C_16  and  C_17
REMARK                            x       y       z     vdW  Elec       q    Type
REMARK                         _______ _______ _______ _____ _____    ______ ____
ROOT
ATOM      1  N   UNL     1       4.103   4.648  19.508  0.00  0.00    +0.000 NA
ATOM      2  H   UNL     1       4.681   5.469  19.329  0.00  0.00    +0.000 HD
ENDROOT
BRANCH   1  13
ATOM      3  C   UNL     1       1.417  10.612  18.568  0.00  0.00    +0.000 C 
ATOM      4  C   UNL     1       1.779   9.165  18.776  0.00  0.00    +0.000 A 
ATOM      5  C   UNL     1       2.516   8.484  17.783  0.00  0.00    +0.000 A 
ATOM      6  C   UNL     1       2.876   7.141  17.937  0.00  0.00    +0.000 A 
ATOM      7  C   UNL     1       2.497   6.479  19.094  0.00  0.00    +0.000 A 
ATOM      8  C   UNL     1       1.759   7.143  20.065  0.00  0.00    +0.000 A 
ATOM      9  C   UNL     1       1.388   8.481  19.946  0.00  0.00    +0.000 A 
ATOM     10  C   UNL     1       0.596   9.161  21.024  0.00  0.00    +0.000 C 
ATOM     11  O   UNL     1       1.411   6.356  21.130  0.00  0.00    +0.000 OA
ATOM     12  C   UNL     1       1.983   5.062  20.852  0.00  0.00    +0.000 C 
ATOM     13  C   UNL     1       2.691   5.050  19.476  0.00  0.00    +0.000 C 
ENDBRANCH   1  13
BRANCH   1  14
ATOM     14  C   UNL     1       4.417   3.640  18.490  0.00  0.00    +0.000 C 
BRANCH  14  15
ATOM     15  C   UNL     1       5.372   4.212  17.480  0.00  0.00    +0.000 A 
ATOM     16  C   UNL     1       5.449   3.915  16.134  0.00  0.00    +0.000 A 
ATOM     17  C   UNL     1       6.470   4.644  15.441  0.00  0.00    +0.000 A 
ATOM     18  C   UNL     1       7.124   5.494  16.319  0.00  0.00    +0.000 A 
ATOM     19  S   UNL     1       6.523   5.397  17.917  0.00  0.00    +0.000 S 
BRANCH  17  20
ATOM     20  C   UNL     1       6.825   4.566  14.025  0.00  0.00    +0.000 C 
ATOM     21  N   UNL     1       6.294   3.518  13.331  0.00  0.00    +0.000 N 
ATOM     22  O   UNL     1       7.558   5.375  13.463  0.00  0.00    +0.000 OA
ATOM     23  H   UNL     1       5.717   2.804  13.747  0.00  0.00    +0.000 HD
ATOM     24  H   UNL     1       6.543   3.431  12.357  0.00  0.00    +0.000 HD
ENDBRANCH  17  20
ENDBRANCH  14  15
ENDBRANCH   1  14
TORSDOF 4
ENDMDL
MODEL 4
REMARK VINA RESULT:      -7.2      1.409      1.481
REMARK  Name = 
REMARK  6 active torsions:
REMARK  status: ('A' for Active; 'I' for Inactive)
REMARK    1  A    between atoms: C_1  and  C_2
REMARK    2  A    between atoms: C_7  and  C_8
REMARK    3  A    between atoms: C_11  and  N_12
REMARK    4  A    between atoms: N_12  and  C_13
REMARK    5  A    between atoms: C_13  and  C_14
REMARK    6  A    between atoms: C_16  and  C_17
REMARK                            x       y       z     vdW  Elec       q    Type
REMARK                         _______ _______ _______ _____ _____    ______ ____
ROOT
ATOM      1  N   UNL     1       5.087   5.619  16.107  0.00  0.00    +0.000 NA
ATOM      2  H   UNL     1       4.588   4.733  16.021  0.00  0.00    +0.000 HD
ENDROOT
BRANCH   1  13
ATOM      3  C   UNL     1       2.372   2.708  21.381  0.00  0.00    +0.000 C 
ATOM      4  C   UNL     1       3.062   3.561  20.350  0.00  0.00    +0.000 A 
ATOM      5  C   UNL     1       4.223   3.075  19.711  0.00  0.00    +0.000 A 
ATOM      6  C   UNL     1       4.894   3.833  18.745  0.00  0.00    +0.000 A 
ATOM      7  C   UNL     1       4.394   5.084  18.417  0.00  0.00    +0.000 A 
ATOM      8  C   UNL     1       3.262   5.570  19.055  0.00  0.00    +0.000 A 
ATOM      9  C   UNL     1       2.567   4.840  20.018  0.00  0.00    +0.000 A 
ATOM     10  C   UNL     1       1.341   5.402  20.677  0.00  0.00    +0.000 C 
ATOM     11  O   UNL     1       2.910   6.836  18.670  0.00  0.00    +0.000 OA
ATOM     12  C   UNL     1       3.882   7.218  17.677  0.00  0.00    +0.000 C 
ATOM     13  C   UNL     1       4.945   6.109  17.483  0.00  0.00    +0.000 C 
ENDBRANCH   1  13
BRANCH   1  14
ATOM     14  C   UNL     1       6.488   5.389  15.740  0.00  0.00    +0.000 C 
BRANCH  14  15
ATOM     15  C   UNL     1       6.565   4.763  14.375  0.00  0.00    +0.000 A 
ATOM     16  C   UNL     1       5.705   3.833  13.828  0.00  0.00    +0.000 A 
ATOM     17  C   UNL     1       6.053   3.442  12.493  0.00  0.00    +0.000 A 
ATOM     18  C   UNL     1       7.183   4.129  12.078  0.00  0.00    +0.000 A 
ATOM     19  S   UNL     1       7.795   5.194  13.269  0.00  0.00    +0.000 S 
BRANCH  17  20
ATOM     20  C   UNL     1       5.369   2.480  11.632  0.00  0.00    +0.000 C 
ATOM     21  N   UNL     1       6.031   1.310  11.396  0.00  0.00    +0.000 N 
ATOM     22  O   UNL     1       4.266   2.680  11.131  0.00  0.00    +0.000 OA
ATOM     23  H   UNL     1       6.952   1.105  11.750  0.00  0.00    +0.000 HD
ATOM     24  H   UNL     1       5.587   0.639  10.786  0.00  0.00    +0.000 HD
ENDBRANCH  17  20
ENDBRANCH  14  15
ENDBRANCH   1  14
TORSDOF 4
ENDMDL
MODEL 5
REMARK VINA RESULT:      -7.2      1.679      2.471
REMARK  Name = 
REMARK  6 active torsions:
REMARK  status: ('A' for Active; 'I' for Inactive)
REMARK    1  A    between atoms: C_1  and  C_2
REMARK    2  A    between atoms: C_7  and  C_8
REMARK    3  A    between atoms: C_11  and  N_12
REMARK    4  A    between atoms: N_12  and  C_13
REMARK    5  A    between atoms: C_13  and  C_14
REMARK    6  A    between atoms: C_16  and  C_17
REMARK                            x       y       z     vdW  Elec       q    Type
REMARK                         _______ _______ _______ _____ _____    ______ ____
ROOT
ATOM      1  N   UNL     1       5.803   6.029  16.306  0.00  0.00    +0.000 NA
ATOM      2  H   UNL     1       5.675   6.602  15.472  0.00  0.00    +0.000 HD
ENDROOT
BRANCH   1  13
ATOM      3  C   UNL     1       1.321   7.703  20.864  0.00  0.00    +0.000 C 
ATOM      4  C   UNL     1       2.164   7.140  19.751  0.00  0.00    +0.000 A 
ATOM      5  C   UNL     1       2.472   7.949  18.635  0.00  0.00    +0.000 A 
ATOM      6  C   UNL     1       3.255   7.467  17.581  0.00  0.00    +0.000 A 
ATOM      7  C   UNL     1       3.733   6.168  17.648  0.00  0.00    +0.000 A 
ATOM      8  C   UNL     1       3.419   5.366  18.736  0.00  0.00    +0.000 A 
ATOM      9  C   UNL     1       2.647   5.815  19.806  0.00  0.00    +0.000 A 
ATOM     10  C   UNL     1       2.338   4.915  20.967  0.00  0.00    +0.000 C 
ATOM     11  O   UNL     1       3.915   4.092  18.647  0.00  0.00    +0.000 OA
ATOM     12  C   UNL     1       4.637   4.050  17.400  0.00  0.00    +0.000 C 
ATOM     13  C   UNL     1       4.523   5.396  16.644  0.00  0.00    +0.000 C 
ENDBRANCH   1  13
BRANCH   1  14
ATOM     14  C   UNL     1       6.854   5.045  16.026  0.00  0.00    +0.000 C 
BRANCH  14  15
ATOM     15  C   UNL     1       6.781   4.615  14.588  0.00  0.00    +0.000 A 
ATOM     16  C   UNL     1       5.904   3.711  14.025  0.00  0.00    +0.000 A 
ATOM     17  C   UNL     1       6.093   3.526  12.615  0.00  0.00    +0.000 A 
ATOM     18  C   UNL     1       7.124   4.336  12.166  0.00  0.00    +0.000 A 
ATOM     19  S   UNL     1       7.833   5.270  13.411  0.00  0.00    +0.000 S 
BRANCH  17  20
ATOM     20  C   UNL     1       5.350   2.644  11.718  0.00  0.00    +0.000 C 
ATOM     21  N   UNL     1       5.932   1.441  11.441  0.00  0.00    +0.000 N 
ATOM     22  O   UNL     1       4.266   2.937  11.221  0.00  0.00    +0.000 OA
ATOM     23  H   UNL     1       6.836   1.162  11.790  0.00  0.00    +0.000 HD
ATOM     24  H   UNL     1       5.448   0.825  10.806  0.00  0.00    +0.000 HD
ENDBRANCH  17  20
ENDBRANCH  14  15
ENDBRANCH   1  14
TORSDOF 4
ENDMDL
MODEL 6
REMARK VINA RESULT:      -7.2      4.510      6.275
REMARK  Name = 
REMARK  6 active torsions:
REMARK  status: ('A' for Active; 'I' for Inactive)
REMARK    1  A    between atoms: C_1  and  C_2
REMARK    2  A    between atoms: C_7  and  C_8
REMARK    3  A    between atoms: C_11  and  N_12
REMARK    4  A    between atoms: N_12  and  C_13
REMARK    5  A    between atoms: C_13  and  C_14
REMARK    6  A    between atoms: C_16  and  C_17
REMARK                            x       y       z     vdW  Elec       q    Type
REMARK                         _______ _______ _______ _____ _____    ______ ____
ROOT
ATOM      1  N   UNL     1       1.995   6.031  19.325  0.00  0.00    +0.000 NA
ATOM      2  H   UNL     1       1.196   5.938  19.951  0.00  0.00    +0.000 HD
ENDROOT
BRANCH   1  13
ATOM      3  C   UNL     1      -0.976  11.383  21.815  0.00  0.00    +0.000 C 
ATOM      4  C   UNL     1      -0.098  10.328  21.194  0.00  0.00    +0.000 A 
ATOM      5  C   UNL     1       0.392   9.273  21.994  0.00  0.00    +0.000 A 
ATOM      6  C   UNL     1       1.208   8.271  21.458  0.00  0.00    +0.000 A 
ATOM      7  C   UNL     1       1.530   8.327  20.111  0.00  0.00    +0.000 A 
ATOM      8  C   UNL     1       1.062   9.371  19.326  0.00  0.00    +0.000 A 
ATOM      9  C   UNL     1       0.244  10.383  19.826  0.00  0.00    +0.000 A 
ATOM     10  C   UNL     1      -0.247  11.490  18.939  0.00  0.00    +0.000 C 
ATOM     11  O   UNL     1       1.498   9.328  18.028  0.00  0.00    +0.000 OA
ATOM     12  C   UNL     1       2.312   8.141  17.939  0.00  0.00    +0.000 C 
ATOM     13  C   UNL     1       2.422   7.436  19.313  0.00  0.00    +0.000 C 
ENDBRANCH   1  13
BRANCH   1  14
ATOM     14  C   UNL     1       3.053   5.133  19.801  0.00  0.00    +0.000 C 
BRANCH  14  15
ATOM     15  C   UNL     1       3.962   4.764  18.663  0.00  0.00    +0.000 A 
ATOM     16  C   UNL     1       5.289   5.106  18.502  0.00  0.00    +0.000 A 
ATOM     17  C   UNL     1       5.877   4.585  17.303  0.00  0.00    +0.000 A 
ATOM     18  C   UNL     1       4.943   3.838  16.603  0.00  0.00    +0.000 A 
ATOM     19  S   UNL     1       3.416   3.786  17.372  0.00  0.00    +0.000 S 
BRANCH  17  20
ATOM     20  C   UNL     1       7.247   4.762  16.825  0.00  0.00    +0.000 C 
ATOM     21  N   UNL     1       7.411   5.628  15.783  0.00  0.00    +0.000 N 
ATOM     22  O   UNL     1       8.215   4.179  17.305  0.00  0.00    +0.000 OA
ATOM     23  H   UNL     1       6.650   6.106  15.326  0.00  0.00    +0.000 HD
ATOM     24  H   UNL     1       8.346   5.749  15.421  0.00  0.00    +0.000 HD
ENDBRANCH  17  20
ENDBRANCH  14  15
ENDBRANCH   1  14
TORSDOF 4
ENDMDL
MODEL 7
REMARK VINA RESULT:      -7.0      4.101      5.496
REMARK  Name = 
REMARK  6 active torsions:
REMARK  status: ('A' for Active; 'I' for Inactive)
REMARK    1  A    between atoms: C_1  and  C_2
REMARK    2  A    between atoms: C_7  and  C_8
REMARK    3  A    between atoms: C_11  and  N_12
REMARK    4  A    between atoms: N_12  and  C_13
REMARK    5  A    between atoms: C_13  and  C_14
REMARK    6  A    between atoms: C_16  and  C_17
REMARK                            x       y       z     vdW  Elec       q    Type
REMARK                         _______ _______ _______ _____ _____    ______ ____
ROOT
ATOM      1  N   UNL     1       2.381   5.687  18.577  0.00  0.00    +0.000 NA
ATOM      2  H   UNL     1       1.501   5.562  19.078  0.00  0.00    +0.000 HD
ENDROOT
BRANCH   1  13
ATOM      3  C   UNL     1      -0.579  10.787  21.559  0.00  0.00    +0.000 C 
ATOM      4  C   UNL     1       0.308   9.783  20.872  0.00  0.00    +0.000 A 
ATOM      5  C   UNL     1       0.662   8.593  21.544  0.00  0.00    +0.000 A 
ATOM      6  C   UNL     1       1.481   7.632  20.941  0.00  0.00    +0.000 A 
ATOM      7  C   UNL     1       1.945   7.866  19.657  0.00  0.00    +0.000 A 
ATOM      8  C   UNL     1       1.611   9.042  18.999  0.00  0.00    +0.000 A 
ATOM      9  C   UNL     1       0.793  10.017  19.568  0.00  0.00    +0.000 A 
ATOM     10  C   UNL     1       0.452  11.272  18.817  0.00  0.00    +0.000 C 
ATOM     11  O   UNL     1       2.178   9.163  17.759  0.00  0.00    +0.000 OA
ATOM     12  C   UNL     1       2.940   7.954  17.567  0.00  0.00    +0.000 C 
ATOM     13  C   UNL     1       2.872   7.049  18.821  0.00  0.00    +0.000 C 
ENDBRANCH   1  13
BRANCH   1  14
ATOM     14  C   UNL     1       3.321   4.664  19.048  0.00  0.00    +0.000 C 
BRANCH  14  15
ATOM     15  C   UNL     1       4.595   4.735  18.253  0.00  0.00    +0.000 A 
ATOM     16  C   UNL     1       4.756   4.507  16.902  0.00  0.00    +0.000 A 
ATOM     17  C   UNL     1       6.107   4.665  16.448  0.00  0.00    +0.000 A 
ATOM     18  C   UNL     1       6.922   5.032  17.507  0.00  0.00    +0.000 A 
ATOM     19  S   UNL     1       6.077   5.167  18.987  0.00  0.00    +0.000 S 
BRANCH  17  20
ATOM     20  C   UNL     1       6.625   4.492  15.092  0.00  0.00    +0.000 C 
ATOM     21  N   UNL     1       7.611   5.356  14.712  0.00  0.00    +0.000 N 
ATOM     22  O   UNL     1       6.219   3.634  14.314  0.00  0.00    +0.000 OA
ATOM     23  H   UNL     1       7.958   6.103  15.294  0.00  0.00    +0.000 HD
ATOM     24  H   UNL     1       7.968   5.270  13.772  0.00  0.00    +0.000 HD
ENDBRANCH  17  20
ENDBRANCH  14  15
ENDBRANCH   1  14
TORSDOF 4
ENDMDL
MODEL 8
REMARK VINA RESULT:      -7.0      2.868      4.293
REMARK  Name = 
REMARK  6 active torsions:
REMARK  status: ('A' for Active; 'I' for Inactive)
REMARK    1  A    between atoms: C_1  and  C_2
REMARK    2  A    between atoms: C_7  and  C_8
REMARK    3  A    between atoms: C_11  and  N_12
REMARK    4  A    between atoms: N_12  and  C_13
REMARK    5  A    between atoms: C_13  and  C_14
REMARK    6  A    between atoms: C_16  and  C_17
REMARK                            x       y       z     vdW  Elec       q    Type
REMARK                         _______ _______ _______ _____ _____    ______ ____
ROOT
ATOM      1  N   UNL     1       3.613   3.253  18.909  0.00  0.00    +0.000 NA
ATOM      2  H   UNL     1       3.627   2.302  19.276  0.00  0.00    +0.000 HD
ENDROOT
BRANCH   1  13
ATOM      3  C   UNL     1       1.820   9.612  18.761  0.00  0.00    +0.000 C 
ATOM      4  C   UNL     1       1.975   8.117  18.858  0.00  0.00    +0.000 A 
ATOM      5  C   UNL     1       2.285   7.374  17.698  0.00  0.00    +0.000 A 
ATOM      6  C   UNL     1       2.441   5.984  17.745  0.00  0.00    +0.000 A 
ATOM      7  C   UNL     1       2.288   5.338  18.962  0.00  0.00    +0.000 A 
ATOM      8  C   UNL     1       1.969   6.065  20.100  0.00  0.00    +0.000 A 
ATOM      9  C   UNL     1       1.811   7.450  20.091  0.00  0.00    +0.000 A 
ATOM     10  C   UNL     1       1.473   8.197  21.348  0.00  0.00    +0.000 C 
ATOM     11  O   UNL     1       1.799   5.295  21.219  0.00  0.00    +0.000 OA
ATOM     12  C   UNL     1       2.046   3.940  20.792  0.00  0.00    +0.000 C 
ATOM     13  C   UNL     1       2.336   3.880  19.273  0.00  0.00    +0.000 C 
ENDBRANCH   1  13
BRANCH   1  14
ATOM     14  C   UNL     1       4.764   3.972  19.465  0.00  0.00    +0.000 C 
BRANCH  14  15
ATOM     15  C   UNL     1       5.677   4.414  18.356  0.00  0.00    +0.000 A 
ATOM     16  C   UNL     1       5.577   4.108  17.014  0.00  0.00    +0.000 A 
ATOM     17  C   UNL     1       6.609   4.697  16.212  0.00  0.00    +0.000 A 
ATOM     18  C   UNL     1       7.453   5.456  17.007  0.00  0.00    +0.000 A 
ATOM     19  S   UNL     1       7.010   5.439  18.659  0.00  0.00    +0.000 S 
BRANCH  17  20
ATOM     20  C   UNL     1       6.805   4.572  14.769  0.00  0.00    +0.000 C 
ATOM     21  N   UNL     1       7.650   5.480  14.198  0.00  0.00    +0.000 N 
ATOM     22  O   UNL     1       6.257   3.717  14.079  0.00  0.00    +0.000 OA
ATOM     23  H   UNL     1       8.099   6.225  14.706  0.00  0.00    +0.000 HD
ATOM     24  H   UNL     1       7.784   5.427  13.199  0.00  0.00    +0.000 HD
ENDBRANCH  17  20
ENDBRANCH  14  15
ENDBRANCH   1  14
TORSDOF 4
ENDMDL
MODEL 9
REMARK VINA RESULT:      -6.9      3.010      3.893
REMARK  Name = 
REMARK  6 active torsions:
REMARK  status: ('A' for Active; 'I' for Inactive)
REMARK    1  A    between atoms: C_1  and  C_2
REMARK    2  A    between atoms: C_7  and  C_8
REMARK    3  A    between atoms: C_11  and  N_12
REMARK    4  A    between atoms: N_12  and  C_13
REMARK    5  A    between atoms: C_13  and  C_14
REMARK    6  A    between atoms: C_16  and  C_17
REMARK                            x       y       z     vdW  Elec       q    Type
REMARK                         _______ _______ _______ _____ _____    ______ ____
ROOT
ATOM      1  N   UNL     1       4.849   5.396  18.725  0.00  0.00    +0.000 NA
ATOM      2  H   UNL     1       5.155   6.143  18.102  0.00  0.00    +0.000 HD
ENDROOT
BRANCH   1  13
ATOM      3  C   UNL     1       0.807  10.609  19.108  0.00  0.00    +0.000 C 
ATOM      4  C   UNL     1       1.505   9.278  19.008  0.00  0.00    +0.000 A 
ATOM      5  C   UNL     1       2.283   8.985  17.867  0.00  0.00    +0.000 A 
ATOM      6  C   UNL     1       2.951   7.763  17.736  0.00  0.00    +0.000 A 
ATOM      7  C   UNL     1       2.839   6.831  18.756  0.00  0.00    +0.000 A 
ATOM      8  C   UNL     1       2.062   7.111  19.872  0.00  0.00    +0.000 A 
ATOM      9  C   UNL     1       1.388   8.320  20.038  0.00  0.00    +0.000 A 
ATOM     10  C   UNL     1       0.565   8.584  21.265  0.00  0.00    +0.000 C 
ATOM     11  O   UNL     1       2.001   6.084  20.776  0.00  0.00    +0.000 OA
ATOM     12  C   UNL     1       2.823   5.038  20.221  0.00  0.00    +0.000 C 
ATOM     13  C   UNL     1       3.386   5.446  18.839  0.00  0.00    +0.000 C 
ENDBRANCH   1  13
BRANCH   1  14
ATOM     14  C   UNL     1       5.320   4.121  18.172  0.00  0.00    +0.000 C 
BRANCH  14  15
ATOM     15  C   UNL     1       5.796   4.320  16.760  0.00  0.00    +0.000 A 
ATOM     16  C   UNL     1       5.354   3.670  15.626  0.00  0.00    +0.000 A 
ATOM     17  C   UNL     1       6.010   4.098  14.425  0.00  0.00    +0.000 A 
ATOM     18  C   UNL     1       6.931   5.092  14.717  0.00  0.00    +0.000 A 
ATOM     19  S   UNL     1       6.998   5.475  16.382  0.00  0.00    +0.000 S 
BRANCH  17  20
ATOM     20  C   UNL     1       5.792   3.617  13.062  0.00  0.00    +0.000 C 
ATOM     21  N   UNL     1       6.883   3.098  12.428  0.00  0.00    +0.000 N 
ATOM     22  O   UNL     1       4.706   3.664  12.490  0.00  0.00    +0.000 OA
ATOM     23  H   UNL     1       7.806   3.067  12.833  0.00  0.00    +0.000 HD
ATOM     24  H   UNL     1       6.761   2.779  11.478  0.00  0.00    +0.000 HD
ENDBRANCH  17  20
ENDBRANCH  14  15
ENDBRANCH   1  14
TORSDOF 4
ENDMDL
