MODEL 1
REMARK VINA RESULT:      -7.7      0.000      0.000
REMARK  Name = 
REMARK  13 active torsions:
REMARK  status: ('A' for Active; 'I' for Inactive)
REMARK    1  A    between atoms: C_1  and  O_2
REMARK    2  A    between atoms: O_2  and  C_3
REMARK    3  A    between atoms: C_8  and  C_9
REMARK    4  A    between atoms: C_9  and  C_10
REMARK    5  A    between atoms: C_10  and  N_11
REMARK    6  A    between atoms: C_14  and  C_15
REMARK    7  A    between atoms: C_18  and  O_19
REMARK    8  A    between atoms: O_19  and  C_20
REMARK    9  A    between atoms: C_21  and  O_22
REMARK   10  A    between atoms: O_22  and  C_23
REMARK   11  A    between atoms: C_25  and  C_26
REMARK   12  A    between atoms: C_26  and  C_27
REMARK   13  A    between atoms: C_26  and  C_28
REMARK                            x       y       z     vdW  Elec       q    Type
REMARK                         _______ _______ _______ _____ _____    ______ ____
ROOT
ATOM      1  N   UNL     1       1.190   9.734  19.011  0.00  0.00    +0.000 N 
ATOM      2  C   UNL     1       1.927   9.648  17.855  0.00  0.00    +0.000 A 
ATOM      3  N   UNL     1       2.496   8.484  17.724  0.00  0.00    +0.000 NA
ATOM      4  C   UNL     1       2.162   7.792  18.863  0.00  0.00    +0.000 A 
ATOM      5  C   UNL     1       1.428   8.588  19.758  0.00  0.00    +0.000 A 
ENDROOT
BRANCH   4   6
ATOM      6  C   UNL     1       2.630   6.427  19.044  0.00  0.00    +0.000 A 
ATOM      7  C   UNL     1       3.491   5.810  18.143  0.00  0.00    +0.000 A 
ATOM      8  C   UNL     1       3.903   4.500  18.346  0.00  0.00    +0.000 A 
ATOM      9  C   UNL     1       3.538   3.800  19.494  0.00  0.00    +0.000 A 
ATOM     10  C   UNL     1       2.699   4.410  20.445  0.00  0.00    +0.000 A 
ATOM     11  C   UNL     1       2.243   5.722  20.197  0.00  0.00    +0.000 A 
BRANCH   9  12
ATOM     12  O   UNL     1       4.104   2.552  19.509  0.00  0.00    +0.000 OA
ATOM     13  C   UNL     1       3.610   1.575  18.605  0.00  0.00    +0.000 C 
ENDBRANCH   9  12
BRANCH  10  14
ATOM     14  O   UNL     1       2.364   3.718  21.566  0.00  0.00    +0.000 OA
ATOM     15  C   UNL     1       1.326   2.750  21.485  0.00  0.00    +0.000 C 
ENDBRANCH  10  14
ENDBRANCH   4   6
BRANCH   5  16
ATOM     16  C   UNL     1       1.032   8.265  21.193  0.00  0.00    +0.000 C 
ATOM     17  C   UNL     1       1.674   9.260  22.171  0.00  0.00    +0.000 C 
ATOM     18  C   UNL     1      -0.433   8.125  21.568  0.00  0.00    +0.000 C 
ENDBRANCH   5  16
BRANCH   1  19
ATOM     19  C   UNL     1       0.436  10.932  19.320  0.00  0.00    +0.000 C 
BRANCH  19  20
ATOM     20  C   UNL     1      -1.061  10.724  19.607  0.00  0.00    +0.000 C 
BRANCH  20  26
ATOM     21  C   UNL     1      -3.192  11.606  18.408  0.00  0.00    +0.000 A 
ATOM     22  C   UNL     1      -4.080  11.441  17.332  0.00  0.00    +0.000 A 
ATOM     23  C   UNL     1      -3.769  10.616  16.253  0.00  0.00    +0.000 A 
ATOM     24  C   UNL     1      -2.538   9.981  16.210  0.00  0.00    +0.000 A 
ATOM     25  C   UNL     1      -1.662  10.115  17.285  0.00  0.00    +0.000 A 
ATOM     26  C   UNL     1      -2.001  10.863  18.434  0.00  0.00    +0.000 A 
BRANCH  21  28
ATOM     27  C   UNL     1      -5.104  12.486  19.568  0.00  0.00    +0.000 C 
ATOM     28  O   UNL     1      -3.695  12.409  19.392  0.00  0.00    +0.000 OA
ENDBRANCH  21  28
ENDBRANCH  20  26
ENDBRANCH  19  20
ENDBRANCH   1  19
TORSDOF 8
ENDMDL
MODEL 2
REMARK VINA RESULT:      -7.6      5.561      8.027
REMARK  Name = 
REMARK  13 active torsions:
REMARK  status: ('A' for Active; 'I' for Inactive)
REMARK    1  A    between atoms: C_1  and  O_2
REMARK    2  A    between atoms: O_2  and  C_3
REMARK    3  A    between atoms: C_8  and  C_9
REMARK    4  A    between atoms: C_9  and  C_10
REMARK    5  A    between atoms: C_10  and  N_11
REMARK    6  A    between atoms: C_14  and  C_15
REMARK    7  A    between atoms: C_18  and  O_19
REMARK    8  A    between atoms: O_19  and  C_20
REMARK    9  A    between atoms: C_21  and  O_22
REMARK   10  A    between atoms: O_22  and  C_23
REMARK   11  A    between atoms: C_25  and  C_26
REMARK   12  A    between atoms: C_26  and  C_27
REMARK   13  A    between atoms: C_26  and  C_28
REMARK                            x       y       z     vdW  Elec       q    Type
REMARK                         _______ _______ _______ _____ _____    ______ ____
ROOT
ATOM      1  N   UNL     1       7.538   6.997  18.064  0.00  0.00    +0.000 N 
ATOM      2  C   UNL     1       8.066   6.195  19.046  0.00  0.00    +0.000 A 
ATOM      3  N   UNL     1       7.283   5.194  19.333  0.00  0.00    +0.000 NA
ATOM      4  C   UNL     1       6.171   5.372  18.545  0.00  0.00    +0.000 A 
ATOM      5  C   UNL     1       6.244   6.565  17.807  0.00  0.00    +0.000 A 
ENDROOT
BRANCH   4   6
ATOM      6  C   UNL     1       5.080   4.413  18.604  0.00  0.00    +0.000 A 
ATOM      7  C   UNL     1       4.538   3.830  17.464  0.00  0.00    +0.000 A 
ATOM      8  C   UNL     1       3.487   2.929  17.564  0.00  0.00    +0.000 A 
ATOM      9  C   UNL     1       3.004   2.521  18.806  0.00  0.00    +0.000 A 
ATOM     10  C   UNL     1       3.557   3.063  19.981  0.00  0.00    +0.000 A 
ATOM     11  C   UNL     1       4.588   4.019  19.861  0.00  0.00    +0.000 A 
BRANCH   9  12
ATOM     12  O   UNL     1       2.009   1.590  18.663  0.00  0.00    +0.000 OA
ATOM     13  C   UNL     1       0.661   2.035  18.664  0.00  0.00    +0.000 C 
ENDBRANCH   9  12
BRANCH  10  14
ATOM     14  O   UNL     1       3.084   2.643  21.184  0.00  0.00    +0.000 OA
ATOM     15  C   UNL     1       1.995   3.344  21.770  0.00  0.00    +0.000 C 
ENDBRANCH  10  14
ENDBRANCH   4   6
BRANCH   5  16
ATOM     16  C   UNL     1       5.152   7.218  16.968  0.00  0.00    +0.000 C 
ATOM     17  C   UNL     1       5.086   6.581  15.571  0.00  0.00    +0.000 C 
ATOM     18  C   UNL     1       3.733   7.313  17.501  0.00  0.00    +0.000 C 
ENDBRANCH   5  16
BRANCH   1  19
ATOM     19  C   UNL     1       8.278   8.138  17.565  0.00  0.00    +0.000 C 
BRANCH  19  20
ATOM     20  C   UNL     1       7.673   9.517  17.880  0.00  0.00    +0.000 C 
BRANCH  20  26
ATOM     21  C   UNL     1       8.606  11.943  17.826  0.00  0.00    +0.000 A 
ATOM     22  C   UNL     1       9.710  12.775  18.074  0.00  0.00    +0.000 A 
ATOM     23  C   UNL     1      10.805  12.331  18.814  0.00  0.00    +0.000 A 
ATOM     24  C   UNL     1      10.788  11.058  19.361  0.00  0.00    +0.000 A 
ATOM     25  C   UNL     1       9.712  10.213  19.097  0.00  0.00    +0.000 A 
ATOM     26  C   UNL     1       8.641  10.609  18.265  0.00  0.00    +0.000 A 
BRANCH  21  28
ATOM     27  C   UNL     1       7.108  13.782  17.447  0.00  0.00    +0.000 C 
ATOM     28  O   UNL     1       7.660  12.537  17.041  0.00  0.00    +0.000 OA
ENDBRANCH  21  28
ENDBRANCH  20  26
ENDBRANCH  19  20
ENDBRANCH   1  19
TORSDOF 8
ENDMDL
MODEL 3
REMARK VINA RESULT:      -7.4      5.476      8.388
REMARK  Name = 
REMARK  13 active torsions:
REMARK  status: ('A' for Active; 'I' for Inactive)
REMARK    1  A    between atoms: C_1  and  O_2
REMARK    2  A    between atoms: O_2  and  C_3
REMARK    3  A    between atoms: C_8  and  C_9
REMARK    4  A    between atoms: C_9  and  C_10
REMARK    5  A    between atoms: C_10  and  N_11
REMARK    6  A    between atoms: C_14  and  C_15
REMARK    7  A    between atoms: C_18  and  O_19
REMARK    8  A    between atoms: O_19  and  C_20
REMARK    9  A    between atoms: C_21  and  O_22
REMARK   10  A    between atoms: O_22  and  C_23
REMARK   11  A    between atoms: C_25  and  C_26
REMARK   12  A    between atoms: C_26  and  C_27
REMARK   13  A    between atoms: C_26  and  C_28
REMARK                            x       y       z     vdW  Elec       q    Type
REMARK                         _______ _______ _______ _____ _____    ______ ____
ROOT
ATOM      1  N   UNL     1       7.563   7.113  18.200  0.00  0.00    +0.000 N 
ATOM      2  C   UNL     1       8.007   6.371  19.267  0.00  0.00    +0.000 A 
ATOM      3  N   UNL     1       7.185   5.406  19.567  0.00  0.00    +0.000 NA
ATOM      4  C   UNL     1       6.133   5.547  18.695  0.00  0.00    +0.000 A 
ATOM      5  C   UNL     1       6.280   6.686  17.885  0.00  0.00    +0.000 A 
ENDROOT
BRANCH   4   6
ATOM      6  C   UNL     1       5.020   4.613  18.745  0.00  0.00    +0.000 A 
ATOM      7  C   UNL     1       4.892   3.560  17.846  0.00  0.00    +0.000 A 
ATOM      8  C   UNL     1       3.805   2.698  17.920  0.00  0.00    +0.000 A 
ATOM      9  C   UNL     1       2.866   2.811  18.942  0.00  0.00    +0.000 A 
ATOM     10  C   UNL     1       2.988   3.842  19.891  0.00  0.00    +0.000 A 
ATOM     11  C   UNL     1       4.067   4.744  19.770  0.00  0.00    +0.000 A 
BRANCH   9  12
ATOM     12  O   UNL     1       1.919   1.825  18.849  0.00  0.00    +0.000 OA
ATOM     13  C   UNL     1       0.564   2.204  18.654  0.00  0.00    +0.000 C 
ENDBRANCH   9  12
BRANCH  10  14
ATOM     14  O   UNL     1       2.070   3.930  20.890  0.00  0.00    +0.000 OA
ATOM     15  C   UNL     1       2.141   3.001  21.964  0.00  0.00    +0.000 C 
ENDBRANCH  10  14
ENDBRANCH   4   6
BRANCH   5  16
ATOM     16  C   UNL     1       5.260   7.296  16.932  0.00  0.00    +0.000 C 
ATOM     17  C   UNL     1       5.208   6.508  15.614  0.00  0.00    +0.000 C 
ATOM     18  C   UNL     1       3.831   7.531  17.389  0.00  0.00    +0.000 C 
ENDBRANCH   5  16
BRANCH   1  19
ATOM     19  C   UNL     1       8.359   8.203  17.675  0.00  0.00    +0.000 C 
BRANCH  19  20
ATOM     20  C   UNL     1       8.073   9.590  18.280  0.00  0.00    +0.000 C 
BRANCH  20  26
ATOM     21  C   UNL     1       9.585  10.854  19.974  0.00  0.00    +0.000 A 
ATOM     22  C   UNL     1      10.595  11.815  20.147  0.00  0.00    +0.000 A 
ATOM     23  C   UNL     1      11.345  12.285  19.070  0.00  0.00    +0.000 A 
ATOM     24  C   UNL     1      11.129  11.760  17.807  0.00  0.00    +0.000 A 
ATOM     25  C   UNL     1      10.111  10.827  17.618  0.00  0.00    +0.000 A 
ATOM     26  C   UNL     1       9.272  10.415  18.678  0.00  0.00    +0.000 A 
BRANCH  21  28
ATOM     27  C   UNL     1       8.543  11.622  21.998  0.00  0.00    +0.000 C 
ATOM     28  O   UNL     1       8.928  10.561  21.135  0.00  0.00    +0.000 OA
ENDBRANCH  21  28
ENDBRANCH  20  26
ENDBRANCH  19  20
ENDBRANCH   1  19
TORSDOF 8
ENDMDL
MODEL 4
REMARK VINA RESULT:      -7.4      5.401      8.341
REMARK  Name = 
REMARK  13 active torsions:
REMARK  status: ('A' for Active; 'I' for Inactive)
REMARK    1  A    between atoms: C_1  and  O_2
REMARK    2  A    between atoms: O_2  and  C_3
REMARK    3  A    between atoms: C_8  and  C_9
REMARK    4  A    between atoms: C_9  and  C_10
REMARK    5  A    between atoms: C_10  and  N_11
REMARK    6  A    between atoms: C_14  and  C_15
REMARK    7  A    between atoms: C_18  and  O_19
REMARK    8  A    between atoms: O_19  and  C_20
REMARK    9  A    between atoms: C_21  and  O_22
REMARK   10  A    between atoms: O_22  and  C_23
REMARK   11  A    between atoms: C_25  and  C_26
REMARK   12  A    between atoms: C_26  and  C_27
REMARK   13  A    between atoms: C_26  and  C_28
REMARK                            x       y       z     vdW  Elec       q    Type
REMARK                         _______ _______ _______ _____ _____    ______ ____
ROOT
ATOM      1  N   UNL     1       7.463   7.140  18.121  0.00  0.00    +0.000 N 
ATOM      2  C   UNL     1       7.964   6.347  19.124  0.00  0.00    +0.000 A 
ATOM      3  N   UNL     1       7.165   5.358  19.410  0.00  0.00    +0.000 NA
ATOM      4  C   UNL     1       6.071   5.535  18.597  0.00  0.00    +0.000 A 
ATOM      5  C   UNL     1       6.170   6.717  17.845  0.00  0.00    +0.000 A 
ENDROOT
BRANCH   4   6
ATOM      6  C   UNL     1       4.969   4.587  18.649  0.00  0.00    +0.000 A 
ATOM      7  C   UNL     1       4.818   3.571  17.711  0.00  0.00    +0.000 A 
ATOM      8  C   UNL     1       3.743   2.695  17.790  0.00  0.00    +0.000 A 
ATOM      9  C   UNL     1       2.841   2.755  18.849  0.00  0.00    +0.000 A 
ATOM     10  C   UNL     1       2.989   3.748  19.835  0.00  0.00    +0.000 A 
ATOM     11  C   UNL     1       4.054   4.666  19.713  0.00  0.00    +0.000 A 
BRANCH   9  12
ATOM     12  O   UNL     1       1.900   1.764  18.749  0.00  0.00    +0.000 OA
ATOM     13  C   UNL     1       0.531   2.133  18.696  0.00  0.00    +0.000 C 
ENDBRANCH   9  12
BRANCH  10  14
ATOM     14  O   UNL     1       2.108   3.783  20.870  0.00  0.00    +0.000 OA
ATOM     15  C   UNL     1       2.246   2.831  21.917  0.00  0.00    +0.000 C 
ENDBRANCH  10  14
ENDBRANCH   4   6
BRANCH   5  16
ATOM     16  C   UNL     1       5.101   7.367  16.975  0.00  0.00    +0.000 C 
ATOM     17  C   UNL     1       5.008   6.666  15.612  0.00  0.00    +0.000 C 
ATOM     18  C   UNL     1       3.688   7.542  17.504  0.00  0.00    +0.000 C 
ENDBRANCH   5  16
BRANCH   1  19
ATOM     19  C   UNL     1       8.223   8.266  17.620  0.00  0.00    +0.000 C 
BRANCH  19  20
ATOM     20  C   UNL     1       8.823   9.197  18.689  0.00  0.00    +0.000 C 
BRANCH  20  26
ATOM     21  C   UNL     1      10.180  11.412  18.616  0.00  0.00    +0.000 A 
ATOM     22  C   UNL     1      10.146  12.795  18.374  0.00  0.00    +0.000 A 
ATOM     23  C   UNL     1       9.059  13.396  17.740  0.00  0.00    +0.000 A 
ATOM     24  C   UNL     1       8.009  12.611  17.292  0.00  0.00    +0.000 A 
ATOM     25  C   UNL     1       8.019  11.242  17.552  0.00  0.00    +0.000 A 
ATOM     26  C   UNL     1       9.063  10.630  18.283  0.00  0.00    +0.000 A 
BRANCH  21  28
ATOM     27  C   UNL     1      12.193  12.011  19.783  0.00  0.00    +0.000 C 
ATOM     28  O   UNL     1      11.300  11.020  19.292  0.00  0.00    +0.000 OA
ENDBRANCH  21  28
ENDBRANCH  20  26
ENDBRANCH  19  20
ENDBRANCH   1  19
TORSDOF 8
ENDMDL
MODEL 5
REMARK VINA RESULT:      -7.3      3.250      8.932
REMARK  Name = 
REMARK  13 active torsions:
REMARK  status: ('A' for Active; 'I' for Inactive)
REMARK    1  A    between atoms: C_1  and  O_2
REMARK    2  A    between atoms: O_2  and  C_3
REMARK    3  A    between atoms: C_8  and  C_9
REMARK    4  A    between atoms: C_9  and  C_10
REMARK    5  A    between atoms: C_10  and  N_11
REMARK    6  A    between atoms: C_14  and  C_15
REMARK    7  A    between atoms: C_18  and  O_19
REMARK    8  A    between atoms: O_19  and  C_20
REMARK    9  A    between atoms: C_21  and  O_22
REMARK   10  A    between atoms: O_22  and  C_23
REMARK   11  A    between atoms: C_25  and  C_26
REMARK   12  A    between atoms: C_26  and  C_27
REMARK   13  A    between atoms: C_26  and  C_28
REMARK                            x       y       z     vdW  Elec       q    Type
REMARK                         _______ _______ _______ _____ _____    ______ ____
ROOT
ATOM      1  N   UNL     1       0.819   9.336  20.999  0.00  0.00    +0.000 N 
ATOM      2  C   UNL     1       0.999   9.172  22.351  0.00  0.00    +0.000 A 
ATOM      3  N   UNL     1       0.358  10.071  23.042  0.00  0.00    +0.000 NA
ATOM      4  C   UNL     1      -0.227  10.891  22.107  0.00  0.00    +0.000 A 
ATOM      5  C   UNL     1       0.133  10.527  20.799  0.00  0.00    +0.000 A 
ENDROOT
BRANCH   4   6
ATOM      6  C   UNL     1      -1.042  12.016  22.539  0.00  0.00    +0.000 A 
ATOM      7  C   UNL     1      -0.549  13.314  22.591  0.00  0.00    +0.000 A 
ATOM      8  C   UNL     1      -1.357  14.358  23.023  0.00  0.00    +0.000 A 
ATOM      9  C   UNL     1      -2.698  14.149  23.332  0.00  0.00    +0.000 A 
ATOM     10  C   UNL     1      -3.239  12.853  23.252  0.00  0.00    +0.000 A 
ATOM     11  C   UNL     1      -2.391  11.793  22.865  0.00  0.00    +0.000 A 
BRANCH   9  12
ATOM     12  O   UNL     1      -3.311  15.325  23.678  0.00  0.00    +0.000 OA
ATOM     13  C   UNL     1      -3.335  15.698  25.048  0.00  0.00    +0.000 C 
ENDBRANCH   9  12
BRANCH  10  14
ATOM     14  O   UNL     1      -4.554  12.669  23.544  0.00  0.00    +0.000 OA
ATOM     15  C   UNL     1      -4.910  12.262  24.859  0.00  0.00    +0.000 C 
ENDBRANCH  10  14
ENDBRANCH   4   6
BRANCH   5  16
ATOM     16  C   UNL     1      -0.144  11.282  19.505  0.00  0.00    +0.000 C 
ATOM     17  C   UNL     1      -1.656  11.388  19.251  0.00  0.00    +0.000 C 
ATOM     18  C   UNL     1       0.462  12.655  19.276  0.00  0.00    +0.000 C 
ENDBRANCH   5  16
BRANCH   1  19
ATOM     19  C   UNL     1       1.409   8.408  20.056  0.00  0.00    +0.000 C 
BRANCH  19  20
ATOM     20  C   UNL     1       2.102   7.179  20.673  0.00  0.00    +0.000 C 
BRANCH  20  26
ATOM     21  C   UNL     1       2.452   5.674  18.583  0.00  0.00    +0.000 A 
ATOM     22  C   UNL     1       2.075   4.498  17.914  0.00  0.00    +0.000 A 
ATOM     23  C   UNL     1       1.335   3.504  18.552  0.00  0.00    +0.000 A 
ATOM     24  C   UNL     1       1.003   3.651  19.890  0.00  0.00    +0.000 A 
ATOM     25  C   UNL     1       1.347   4.825  20.555  0.00  0.00    +0.000 A 
ATOM     26  C   UNL     1       2.007   5.888  19.897  0.00  0.00    +0.000 A 
BRANCH  21  28
ATOM     27  C   UNL     1       4.455   6.240  17.382  0.00  0.00    +0.000 C 
ATOM     28  O   UNL     1       3.125   6.549  17.778  0.00  0.00    +0.000 OA
ENDBRANCH  21  28
ENDBRANCH  20  26
ENDBRANCH  19  20
ENDBRANCH   1  19
TORSDOF 8
ENDMDL
MODEL 6
REMARK VINA RESULT:      -7.3      1.556      8.410
REMARK  Name = 
REMARK  13 active torsions:
REMARK  status: ('A' for Active; 'I' for Inactive)
REMARK    1  A    between atoms: C_1  and  O_2
REMARK    2  A    between atoms: O_2  and  C_3
REMARK    3  A    between atoms: C_8  and  C_9
REMARK    4  A    between atoms: C_9  and  C_10
REMARK    5  A    between atoms: C_10  and  N_11
REMARK    6  A    between atoms: C_14  and  C_15
REMARK    7  A    between atoms: C_18  and  O_19
REMARK    8  A    between atoms: O_19  and  C_20
REMARK    9  A    between atoms: C_21  and  O_22
REMARK   10  A    between atoms: O_22  and  C_23
REMARK   11  A    between atoms: C_25  and  C_26
REMARK   12  A    between atoms: C_26  and  C_27
REMARK   13  A    between atoms: C_26  and  C_28
REMARK                            x       y       z     vdW  Elec       q    Type
REMARK                         _______ _______ _______ _____ _____    ______ ____
ROOT
ATOM      1  N   UNL     1       2.124   7.941  19.142  0.00  0.00    +0.000 N 
ATOM      2  C   UNL     1       2.036   8.473  17.878  0.00  0.00    +0.000 A 
ATOM      3  N   UNL     1       1.344   9.577  17.859  0.00  0.00    +0.000 NA
ATOM      4  C   UNL     1       0.916   9.753  19.153  0.00  0.00    +0.000 A 
ATOM      5  C   UNL     1       1.294   8.679  19.976  0.00  0.00    +0.000 A 
ENDROOT
BRANCH   4   6
ATOM      6  C   UNL     1       0.111  10.914  19.498  0.00  0.00    +0.000 A 
ATOM      7  C   UNL     1       0.663  12.062  20.056  0.00  0.00    +0.000 A 
ATOM      8  C   UNL     1      -0.144  13.144  20.383  0.00  0.00    +0.000 A 
ATOM      9  C   UNL     1      -1.505  13.143  20.086  0.00  0.00    +0.000 A 
ATOM     10  C   UNL     1      -2.087  12.011  19.486  0.00  0.00    +0.000 A 
ATOM     11  C   UNL     1      -1.265  10.898  19.210  0.00  0.00    +0.000 A 
BRANCH   9  12
ATOM     12  O   UNL     1      -2.086  14.331  20.445  0.00  0.00    +0.000 OA
ATOM     13  C   UNL     1      -2.668  14.436  21.737  0.00  0.00    +0.000 C 
ENDBRANCH   9  12
BRANCH  10  14
ATOM     14  O   UNL     1      -3.414  12.032  19.190  0.00  0.00    +0.000 OA
ATOM     15  C   UNL     1      -3.838  11.542  17.925  0.00  0.00    +0.000 C 
ENDBRANCH  10  14
ENDBRANCH   4   6
BRANCH   5  16
ATOM     16  C   UNL     1       0.863   8.399  21.410  0.00  0.00    +0.000 C 
ATOM     17  C   UNL     1       1.599   9.325  22.390  0.00  0.00    +0.000 C 
ATOM     18  C   UNL     1      -0.610   8.408  21.781  0.00  0.00    +0.000 C 
ENDBRANCH   5  16
BRANCH   1  19
ATOM     19  C   UNL     1       2.894   6.740  19.386  0.00  0.00    +0.000 C 
BRANCH  19  20
ATOM     20  C   UNL     1       2.206   5.668  20.250  0.00  0.00    +0.000 C 
BRANCH  20  26
ATOM     21  C   UNL     1       3.404   3.523  19.403  0.00  0.00    +0.000 A 
ATOM     22  C   UNL     1       3.274   2.310  18.706  0.00  0.00    +0.000 A 
ATOM     23  C   UNL     1       2.022   1.775  18.405  0.00  0.00    +0.000 A 
ATOM     24  C   UNL     1       0.879   2.423  18.842  0.00  0.00    +0.000 A 
ATOM     25  C   UNL     1       0.995   3.641  19.509  0.00  0.00    +0.000 A 
ATOM     26  C   UNL     1       2.250   4.251  19.733  0.00  0.00    +0.000 A 
BRANCH  21  28
ATOM     27  C   UNL     1       5.451   4.295  18.409  0.00  0.00    +0.000 C 
ATOM     28  O   UNL     1       4.705   3.909  19.556  0.00  0.00    +0.000 OA
ENDBRANCH  21  28
ENDBRANCH  20  26
ENDBRANCH  19  20
ENDBRANCH   1  19
TORSDOF 8
ENDMDL
MODEL 7
REMARK VINA RESULT:      -7.3      1.293      2.663
REMARK  Name = 
REMARK  13 active torsions:
REMARK  status: ('A' for Active; 'I' for Inactive)
REMARK    1  A    between atoms: C_1  and  O_2
REMARK    2  A    between atoms: O_2  and  C_3
REMARK    3  A    between atoms: C_8  and  C_9
REMARK    4  A    between atoms: C_9  and  C_10
REMARK    5  A    between atoms: C_10  and  N_11
REMARK    6  A    between atoms: C_14  and  C_15
REMARK    7  A    between atoms: C_18  and  O_19
REMARK    8  A    between atoms: O_19  and  C_20
REMARK    9  A    between atoms: C_21  and  O_22
REMARK   10  A    between atoms: O_22  and  C_23
REMARK   11  A    between atoms: C_25  and  C_26
REMARK   12  A    between atoms: C_26  and  C_27
REMARK   13  A    between atoms: C_26  and  C_28
REMARK                            x       y       z     vdW  Elec       q    Type
REMARK                         _______ _______ _______ _____ _____    ______ ____
ROOT
ATOM      1  N   UNL     1       0.879  10.008  19.066  0.00  0.00    +0.000 N 
ATOM      2  C   UNL     1       1.619  10.065  17.910  0.00  0.00    +0.000 A 
ATOM      3  N   UNL     1       2.307   8.976  17.716  0.00  0.00    +0.000 NA
ATOM      4  C   UNL     1       2.050   8.190  18.813  0.00  0.00    +0.000 A 
ATOM      5  C   UNL     1       1.238   8.853  19.748  0.00  0.00    +0.000 A 
ENDROOT
BRANCH   4   6
ATOM      6  C   UNL     1       2.660   6.874  18.920  0.00  0.00    +0.000 A 
ATOM      7  C   UNL     1       2.333   5.984  19.937  0.00  0.00    +0.000 A 
ATOM      8  C   UNL     1       2.950   4.741  20.011  0.00  0.00    +0.000 A 
ATOM      9  C   UNL     1       3.843   4.322  19.028  0.00  0.00    +0.000 A 
ATOM     10  C   UNL     1       4.166   5.184  17.965  0.00  0.00    +0.000 A 
ATOM     11  C   UNL     1       3.574   6.465  17.933  0.00  0.00    +0.000 A 
BRANCH   9  12
ATOM     12  O   UNL     1       4.281   3.047  19.276  0.00  0.00    +0.000 OA
ATOM     13  C   UNL     1       3.464   1.960  18.869  0.00  0.00    +0.000 C 
ENDBRANCH   9  12
BRANCH  10  14
ATOM     14  O   UNL     1       5.029   4.754  17.007  0.00  0.00    +0.000 OA
ATOM     15  C   UNL     1       6.261   5.442  16.840  0.00  0.00    +0.000 C 
ENDBRANCH  10  14
ENDBRANCH   4   6
BRANCH   5  16
ATOM     16  C   UNL     1       0.881   8.410  21.162  0.00  0.00    +0.000 C 
ATOM     17  C   UNL     1       1.617   9.269  22.202  0.00  0.00    +0.000 C 
ATOM     18  C   UNL     1      -0.573   8.311  21.587  0.00  0.00    +0.000 C 
ENDBRANCH   5  16
BRANCH   1  19
ATOM     19  C   UNL     1       0.005  11.101  19.438  0.00  0.00    +0.000 C 
BRANCH  19  20
ATOM     20  C   UNL     1      -0.905  11.639  18.320  0.00  0.00    +0.000 C 
BRANCH  20  26
ATOM     21  C   UNL     1      -3.357  10.965  17.779  0.00  0.00    +0.000 A 
ATOM     22  C   UNL     1      -4.718  11.223  18.013  0.00  0.00    +0.000 A 
ATOM     23  C   UNL     1      -5.134  12.032  19.069  0.00  0.00    +0.000 A 
ATOM     24  C   UNL     1      -4.193  12.555  19.941  0.00  0.00    +0.000 A 
ATOM     25  C   UNL     1      -2.838  12.331  19.702  0.00  0.00    +0.000 A 
ATOM     26  C   UNL     1      -2.392  11.599  18.578  0.00  0.00    +0.000 A 
BRANCH  21  28
ATOM     27  C   UNL     1      -3.114  10.821  15.393  0.00  0.00    +0.000 C 
ATOM     28  O   UNL     1      -3.146  10.197  16.669  0.00  0.00    +0.000 OA
ENDBRANCH  21  28
ENDBRANCH  20  26
ENDBRANCH  19  20
ENDBRANCH   1  19
TORSDOF 8
ENDMDL
MODEL 8
REMARK VINA RESULT:      -7.3      3.039      8.873
REMARK  Name = 
REMARK  13 active torsions:
REMARK  status: ('A' for Active; 'I' for Inactive)
REMARK    1  A    between atoms: C_1  and  O_2
REMARK    2  A    between atoms: O_2  and  C_3
REMARK    3  A    between atoms: C_8  and  C_9
REMARK    4  A    between atoms: C_9  and  C_10
REMARK    5  A    between atoms: C_10  and  N_11
REMARK    6  A    between atoms: C_14  and  C_15
REMARK    7  A    between atoms: C_18  and  O_19
REMARK    8  A    between atoms: O_19  and  C_20
REMARK    9  A    between atoms: C_21  and  O_22
REMARK   10  A    between atoms: O_22  and  C_23
REMARK   11  A    between atoms: C_25  and  C_26
REMARK   12  A    between atoms: C_26  and  C_27
REMARK   13  A    between atoms: C_26  and  C_28
REMARK                            x       y       z     vdW  Elec       q    Type
REMARK                         _______ _______ _______ _____ _____    ______ ____
ROOT
ATOM      1  N   UNL     1       0.997   9.228  20.967  0.00  0.00    +0.000 N 
ATOM      2  C   UNL     1       1.236   9.061  22.310  0.00  0.00    +0.000 A 
ATOM      3  N   UNL     1       0.585   9.926  23.034  0.00  0.00    +0.000 NA
ATOM      4  C   UNL     1      -0.070  10.728  22.130  0.00  0.00    +0.000 A 
ATOM      5  C   UNL     1       0.254  10.390  20.806  0.00  0.00    +0.000 A 
ENDROOT
BRANCH   4   6
ATOM      6  C   UNL     1      -0.914  11.814  22.604  0.00  0.00    +0.000 A 
ATOM      7  C   UNL     1      -0.526  13.146  22.523  0.00  0.00    +0.000 A 
ATOM      8  C   UNL     1      -1.357  14.152  23.000  0.00  0.00    +0.000 A 
ATOM      9  C   UNL     1      -2.627  13.863  23.492  0.00  0.00    +0.000 A 
ATOM     10  C   UNL     1      -3.065  12.527  23.552  0.00  0.00    +0.000 A 
ATOM     11  C   UNL     1      -2.188  11.512  23.115  0.00  0.00    +0.000 A 
BRANCH   9  12
ATOM     12  O   UNL     1      -3.286  15.010  23.851  0.00  0.00    +0.000 OA
ATOM     13  C   UNL     1      -2.802  15.747  24.964  0.00  0.00    +0.000 C 
ENDBRANCH   9  12
BRANCH  10  14
ATOM     14  O   UNL     1      -4.313  12.265  24.021  0.00  0.00    +0.000 OA
ATOM     15  C   UNL     1      -5.433  12.717  23.271  0.00  0.00    +0.000 C 
ENDBRANCH  10  14
ENDBRANCH   4   6
BRANCH   5  16
ATOM     16  C   UNL     1      -0.105  11.142  19.531  0.00  0.00    +0.000 C 
ATOM     17  C   UNL     1       1.148  11.762  18.894  0.00  0.00    +0.000 C 
ATOM     18  C   UNL     1      -0.891  10.450  18.431  0.00  0.00    +0.000 C 
ENDBRANCH   5  16
BRANCH   1  19
ATOM     19  C   UNL     1       1.588   8.333  19.994  0.00  0.00    +0.000 C 
BRANCH  19  20
ATOM     20  C   UNL     1       1.878   6.905  20.490  0.00  0.00    +0.000 C 
BRANCH  20  26
ATOM     21  C   UNL     1       1.747   4.549  19.399  0.00  0.00    +0.000 A 
ATOM     22  C   UNL     1       2.331   3.646  18.496  0.00  0.00    +0.000 A 
ATOM     23  C   UNL     1       3.301   4.056  17.582  0.00  0.00    +0.000 A 
ATOM     24  C   UNL     1       3.665   5.391  17.524  0.00  0.00    +0.000 A 
ATOM     25  C   UNL     1       3.113   6.291  18.435  0.00  0.00    +0.000 A 
ATOM     26  C   UNL     1       2.206   5.876  19.435  0.00  0.00    +0.000 A 
BRANCH  21  28
ATOM     27  C   UNL     1       1.344   3.037  21.222  0.00  0.00    +0.000 C 
ATOM     28  O   UNL     1       0.859   3.951  20.248  0.00  0.00    +0.000 OA
ENDBRANCH  21  28
ENDBRANCH  20  26
ENDBRANCH  19  20
ENDBRANCH   1  19
TORSDOF 8
ENDMDL
MODEL 9
REMARK VINA RESULT:      -7.3      1.751      8.520
REMARK  Name = 
REMARK  13 active torsions:
REMARK  status: ('A' for Active; 'I' for Inactive)
REMARK    1  A    between atoms: C_1  and  O_2
REMARK    2  A    between atoms: O_2  and  C_3
REMARK    3  A    between atoms: C_8  and  C_9
REMARK    4  A    between atoms: C_9  and  C_10
REMARK    5  A    between atoms: C_10  and  N_11
REMARK    6  A    between atoms: C_14  and  C_15
REMARK    7  A    between atoms: C_18  and  O_19
REMARK    8  A    between atoms: O_19  and  C_20
REMARK    9  A    between atoms: C_21  and  O_22
REMARK   10  A    between atoms: O_22  and  C_23
REMARK   11  A    between atoms: C_25  and  C_26
REMARK   12  A    between atoms: C_26  and  C_27
REMARK   13  A    between atoms: C_26  and  C_28
REMARK                            x       y       z     vdW  Elec       q    Type
REMARK                         _______ _______ _______ _____ _____    ______ ____
ROOT
ATOM      1  N   UNL     1       2.106   8.117  19.082  0.00  0.00    +0.000 N 
ATOM      2  C   UNL     1       1.998   8.691  17.838  0.00  0.00    +0.000 A 
ATOM      3  N   UNL     1       1.257   9.761  17.856  0.00  0.00    +0.000 NA
ATOM      4  C   UNL     1       0.817   9.870  19.153  0.00  0.00    +0.000 A 
ATOM      5  C   UNL     1       1.241   8.785  19.938  0.00  0.00    +0.000 A 
ENDROOT
BRANCH   4   6
ATOM      6  C   UNL     1      -0.042  10.980  19.536  0.00  0.00    +0.000 A 
ATOM      7  C   UNL     1       0.438  12.087  20.228  0.00  0.00    +0.000 A 
ATOM      8  C   UNL     1      -0.420  13.119  20.586  0.00  0.00    +0.000 A 
ATOM      9  C   UNL     1      -1.755  13.115  20.192  0.00  0.00    +0.000 A 
ATOM     10  C   UNL     1      -2.263  12.028  19.458  0.00  0.00    +0.000 A 
ATOM     11  C   UNL     1      -1.393  10.960  19.149  0.00  0.00    +0.000 A 
BRANCH   9  12
ATOM     12  O   UNL     1      -2.393  14.254  20.608  0.00  0.00    +0.000 OA
ATOM     13  C   UNL     1      -1.694  15.488  20.529  0.00  0.00    +0.000 C 
ENDBRANCH   9  12
BRANCH  10  14
ATOM     14  O   UNL     1      -3.565  12.046  19.069  0.00  0.00    +0.000 OA
ATOM     15  C   UNL     1      -3.904  11.514  17.795  0.00  0.00    +0.000 C 
ENDBRANCH  10  14
ENDBRANCH   4   6
BRANCH   5  16
ATOM     16  C   UNL     1       0.818   8.433  21.359  0.00  0.00    +0.000 C 
ATOM     17  C   UNL     1       1.585   9.288  22.381  0.00  0.00    +0.000 C 
ATOM     18  C   UNL     1      -0.650   8.452  21.747  0.00  0.00    +0.000 C 
ENDBRANCH   5  16
BRANCH   1  19
ATOM     19  C   UNL     1       2.931   6.944  19.286  0.00  0.00    +0.000 C 
BRANCH  19  20
ATOM     20  C   UNL     1       3.191   6.084  18.037  0.00  0.00    +0.000 C 
BRANCH  20  26
ATOM     21  C   UNL     1       3.846   3.580  17.808  0.00  0.00    +0.000 A 
ATOM     22  C   UNL     1       3.389   2.252  17.767  0.00  0.00    +0.000 A 
ATOM     23  C   UNL     1       2.093   1.916  18.155  0.00  0.00    +0.000 A 
ATOM     24  C   UNL     1       1.248   2.901  18.641  0.00  0.00    +0.000 A 
ATOM     25  C   UNL     1       1.681   4.226  18.659  0.00  0.00    +0.000 A 
ATOM     26  C   UNL     1       2.954   4.600  18.174  0.00  0.00    +0.000 A 
BRANCH  21  28
ATOM     27  C   UNL     1       5.324   4.078  15.981  0.00  0.00    +0.000 C 
ATOM     28  O   UNL     1       5.122   3.716  17.340  0.00  0.00    +0.000 OA
ENDBRANCH  21  28
ENDBRANCH  20  26
ENDBRANCH  19  20
ENDBRANCH   1  19
TORSDOF 8
ENDMDL
