MODEL 1
REMARK VINA RESULT:      -8.1      0.000      0.000
REMARK  Name = 
REMARK  12 active torsions:
REMARK  status: ('A' for Active; 'I' for Inactive)
REMARK    1  A    between atoms: C_1  and  C_2
REMARK    2  A    between atoms: C_2  and  C_3
REMARK    3  A    between atoms: C_5  and  O_6
REMARK    4  A    between atoms: O_6  and  C_7
REMARK    5  A    between atoms: C_7  and  C_8
REMARK    6  A    between atoms: C_8  and  C_9
REMARK    7  A    between atoms: C_11  and  C_12
REMARK    8  A    between atoms: C_20  and  C_21
REMARK    9  A    between atoms: C_24  and  C_25
REMARK   10  A    between atoms: C_25  and  C_26
REMARK   11  A    between atoms: C_26  and  C_27
REMARK   12  A    between atoms: C_27  and  O_29
REMARK                            x       y       z     vdW  Elec       q    Type
REMARK                         _______ _______ _______ _____ _____    ______ ____
ROOT
ATOM      1  O   UNL     1       4.563   7.086  17.222  0.00  0.00    +0.000 OA
ENDROOT
BRANCH   1   4
ATOM      2  C   UNL     1       2.115   6.070  19.732  0.00  0.00    +0.000 A 
ATOM      3  C   UNL     1       3.077   6.786  18.990  0.00  0.00    +0.000 A 
ATOM      4  C   UNL     1       3.679   6.251  17.851  0.00  0.00    +0.000 A 
ATOM      5  C   UNL     1       3.339   4.965  17.452  0.00  0.00    +0.000 A 
ATOM      6  C   UNL     1       2.423   4.221  18.199  0.00  0.00    +0.000 A 
ATOM      7  C   UNL     1       1.810   4.749  19.352  0.00  0.00    +0.000 A 
BRANCH   2   9
ATOM      8  C   UNL     1       1.403   8.306  20.685  0.00  0.00    +0.000 C 
ATOM      9  C   UNL     1       1.456   6.799  20.880  0.00  0.00    +0.000 C 
ENDBRANCH   2   9
BRANCH   7  10
ATOM     10  C   UNL     1       0.827   3.864  20.089  0.00  0.00    +0.000 C 
BRANCH  10  11
ATOM     11  C   UNL     1       1.424   2.490  20.383  0.00  0.00    +0.000 C 
BRANCH  11  12
ATOM     12  C   UNL     1       2.675   2.584  21.223  0.00  0.00    +0.000 C 
ATOM     13  O   UNL     1       3.780   2.185  20.903  0.00  0.00    +0.000 OA
BRANCH  12  14
ATOM     14  O   UNL     1       2.434   3.173  22.420  0.00  0.00    +0.000 OA
ATOM     15  H   UNL     1       1.648   3.755  22.423  0.00  0.00    +0.000 HD
ENDBRANCH  12  14
ENDBRANCH  11  12
ENDBRANCH  10  11
ENDBRANCH   7  10
ENDBRANCH   1   4
BRANCH   1  16
ATOM     16  C   UNL     1       5.195   6.573  16.048  0.00  0.00    +0.000 C 
BRANCH  16  17
ATOM     17  C   UNL     1       6.538   5.962  16.439  0.00  0.00    +0.000 C 
BRANCH  17  18
ATOM     18  C   UNL     1       7.285   6.846  17.367  0.00  0.00    +0.000 A 
ATOM     19  N   UNL     1       7.460   8.186  17.095  0.00  0.00    +0.000 NA
ATOM     20  C   UNL     1       8.183   8.631  18.106  0.00  0.00    +0.000 A 
ATOM     21  O   UNL     1       8.500   7.668  19.028  0.00  0.00    +0.000 OA
ATOM     22  C   UNL     1       7.918   6.531  18.550  0.00  0.00    +0.000 A 
ATOM     23  C   UNL     1       8.088   5.302  19.344  0.00  0.00    +0.000 C 
BRANCH  20  24
ATOM     24  C   UNL     1       8.688   9.975  18.374  0.00  0.00    +0.000 A 
ATOM     25  C   UNL     1       8.322  11.044  17.537  0.00  0.00    +0.000 A 
ATOM     26  C   UNL     1       8.810  12.333  17.772  0.00  0.00    +0.000 A 
ATOM     27  C   UNL     1       9.666  12.557  18.846  0.00  0.00    +0.000 A 
ATOM     28  F   UNL     1      10.139  13.790  19.066  0.00  0.00    +0.000 F 
ATOM     29  C   UNL     1      10.037  11.522  19.690  0.00  0.00    +0.000 A 
ATOM     30  C   UNL     1       9.548  10.233  19.456  0.00  0.00    +0.000 A 
ENDBRANCH  20  24
ENDBRANCH  17  18
ENDBRANCH  16  17
ENDBRANCH   1  16
TORSDOF 10
ENDMDL
MODEL 2
REMARK VINA RESULT:      -8.1      0.618      2.027
REMARK  Name = 
REMARK  12 active torsions:
REMARK  status: ('A' for Active; 'I' for Inactive)
REMARK    1  A    between atoms: C_1  and  C_2
REMARK    2  A    between atoms: C_2  and  C_3
REMARK    3  A    between atoms: C_5  and  O_6
REMARK    4  A    between atoms: O_6  and  C_7
REMARK    5  A    between atoms: C_7  and  C_8
REMARK    6  A    between atoms: C_8  and  C_9
REMARK    7  A    between atoms: C_11  and  C_12
REMARK    8  A    between atoms: C_20  and  C_21
REMARK    9  A    between atoms: C_24  and  C_25
REMARK   10  A    between atoms: C_25  and  C_26
REMARK   11  A    between atoms: C_26  and  C_27
REMARK   12  A    between atoms: C_27  and  O_29
REMARK                            x       y       z     vdW  Elec       q    Type
REMARK                         _______ _______ _______ _____ _____    ______ ____
ROOT
ATOM      1  O   UNL     1       4.618   7.004  17.335  0.00  0.00    +0.000 OA
ENDROOT
BRANCH   1   4
ATOM      2  C   UNL     1       2.550   4.094  18.097  0.00  0.00    +0.000 A 
ATOM      3  C   UNL     1       3.450   4.995  17.491  0.00  0.00    +0.000 A 
ATOM      4  C   UNL     1       3.688   6.265  18.016  0.00  0.00    +0.000 A 
ATOM      5  C   UNL     1       2.997   6.663  19.154  0.00  0.00    +0.000 A 
ATOM      6  C   UNL     1       2.065   5.804  19.741  0.00  0.00    +0.000 A 
ATOM      7  C   UNL     1       1.815   4.521  19.220  0.00  0.00    +0.000 A 
BRANCH   2   9
ATOM      8  C   UNL     1       3.789   1.968  17.495  0.00  0.00    +0.000 C 
ATOM      9  C   UNL     1       2.461   2.709  17.497  0.00  0.00    +0.000 C 
ENDBRANCH   2   9
BRANCH   7  10
ATOM     10  C   UNL     1       0.790   3.663  19.933  0.00  0.00    +0.000 C 
BRANCH  10  11
ATOM     11  C   UNL     1       1.426   2.405  20.519  0.00  0.00    +0.000 C 
BRANCH  11  12
ATOM     12  C   UNL     1       2.489   2.729  21.540  0.00  0.00    +0.000 C 
ATOM     13  O   UNL     1       2.342   3.433  22.522  0.00  0.00    +0.000 OA
BRANCH  12  14
ATOM     14  O   UNL     1       3.673   2.141  21.238  0.00  0.00    +0.000 OA
ATOM     15  H   UNL     1       4.445   2.733  21.335  0.00  0.00    +0.000 HD
ENDBRANCH  12  14
ENDBRANCH  11  12
ENDBRANCH  10  11
ENDBRANCH   7  10
ENDBRANCH   1   4
BRANCH   1  16
ATOM     16  C   UNL     1       5.129   6.428  16.131  0.00  0.00    +0.000 C 
BRANCH  16  17
ATOM     17  C   UNL     1       6.545   5.923  16.389  0.00  0.00    +0.000 C 
BRANCH  17  18
ATOM     18  C   UNL     1       7.272   6.809  17.332  0.00  0.00    +0.000 A 
ATOM     19  N   UNL     1       7.462   8.146  17.057  0.00  0.00    +0.000 NA
ATOM     20  C   UNL     1       8.160   8.594  18.084  0.00  0.00    +0.000 A 
ATOM     21  O   UNL     1       8.446   7.634  19.021  0.00  0.00    +0.000 OA
ATOM     22  C   UNL     1       7.870   6.498  18.534  0.00  0.00    +0.000 A 
ATOM     23  C   UNL     1       8.011   5.274  19.340  0.00  0.00    +0.000 C 
BRANCH  20  24
ATOM     24  C   UNL     1       8.665   9.937  18.357  0.00  0.00    +0.000 A 
ATOM     25  C   UNL     1       8.314  11.005  17.515  0.00  0.00    +0.000 A 
ATOM     26  C   UNL     1       8.802  12.293  17.755  0.00  0.00    +0.000 A 
ATOM     27  C   UNL     1       9.645  12.516  18.839  0.00  0.00    +0.000 A 
ATOM     28  F   UNL     1      10.119  13.747  19.064  0.00  0.00    +0.000 F 
ATOM     29  C   UNL     1      10.002  11.480  19.690  0.00  0.00    +0.000 A 
ATOM     30  C   UNL     1       9.512  10.193  19.450  0.00  0.00    +0.000 A 
ENDBRANCH  20  24
ENDBRANCH  17  18
ENDBRANCH  16  17
ENDBRANCH   1  16
TORSDOF 10
ENDMDL
MODEL 3
REMARK VINA RESULT:      -7.6      1.921      3.118
REMARK  Name = 
REMARK  12 active torsions:
REMARK  status: ('A' for Active; 'I' for Inactive)
REMARK    1  A    between atoms: C_1  and  C_2
REMARK    2  A    between atoms: C_2  and  C_3
REMARK    3  A    between atoms: C_5  and  O_6
REMARK    4  A    between atoms: O_6  and  C_7
REMARK    5  A    between atoms: C_7  and  C_8
REMARK    6  A    between atoms: C_8  and  C_9
REMARK    7  A    between atoms: C_11  and  C_12
REMARK    8  A    between atoms: C_20  and  C_21
REMARK    9  A    between atoms: C_24  and  C_25
REMARK   10  A    between atoms: C_25  and  C_26
REMARK   11  A    between atoms: C_26  and  C_27
REMARK   12  A    between atoms: C_27  and  O_29
REMARK                            x       y       z     vdW  Elec       q    Type
REMARK                         _______ _______ _______ _____ _____    ______ ____
ROOT
ATOM      1  O   UNL     1       4.458   4.787  16.967  0.00  0.00    +0.000 OA
ENDROOT
BRANCH   1   4
ATOM      2  C   UNL     1       2.478   5.040  20.023  0.00  0.00    +0.000 A 
ATOM      3  C   UNL     1       3.259   4.561  18.951  0.00  0.00    +0.000 A 
ATOM      4  C   UNL     1       3.674   5.393  17.911  0.00  0.00    +0.000 A 
ATOM      5  C   UNL     1       3.282   6.727  17.920  0.00  0.00    +0.000 A 
ATOM      6  C   UNL     1       2.469   7.209  18.948  0.00  0.00    +0.000 A 
ATOM      7  C   UNL     1       2.042   6.379  20.002  0.00  0.00    +0.000 A 
BRANCH   2   9
ATOM      8  C   UNL     1       1.864   2.664  20.652  0.00  0.00    +0.000 C 
ATOM      9  C   UNL     1       2.185   4.067  21.143  0.00  0.00    +0.000 C 
ENDBRANCH   2   9
BRANCH   7  10
ATOM     10  C   UNL     1       1.167   6.999  21.071  0.00  0.00    +0.000 C 
BRANCH  10  11
ATOM     11  C   UNL     1       1.396   8.505  21.174  0.00  0.00    +0.000 C 
BRANCH  11  12
ATOM     12  C   UNL     1       0.597   9.125  22.294  0.00  0.00    +0.000 C 
ATOM     13  O   UNL     1       1.028   9.887  23.139  0.00  0.00    +0.000 OA
BRANCH  12  14
ATOM     14  O   UNL     1      -0.699   8.725  22.268  0.00  0.00    +0.000 OA
ATOM     15  H   UNL     1      -1.304   9.315  22.760  0.00  0.00    +0.000 HD
ENDBRANCH  12  14
ENDBRANCH  11  12
ENDBRANCH  10  11
ENDBRANCH   7  10
ENDBRANCH   1   4
BRANCH   1  16
ATOM     16  C   UNL     1       5.868   4.824  17.194  0.00  0.00    +0.000 C 
BRANCH  16  17
ATOM     17  C   UNL     1       6.453   6.027  16.461  0.00  0.00    +0.000 C 
BRANCH  17  18
ATOM     18  C   UNL     1       7.241   6.888  17.378  0.00  0.00    +0.000 A 
ATOM     19  N   UNL     1       7.425   8.229  17.121  0.00  0.00    +0.000 NA
ATOM     20  C   UNL     1       8.186   8.650  18.114  0.00  0.00    +0.000 A 
ATOM     21  O   UNL     1       8.520   7.669  19.011  0.00  0.00    +0.000 OA
ATOM     22  C   UNL     1       7.908   6.547  18.535  0.00  0.00    +0.000 A 
ATOM     23  C   UNL     1       8.087   5.304  19.305  0.00  0.00    +0.000 C 
BRANCH  20  24
ATOM     24  C   UNL     1       8.717   9.983  18.385  0.00  0.00    +0.000 A 
ATOM     25  C   UNL     1       8.376  11.060  17.548  0.00  0.00    +0.000 A 
ATOM     26  C   UNL     1       8.889  12.339  17.786  0.00  0.00    +0.000 A 
ATOM     27  C   UNL     1       9.745  12.544  18.864  0.00  0.00    +0.000 A 
ATOM     28  F   UNL     1      10.242  13.767  19.087  0.00  0.00    +0.000 F 
ATOM     29  C   UNL     1      10.092  11.501  19.709  0.00  0.00    +0.000 A 
ATOM     30  C   UNL     1       9.578  10.223  19.471  0.00  0.00    +0.000 A 
ENDBRANCH  20  24
ENDBRANCH  17  18
ENDBRANCH  16  17
ENDBRANCH   1  16
TORSDOF 10
ENDMDL
MODEL 4
REMARK VINA RESULT:      -7.6      4.463      7.007
REMARK  Name = 
REMARK  12 active torsions:
REMARK  status: ('A' for Active; 'I' for Inactive)
REMARK    1  A    between atoms: C_1  and  C_2
REMARK    2  A    between atoms: C_2  and  C_3
REMARK    3  A    between atoms: C_5  and  O_6
REMARK    4  A    between atoms: O_6  and  C_7
REMARK    5  A    between atoms: C_7  and  C_8
REMARK    6  A    between atoms: C_8  and  C_9
REMARK    7  A    between atoms: C_11  and  C_12
REMARK    8  A    between atoms: C_20  and  C_21
REMARK    9  A    between atoms: C_24  and  C_25
REMARK   10  A    between atoms: C_25  and  C_26
REMARK   11  A    between atoms: C_26  and  C_27
REMARK   12  A    between atoms: C_27  and  O_29
REMARK                            x       y       z     vdW  Elec       q    Type
REMARK                         _______ _______ _______ _____ _____    ______ ____
ROOT
ATOM      1  O   UNL     1       3.279   6.271  19.439  0.00  0.00    +0.000 OA
ENDROOT
BRANCH   1   4
ATOM      2  C   UNL     1       1.032   9.050  20.185  0.00  0.00    +0.000 A 
ATOM      3  C   UNL     1       1.842   7.899  20.281  0.00  0.00    +0.000 A 
ATOM      4  C   UNL     1       2.503   7.367  19.174  0.00  0.00    +0.000 A 
ATOM      5  C   UNL     1       2.337   7.974  17.935  0.00  0.00    +0.000 A 
ATOM      6  C   UNL     1       1.501   9.088  17.810  0.00  0.00    +0.000 A 
ATOM      7  C   UNL     1       0.827   9.632  18.919  0.00  0.00    +0.000 A 
BRANCH   2   9
ATOM      8  C   UNL     1      -0.468   8.613  22.179  0.00  0.00    +0.000 C 
ATOM      9  C   UNL     1       0.458   9.591  21.475  0.00  0.00    +0.000 C 
ENDBRANCH   2   9
BRANCH   7  10
ATOM     10  C   UNL     1      -0.050  10.843  18.679  0.00  0.00    +0.000 C 
BRANCH  10  11
ATOM     11  C   UNL     1      -1.370  10.453  18.018  0.00  0.00    +0.000 C 
BRANCH  11  12
ATOM     12  C   UNL     1      -2.416  11.532  18.160  0.00  0.00    +0.000 C 
ATOM     13  O   UNL     1      -2.781  12.037  19.205  0.00  0.00    +0.000 OA
BRANCH  12  14
ATOM     14  O   UNL     1      -2.935  11.889  16.959  0.00  0.00    +0.000 OA
ATOM     15  H   UNL     1      -2.583  12.733  16.612  0.00  0.00    +0.000 HD
ENDBRANCH  12  14
ENDBRANCH  11  12
ENDBRANCH  10  11
ENDBRANCH   7  10
ENDBRANCH   1   4
BRANCH   1  16
ATOM     16  C   UNL     1       2.673   4.996  19.225  0.00  0.00    +0.000 C 
BRANCH  16  17
ATOM     17  C   UNL     1       3.766   3.934  19.169  0.00  0.00    +0.000 C 
BRANCH  17  18
ATOM     18  C   UNL     1       4.811   4.284  18.176  0.00  0.00    +0.000 A 
ATOM     19  N   UNL     1       4.659   3.983  16.840  0.00  0.00    +0.000 NA
ATOM     20  C   UNL     1       5.777   4.409  16.281  0.00  0.00    +0.000 A 
ATOM     21  O   UNL     1       6.661   4.969  17.166  0.00  0.00    +0.000 OA
ATOM     22  C   UNL     1       6.034   4.890  18.374  0.00  0.00    +0.000 A 
ATOM     23  C   UNL     1       6.752   5.425  19.542  0.00  0.00    +0.000 C 
BRANCH  20  24
ATOM     24  C   UNL     1       6.201   4.362  14.884  0.00  0.00    +0.000 A 
ATOM     25  C   UNL     1       7.293   5.135  14.454  0.00  0.00    +0.000 A 
ATOM     26  C   UNL     1       7.701   5.112  13.116  0.00  0.00    +0.000 A 
ATOM     27  C   UNL     1       7.016   4.314  12.205  0.00  0.00    +0.000 A 
ATOM     28  F   UNL     1       7.401   4.298  10.923  0.00  0.00    +0.000 F 
ATOM     29  C   UNL     1       5.939   3.537  12.604  0.00  0.00    +0.000 A 
ATOM     30  C   UNL     1       5.533   3.559  13.942  0.00  0.00    +0.000 A 
ENDBRANCH  20  24
ENDBRANCH  17  18
ENDBRANCH  16  17
ENDBRANCH   1  16
TORSDOF 10
ENDMDL
MODEL 5
REMARK VINA RESULT:      -7.5      1.137      1.607
REMARK  Name = 
REMARK  12 active torsions:
REMARK  status: ('A' for Active; 'I' for Inactive)
REMARK    1  A    between atoms: C_1  and  C_2
REMARK    2  A    between atoms: C_2  and  C_3
REMARK    3  A    between atoms: C_5  and  O_6
REMARK    4  A    between atoms: O_6  and  C_7
REMARK    5  A    between atoms: C_7  and  C_8
REMARK    6  A    between atoms: C_8  and  C_9
REMARK    7  A    between atoms: C_11  and  C_12
REMARK    8  A    between atoms: C_20  and  C_21
REMARK    9  A    between atoms: C_24  and  C_25
REMARK   10  A    between atoms: C_25  and  C_26
REMARK   11  A    between atoms: C_26  and  C_27
REMARK   12  A    between atoms: C_27  and  O_29
REMARK                            x       y       z     vdW  Elec       q    Type
REMARK                         _______ _______ _______ _____ _____    ______ ____
ROOT
ATOM      1  O   UNL     1       5.834   3.903  16.026  0.00  0.00    +0.000 OA
ENDROOT
BRANCH   1   4
ATOM      2  C   UNL     1       2.879   4.980  17.877  0.00  0.00    +0.000 A 
ATOM      3  C   UNL     1       4.073   4.955  17.127  0.00  0.00    +0.000 A 
ATOM      4  C   UNL     1       4.707   3.760  16.789  0.00  0.00    +0.000 A 
ATOM      5  C   UNL     1       4.160   2.560  17.228  0.00  0.00    +0.000 A 
ATOM      6  C   UNL     1       3.004   2.566  18.013  0.00  0.00    +0.000 A 
ATOM      7  C   UNL     1       2.356   3.766  18.362  0.00  0.00    +0.000 A 
BRANCH   2   9
ATOM      8  C   UNL     1       2.808   7.101  19.260  0.00  0.00    +0.000 C 
ATOM      9  C   UNL     1       2.230   6.330  18.085  0.00  0.00    +0.000 C 
ENDBRANCH   2   9
BRANCH   7  10
ATOM     10  C   UNL     1       1.105   3.664  19.211  0.00  0.00    +0.000 C 
BRANCH  10  11
ATOM     11  C   UNL     1       1.269   2.631  20.323  0.00  0.00    +0.000 C 
BRANCH  11  12
ATOM     12  C   UNL     1       2.162   3.129  21.433  0.00  0.00    +0.000 C 
ATOM     13  O   UNL     1       2.771   2.433  22.225  0.00  0.00    +0.000 OA
BRANCH  12  14
ATOM     14  O   UNL     1       2.214   4.484  21.467  0.00  0.00    +0.000 OA
ATOM     15  H   UNL     1       2.682   4.842  22.247  0.00  0.00    +0.000 HD
ENDBRANCH  12  14
ENDBRANCH  11  12
ENDBRANCH  10  11
ENDBRANCH   7  10
ENDBRANCH   1   4
BRANCH   1  16
ATOM     16  C   UNL     1       6.891   4.678  16.593  0.00  0.00    +0.000 C 
BRANCH  16  17
ATOM     17  C   UNL     1       6.579   6.158  16.390  0.00  0.00    +0.000 C 
BRANCH  17  18
ATOM     18  C   UNL     1       7.324   7.005  17.355  0.00  0.00    +0.000 A 
ATOM     19  N   UNL     1       7.557   8.340  17.105  0.00  0.00    +0.000 NA
ATOM     20  C   UNL     1       8.259   8.748  18.146  0.00  0.00    +0.000 A 
ATOM     21  O   UNL     1       8.507   7.764  19.068  0.00  0.00    +0.000 OA
ATOM     22  C   UNL     1       7.902   6.655  18.556  0.00  0.00    +0.000 A 
ATOM     23  C   UNL     1       7.998   5.413  19.342  0.00  0.00    +0.000 C 
BRANCH  20  24
ATOM     24  C   UNL     1       8.803  10.070  18.447  0.00  0.00    +0.000 A 
ATOM     25  C   UNL     1       8.492  11.163  17.620  0.00  0.00    +0.000 A 
ATOM     26  C   UNL     1       9.017  12.431  17.887  0.00  0.00    +0.000 A 
ATOM     27  C   UNL     1       9.856  12.609  18.982  0.00  0.00    +0.000 A 
ATOM     28  F   UNL     1      10.365  13.822  19.233  0.00  0.00    +0.000 F 
ATOM     29  C   UNL     1      10.173  11.549  19.818  0.00  0.00    +0.000 A 
ATOM     30  C   UNL     1       9.646  10.282  19.552  0.00  0.00    +0.000 A 
ENDBRANCH  20  24
ENDBRANCH  17  18
ENDBRANCH  16  17
ENDBRANCH   1  16
TORSDOF 10
ENDMDL
MODEL 6
REMARK VINA RESULT:      -7.5      5.803      9.136
REMARK  Name = 
REMARK  12 active torsions:
REMARK  status: ('A' for Active; 'I' for Inactive)
REMARK    1  A    between atoms: C_1  and  C_2
REMARK    2  A    between atoms: C_2  and  C_3
REMARK    3  A    between atoms: C_5  and  O_6
REMARK    4  A    between atoms: O_6  and  C_7
REMARK    5  A    between atoms: C_7  and  C_8
REMARK    6  A    between atoms: C_8  and  C_9
REMARK    7  A    between atoms: C_11  and  C_12
REMARK    8  A    between atoms: C_20  and  C_21
REMARK    9  A    between atoms: C_24  and  C_25
REMARK   10  A    between atoms: C_25  and  C_26
REMARK   11  A    between atoms: C_26  and  C_27
REMARK   12  A    between atoms: C_27  and  O_29
REMARK                            x       y       z     vdW  Elec       q    Type
REMARK                         _______ _______ _______ _____ _____    ______ ____
ROOT
ATOM      1  O   UNL     1       1.793   8.293  20.367  0.00  0.00    +0.000 OA
ENDROOT
BRANCH   1   4
ATOM      2  C   UNL     1       1.676   4.679  19.870  0.00  0.00    +0.000 A 
ATOM      3  C   UNL     1       1.565   5.976  20.412  0.00  0.00    +0.000 A 
ATOM      4  C   UNL     1       2.007   7.105  19.722  0.00  0.00    +0.000 A 
ATOM      5  C   UNL     1       2.599   6.942  18.476  0.00  0.00    +0.000 A 
ATOM      6  C   UNL     1       2.761   5.661  17.941  0.00  0.00    +0.000 A 
ATOM      7  C   UNL     1       2.321   4.515  18.629  0.00  0.00    +0.000 A 
BRANCH   2   9
ATOM      8  C   UNL     1       1.967   3.032  21.773  0.00  0.00    +0.000 C 
ATOM      9  C   UNL     1       1.062   3.550  20.667  0.00  0.00    +0.000 C 
ENDBRANCH   2   9
BRANCH   7  10
ATOM     10  C   UNL     1       2.539   3.172  17.962  0.00  0.00    +0.000 C 
BRANCH  10  11
ATOM     11  C   UNL     1       4.018   2.927  17.673  0.00  0.00    +0.000 C 
BRANCH  11  12
ATOM     12  C   UNL     1       4.855   2.960  18.929  0.00  0.00    +0.000 C 
ATOM     13  O   UNL     1       4.670   2.288  19.926  0.00  0.00    +0.000 OA
BRANCH  12  14
ATOM     14  O   UNL     1       5.868   3.856  18.833  0.00  0.00    +0.000 OA
ATOM     15  H   UNL     1       6.072   4.126  17.916  0.00  0.00    +0.000 HD
ENDBRANCH  12  14
ENDBRANCH  11  12
ENDBRANCH  10  11
ENDBRANCH   7  10
ENDBRANCH   1   4
BRANCH   1  16
ATOM     16  C   UNL     1       0.877   8.265  21.463  0.00  0.00    +0.000 C 
BRANCH  16  17
ATOM     17  C   UNL     1       1.081   9.520  22.307  0.00  0.00    +0.000 C 
BRANCH  17  18
ATOM     18  C   UNL     1       0.046  10.543  22.015  0.00  0.00    +0.000 A 
ATOM     19  N   UNL     1      -1.036  10.725  22.848  0.00  0.00    +0.000 NA
ATOM     20  C   UNL     1      -1.740  11.676  22.263  0.00  0.00    +0.000 A 
ATOM     21  O   UNL     1      -1.192  12.132  21.092  0.00  0.00    +0.000 OA
ATOM     22  C   UNL     1      -0.048  11.405  20.944  0.00  0.00    +0.000 A 
ATOM     23  C   UNL     1       0.773  11.678  19.752  0.00  0.00    +0.000 C 
BRANCH  20  24
ATOM     24  C   UNL     1      -2.998  12.295  22.674  0.00  0.00    +0.000 A 
ATOM     25  C   UNL     1      -3.767  13.013  21.742  0.00  0.00    +0.000 A 
ATOM     26  C   UNL     1      -4.965  13.623  22.125  0.00  0.00    +0.000 A 
ATOM     27  C   UNL     1      -5.398  13.516  23.442  0.00  0.00    +0.000 A 
ATOM     28  F   UNL     1      -6.542  14.107  23.810  0.00  0.00    +0.000 F 
ATOM     29  C   UNL     1      -4.662  12.809  24.381  0.00  0.00    +0.000 A 
ATOM     30  C   UNL     1      -3.465  12.197  23.997  0.00  0.00    +0.000 A 
ENDBRANCH  20  24
ENDBRANCH  17  18
ENDBRANCH  16  17
ENDBRANCH   1  16
TORSDOF 10
ENDMDL
MODEL 7
REMARK VINA RESULT:      -7.4      5.834      9.137
REMARK  Name = 
REMARK  12 active torsions:
REMARK  status: ('A' for Active; 'I' for Inactive)
REMARK    1  A    between atoms: C_1  and  C_2
REMARK    2  A    between atoms: C_2  and  C_3
REMARK    3  A    between atoms: C_5  and  O_6
REMARK    4  A    between atoms: O_6  and  C_7
REMARK    5  A    between atoms: C_7  and  C_8
REMARK    6  A    between atoms: C_8  and  C_9
REMARK    7  A    between atoms: C_11  and  C_12
REMARK    8  A    between atoms: C_20  and  C_21
REMARK    9  A    between atoms: C_24  and  C_25
REMARK   10  A    between atoms: C_25  and  C_26
REMARK   11  A    between atoms: C_26  and  C_27
REMARK   12  A    between atoms: C_27  and  O_29
REMARK                            x       y       z     vdW  Elec       q    Type
REMARK                         _______ _______ _______ _____ _____    ______ ____
ROOT
ATOM      1  O   UNL     1       1.714   8.085  21.206  0.00  0.00    +0.000 OA
ENDROOT
BRANCH   1   4
ATOM      2  C   UNL     1       1.605   4.679  19.897  0.00  0.00    +0.000 A 
ATOM      3  C   UNL     1       1.524   5.813  20.732  0.00  0.00    +0.000 A 
ATOM      4  C   UNL     1       1.886   7.084  20.288  0.00  0.00    +0.000 A 
ATOM      5  C   UNL     1       2.364   7.233  18.992  0.00  0.00    +0.000 A 
ATOM      6  C   UNL     1       2.496   6.115  18.163  0.00  0.00    +0.000 A 
ATOM      7  C   UNL     1       2.137   4.827  18.601  0.00  0.00    +0.000 A 
BRANCH   2   9
ATOM      8  C   UNL     1       1.992   2.767  21.513  0.00  0.00    +0.000 C 
ATOM      9  C   UNL     1       1.081   3.377  20.459  0.00  0.00    +0.000 C 
ENDBRANCH   2   9
BRANCH   7  10
ATOM     10  C   UNL     1       2.312   3.682  17.625  0.00  0.00    +0.000 C 
BRANCH  10  11
ATOM     11  C   UNL     1       3.785   3.322  17.447  0.00  0.00    +0.000 C 
BRANCH  11  12
ATOM     12  C   UNL     1       4.376   2.713  18.695  0.00  0.00    +0.000 C 
ATOM     13  O   UNL     1       5.000   3.310  19.552  0.00  0.00    +0.000 OA
BRANCH  12  14
ATOM     14  O   UNL     1       4.139   1.379  18.763  0.00  0.00    +0.000 OA
ATOM     15  H   UNL     1       3.323   1.099  18.304  0.00  0.00    +0.000 HD
ENDBRANCH  12  14
ENDBRANCH  11  12
ENDBRANCH  10  11
ENDBRANCH   7  10
ENDBRANCH   1   4
BRANCH   1  16
ATOM     16  C   UNL     1       0.472   8.789  21.153  0.00  0.00    +0.000 C 
BRANCH  16  17
ATOM     17  C   UNL     1       0.670  10.079  20.364  0.00  0.00    +0.000 C 
BRANCH  17  18
ATOM     18  C   UNL     1      -0.553  10.919  20.383  0.00  0.00    +0.000 A 
ATOM     19  N   UNL     1      -1.005  11.499  21.549  0.00  0.00    +0.000 NA
ATOM     20  C   UNL     1      -2.108  12.131  21.191  0.00  0.00    +0.000 A 
ATOM     21  O   UNL     1      -2.415  12.000  19.862  0.00  0.00    +0.000 OA
ATOM     22  C   UNL     1      -1.414  11.228  19.352  0.00  0.00    +0.000 A 
ATOM     23  C   UNL     1      -1.472  10.912  17.915  0.00  0.00    +0.000 C 
BRANCH  20  24
ATOM     24  C   UNL     1      -3.032  12.926  21.995  0.00  0.00    +0.000 A 
ATOM     25  C   UNL     1      -3.656  14.056  21.439  0.00  0.00    +0.000 A 
ATOM     26  C   UNL     1      -4.531  14.836  22.201  0.00  0.00    +0.000 A 
ATOM     27  C   UNL     1      -4.785  14.487  23.523  0.00  0.00    +0.000 A 
ATOM     28  F   UNL     1      -5.618  15.238  24.255  0.00  0.00    +0.000 F 
ATOM     29  C   UNL     1      -4.189  13.373  24.095  0.00  0.00    +0.000 A 
ATOM     30  C   UNL     1      -3.315  12.593  23.332  0.00  0.00    +0.000 A 
ENDBRANCH  20  24
ENDBRANCH  17  18
ENDBRANCH  16  17
ENDBRANCH   1  16
TORSDOF 10
ENDMDL
MODEL 8
REMARK VINA RESULT:      -7.4      6.092      9.677
REMARK  Name = 
REMARK  12 active torsions:
REMARK  status: ('A' for Active; 'I' for Inactive)
REMARK    1  A    between atoms: C_1  and  C_2
REMARK    2  A    between atoms: C_2  and  C_3
REMARK    3  A    between atoms: C_5  and  O_6
REMARK    4  A    between atoms: O_6  and  C_7
REMARK    5  A    between atoms: C_7  and  C_8
REMARK    6  A    between atoms: C_8  and  C_9
REMARK    7  A    between atoms: C_11  and  C_12
REMARK    8  A    between atoms: C_20  and  C_21
REMARK    9  A    between atoms: C_24  and  C_25
REMARK   10  A    between atoms: C_25  and  C_26
REMARK   11  A    between atoms: C_26  and  C_27
REMARK   12  A    between atoms: C_27  and  O_29
REMARK                            x       y       z     vdW  Elec       q    Type
REMARK                         _______ _______ _______ _____ _____    ______ ____
ROOT
ATOM      1  O   UNL     1       0.790   9.450  20.031  0.00  0.00    +0.000 OA
ENDROOT
BRANCH   1   4
ATOM      2  C   UNL     1       2.608   6.324  19.532  0.00  0.00    +0.000 A 
ATOM      3  C   UNL     1       1.828   7.366  20.076  0.00  0.00    +0.000 A 
ATOM      4  C   UNL     1       1.599   8.555  19.384  0.00  0.00    +0.000 A 
ATOM      5  C   UNL     1       2.181   8.729  18.134  0.00  0.00    +0.000 A 
ATOM      6  C   UNL     1       2.996   7.729  17.598  0.00  0.00    +0.000 A 
ATOM      7  C   UNL     1       3.235   6.525  18.287  0.00  0.00    +0.000 A 
BRANCH   2   9
ATOM      8  C   UNL     1       1.585   4.055  19.997  0.00  0.00    +0.000 C 
ATOM      9  C   UNL     1       2.691   5.043  20.330  0.00  0.00    +0.000 C 
ENDBRANCH   2   9
BRANCH   7  10
ATOM     10  C   UNL     1       4.129   5.502  17.617  0.00  0.00    +0.000 C 
BRANCH  10  11
ATOM     11  C   UNL     1       5.603   5.872  17.758  0.00  0.00    +0.000 C 
BRANCH  11  12
ATOM     12  C   UNL     1       6.427   4.727  18.294  0.00  0.00    +0.000 C 
ATOM     13  O   UNL     1       7.643   4.672  18.313  0.00  0.00    +0.000 OA
BRANCH  12  14
ATOM     14  O   UNL     1       5.646   3.722  18.761  0.00  0.00    +0.000 OA
ATOM     15  H   UNL     1       4.980   4.011  19.416  0.00  0.00    +0.000 HD
ENDBRANCH  12  14
ENDBRANCH  11  12
ENDBRANCH  10  11
ENDBRANCH   7  10
ENDBRANCH   1   4
BRANCH   1  16
ATOM     16  C   UNL     1       0.924  10.820  19.648  0.00  0.00    +0.000 C 
BRANCH  16  17
ATOM     17  C   UNL     1       1.004  11.678  20.907  0.00  0.00    +0.000 C 
BRANCH  17  18
ATOM     18  C   UNL     1      -0.205  11.512  21.752  0.00  0.00    +0.000 A 
ATOM     19  N   UNL     1      -1.288  12.355  21.625  0.00  0.00    +0.000 NA
ATOM     20  C   UNL     1      -2.139  11.930  22.541  0.00  0.00    +0.000 A 
ATOM     21  O   UNL     1      -1.684  10.861  23.268  0.00  0.00    +0.000 OA
ATOM     22  C   UNL     1      -0.449  10.597  22.753  0.00  0.00    +0.000 A 
ATOM     23  C   UNL     1       0.302   9.477  23.344  0.00  0.00    +0.000 C 
BRANCH  20  24
ATOM     24  C   UNL     1      -3.467  12.431  22.887  0.00  0.00    +0.000 A 
ATOM     25  C   UNL     1      -3.938  12.322  24.207  0.00  0.00    +0.000 A 
ATOM     26  C   UNL     1      -5.213  12.783  24.550  0.00  0.00    +0.000 A 
ATOM     27  C   UNL     1      -6.020  13.356  23.572  0.00  0.00    +0.000 A 
ATOM     28  F   UNL     1      -7.243  13.791  23.899  0.00  0.00    +0.000 F 
ATOM     29  C   UNL     1      -5.577  13.482  22.264  0.00  0.00    +0.000 A 
ATOM     30  C   UNL     1      -4.302  13.021  21.922  0.00  0.00    +0.000 A 
ENDBRANCH  20  24
ENDBRANCH  17  18
ENDBRANCH  16  17
ENDBRANCH   1  16
TORSDOF 10
ENDMDL
MODEL 9
REMARK VINA RESULT:      -7.3      4.214      7.778
REMARK  Name = 
REMARK  12 active torsions:
REMARK  status: ('A' for Active; 'I' for Inactive)
REMARK    1  A    between atoms: C_1  and  C_2
REMARK    2  A    between atoms: C_2  and  C_3
REMARK    3  A    between atoms: C_5  and  O_6
REMARK    4  A    between atoms: O_6  and  C_7
REMARK    5  A    between atoms: C_7  and  C_8
REMARK    6  A    between atoms: C_8  and  C_9
REMARK    7  A    between atoms: C_11  and  C_12
REMARK    8  A    between atoms: C_20  and  C_21
REMARK    9  A    between atoms: C_24  and  C_25
REMARK   10  A    between atoms: C_25  and  C_26
REMARK   11  A    between atoms: C_26  and  C_27
REMARK   12  A    between atoms: C_27  and  O_29
REMARK                            x       y       z     vdW  Elec       q    Type
REMARK                         _______ _______ _______ _____ _____    ______ ____
ROOT
ATOM      1  O   UNL     1       3.039   4.323  19.355  0.00  0.00    +0.000 OA
ENDROOT
BRANCH   1   4
ATOM      2  C   UNL     1       6.132   5.382  17.730  0.00  0.00    +0.000 A 
ATOM      3  C   UNL     1       5.053   5.238  18.627  0.00  0.00    +0.000 A 
ATOM      4  C   UNL     1       3.987   4.378  18.368  0.00  0.00    +0.000 A 
ATOM      5  C   UNL     1       3.974   3.662  17.177  0.00  0.00    +0.000 A 
ATOM      6  C   UNL     1       5.009   3.826  16.253  0.00  0.00    +0.000 A 
ATOM      7  C   UNL     1       6.090   4.692  16.502  0.00  0.00    +0.000 A 
BRANCH   2   9
ATOM      8  C   UNL     1       7.982   5.746  19.421  0.00  0.00    +0.000 C 
ATOM      9  C   UNL     1       7.279   6.260  18.174  0.00  0.00    +0.000 C 
ENDBRANCH   2   9
BRANCH   7  10
ATOM     10  C   UNL     1       7.164   4.794  15.440  0.00  0.00    +0.000 C 
BRANCH  10  11
ATOM     11  C   UNL     1       6.641   4.356  14.074  0.00  0.00    +0.000 C 
BRANCH  11  12
ATOM     12  C   UNL     1       7.475   4.907  12.943  0.00  0.00    +0.000 C 
ATOM     13  O   UNL     1       7.376   4.600  11.770  0.00  0.00    +0.000 OA
BRANCH  12  14
ATOM     14  O   UNL     1       8.387   5.809  13.385  0.00  0.00    +0.000 OA
ATOM     15  H   UNL     1       9.306   5.602  13.124  0.00  0.00    +0.000 HD
ENDBRANCH  12  14
ENDBRANCH  11  12
ENDBRANCH  10  11
ENDBRANCH   7  10
ENDBRANCH   1   4
BRANCH   1  16
ATOM     16  C   UNL     1       3.059   5.382  20.313  0.00  0.00    +0.000 C 
BRANCH  16  17
ATOM     17  C   UNL     1       1.623   5.808  20.605  0.00  0.00    +0.000 C 
BRANCH  17  18
ATOM     18  C   UNL     1       1.446   7.271  20.426  0.00  0.00    +0.000 A 
ATOM     19  N   UNL     1       0.801   8.035  21.373  0.00  0.00    +0.000 NA
ATOM     20  C   UNL     1       0.807   9.254  20.866  0.00  0.00    +0.000 A 
ATOM     21  O   UNL     1       1.414   9.343  19.640  0.00  0.00    +0.000 OA
ATOM     22  C   UNL     1       1.824   8.070  19.369  0.00  0.00    +0.000 A 
ATOM     23  C   UNL     1       2.524   7.847  18.093  0.00  0.00    +0.000 C 
BRANCH  20  24
ATOM     24  C   UNL     1       0.265  10.496  21.412  0.00  0.00    +0.000 A 
ATOM     25  C   UNL     1       0.664  11.733  20.876  0.00  0.00    +0.000 A 
ATOM     26  C   UNL     1       0.165  12.931  21.397  0.00  0.00    +0.000 A 
ATOM     27  C   UNL     1      -0.735  12.894  22.458  0.00  0.00    +0.000 A 
ATOM     28  F   UNL     1      -1.207  14.041  22.962  0.00  0.00    +0.000 F 
ATOM     29  C   UNL     1      -1.150  11.687  23.001  0.00  0.00    +0.000 A 
ATOM     30  C   UNL     1      -0.652  10.490  22.477  0.00  0.00    +0.000 A 
ENDBRANCH  20  24
ENDBRANCH  17  18
ENDBRANCH  16  17
ENDBRANCH   1  16
TORSDOF 10
ENDMDL
