MODEL 1
REMARK VINA RESULT:      -6.1      0.000      0.000
REMARK  Name = 
REMARK  9 active torsions:
REMARK  status: ('A' for Active; 'I' for Inactive)
REMARK    1  A    between atoms: C_1  and  C_2
REMARK    2  A    between atoms: C_2  and  C_3
REMARK    3  A    between atoms: C_2  and  C_4
REMARK    4  A    between atoms: C_2  and  N_5
REMARK    5  A    between atoms: C_12  and  N_13
REMARK    6  A    between atoms: C_18  and  N_19
REMARK    7  A    between atoms: C_24  and  C_25
REMARK    8  A    between atoms: C_25  and  O_26
REMARK    9  A    between atoms: C_27  and  C_28
REMARK                            x       y       z     vdW  Elec       q    Type
REMARK                         _______ _______ _______ _____ _____    ______ ____
ROOT
ATOM      1  N   UNL     1      -5.684  13.402  22.784  0.00  0.00    +0.000 N 
ATOM      2  C   UNL     1      -4.705  13.274  23.772  0.00  0.00    +0.000 C 
ATOM      3  O   UNL     1      -4.771  13.540  24.962  0.00  0.00    +0.000 OA
ATOM      4  C   UNL     1      -3.459  12.729  23.116  0.00  0.00    +0.000 C 
ATOM      5  C   UNL     1      -3.821  12.660  21.664  0.00  0.00    +0.000 A 
ATOM      6  C   UNL     1      -5.129  13.088  21.523  0.00  0.00    +0.000 A 
ATOM      7  N   UNL     1      -5.737  13.181  20.345  0.00  0.00    +0.000 NA
ATOM      8  C   UNL     1      -5.040  12.772  19.262  0.00  0.00    +0.000 A 
ATOM      9  C   UNL     1      -3.698  12.275  19.295  0.00  0.00    +0.000 A 
ATOM     10  C   UNL     1      -2.934  11.817  18.191  0.00  0.00    +0.000 A 
ATOM     11  N   UNL     1      -3.490  11.724  16.909  0.00  0.00    +0.000 N 
ATOM     12  N   UNL     1      -1.656  11.365  18.277  0.00  0.00    +0.000 NA
ATOM     13  C   UNL     1      -1.026  11.345  19.471  0.00  0.00    +0.000 A 
ATOM     14  C   UNL     1      -1.697  11.827  20.599  0.00  0.00    +0.000 A 
ATOM     15  C   UNL     1      -3.058  12.252  20.552  0.00  0.00    +0.000 A 
ATOM     16  H   UNL     1      -3.934  12.603  16.647  0.00  0.00    +0.000 HD
ATOM     17  H   UNL     1      -2.748  11.455  16.268  0.00  0.00    +0.000 HD
ENDROOT
BRANCH  13  18
ATOM     18  N   UNL     1       0.282  10.870  19.526  0.00  0.00    +0.000 N 
ATOM     19  C   UNL     1       1.407  11.766  19.232  0.00  0.00    +0.000 C 
ATOM     20  C   UNL     1       2.178  11.355  17.973  0.00  0.00    +0.000 C 
ATOM     21  C   UNL     1       2.458   9.856  17.869  0.00  0.00    +0.000 C 
ATOM     22  C   UNL     1       1.199   9.052  18.139  0.00  0.00    +0.000 C 
ATOM     23  C   UNL     1       0.574   9.421  19.488  0.00  0.00    +0.000 C 
BRANCH  23  24
ATOM     24  C   UNL     1       1.456   9.010  20.692  0.00  0.00    +0.000 C 
BRANCH  24  25
ATOM     25  O   UNL     1       1.873   7.653  20.586  0.00  0.00    +0.000 OA
ATOM     26  H   UNL     1       2.708   7.653  20.081  0.00  0.00    +0.000 HD
ENDBRANCH  24  25
ENDBRANCH  23  24
ENDBRANCH  13  18
BRANCH   1  28
ATOM     27  C   UNL     1      -7.702  13.449  24.185  0.00  0.00    +0.000 C 
ATOM     28  C   UNL     1      -6.992  14.064  22.966  0.00  0.00    +0.000 C 
ATOM     29  C   UNL     1      -7.915  13.873  21.736  0.00  0.00    +0.000 C 
ATOM     30  C   UNL     1      -6.854  15.591  23.142  0.00  0.00    +0.000 C 
ENDBRANCH   1  28
BRANCH   8  31
ATOM     31  N   UNL     1      -5.745  12.928  18.063  0.00  0.00    +0.000 N 
ATOM     32  H   UNL     1      -5.094  12.711  17.310  0.00  0.00    +0.000 HD
ATOM     33  H   UNL     1      -6.101  13.879  17.990  0.00  0.00    +0.000 HD
ENDBRANCH   8  31
BRANCH  14  34
ATOM     34  C   UNL     1      -0.979  11.975  21.834  0.00  0.00    +0.000 C 
ATOM     35  N   UNL     1      -0.358  12.112  22.805  0.00  0.00    +0.000 NA
ENDBRANCH  14  34
TORSDOF 6
ENDMDL
MODEL 2
REMARK VINA RESULT:      -5.9      1.585      2.000
REMARK  Name = 
REMARK  9 active torsions:
REMARK  status: ('A' for Active; 'I' for Inactive)
REMARK    1  A    between atoms: C_1  and  C_2
REMARK    2  A    between atoms: C_2  and  C_3
REMARK    3  A    between atoms: C_2  and  C_4
REMARK    4  A    between atoms: C_2  and  N_5
REMARK    5  A    between atoms: C_12  and  N_13
REMARK    6  A    between atoms: C_18  and  N_19
REMARK    7  A    between atoms: C_24  and  C_25
REMARK    8  A    between atoms: C_25  and  O_26
REMARK    9  A    between atoms: C_27  and  C_28
REMARK                            x       y       z     vdW  Elec       q    Type
REMARK                         _______ _______ _______ _____ _____    ______ ____
ROOT
ATOM      1  N   UNL     1      -5.799  13.983  20.686  0.00  0.00    +0.000 N 
ATOM      2  C   UNL     1      -4.939  14.292  21.742  0.00  0.00    +0.000 C 
ATOM      3  O   UNL     1      -5.106  15.067  22.671  0.00  0.00    +0.000 OA
ATOM      4  C   UNL     1      -3.678  13.482  21.560  0.00  0.00    +0.000 C 
ATOM      5  C   UNL     1      -3.894  12.775  20.257  0.00  0.00    +0.000 A 
ATOM      6  C   UNL     1      -5.144  13.123  19.777  0.00  0.00    +0.000 A 
ATOM      7  N   UNL     1      -5.619  12.689  18.614  0.00  0.00    +0.000 NA
ATOM      8  C   UNL     1      -4.848  11.820  17.924  0.00  0.00    +0.000 A 
ATOM      9  C   UNL     1      -3.559  11.361  18.343  0.00  0.00    +0.000 A 
ATOM     10  C   UNL     1      -2.724  10.437  17.663  0.00  0.00    +0.000 A 
ATOM     11  N   UNL     1      -3.151   9.789  16.498  0.00  0.00    +0.000 N 
ATOM     12  N   UNL     1      -1.499  10.044  18.102  0.00  0.00    +0.000 NA
ATOM     13  C   UNL     1      -0.998  10.550  19.249  0.00  0.00    +0.000 A 
ATOM     14  C   UNL     1      -1.742  11.503  19.951  0.00  0.00    +0.000 A 
ATOM     15  C   UNL     1      -3.054  11.892  19.548  0.00  0.00    +0.000 A 
ATOM     16  H   UNL     1      -3.497  10.466  15.819  0.00  0.00    +0.000 HD
ATOM     17  H   UNL     1      -2.370   9.244  16.143  0.00  0.00    +0.000 HD
ENDROOT
BRANCH  13  18
ATOM     18  N   UNL     1       0.257  10.120  19.674  0.00  0.00    +0.000 N 
ATOM     19  C   UNL     1       1.429  10.295  18.808  0.00  0.00    +0.000 C 
ATOM     20  C   UNL     1       2.032   8.962  18.352  0.00  0.00    +0.000 C 
ATOM     21  C   UNL     1       2.155   7.916  19.459  0.00  0.00    +0.000 C 
ATOM     22  C   UNL     1       0.856   7.799  20.237  0.00  0.00    +0.000 C 
ATOM     23  C   UNL     1       0.402   9.155  20.784  0.00  0.00    +0.000 C 
BRANCH  23  24
ATOM     24  C   UNL     1       1.353   9.713  21.871  0.00  0.00    +0.000 C 
BRANCH  24  25
ATOM     25  O   UNL     1       0.672   9.889  23.110  0.00  0.00    +0.000 OA
ATOM     26  H   UNL     1       0.671   9.022  23.555  0.00  0.00    +0.000 HD
ENDBRANCH  24  25
ENDBRANCH  23  24
ENDBRANCH  13  18
BRANCH   1  28
ATOM     27  C   UNL     1      -7.896  14.791  21.678  0.00  0.00    +0.000 C 
ATOM     28  C   UNL     1      -7.064  14.686  20.389  0.00  0.00    +0.000 C 
ATOM     29  C   UNL     1      -7.915  13.928  19.338  0.00  0.00    +0.000 C 
ATOM     30  C   UNL     1      -6.827  16.088  19.789  0.00  0.00    +0.000 C 
ENDBRANCH   1  28
BRANCH   8  31
ATOM     31  N   UNL     1      -5.413  11.435  16.701  0.00  0.00    +0.000 N 
ATOM     32  H   UNL     1      -4.693  10.922  16.195  0.00  0.00    +0.000 HD
ATOM     33  H   UNL     1      -5.721  12.257  16.187  0.00  0.00    +0.000 HD
ENDBRANCH   8  31
BRANCH  14  34
ATOM     34  C   UNL     1      -1.146  12.176  21.070  0.00  0.00    +0.000 C 
ATOM     35  N   UNL     1      -0.673  12.677  22.005  0.00  0.00    +0.000 NA
ENDBRANCH  14  34
TORSDOF 6
ENDMDL
MODEL 3
REMARK VINA RESULT:      -5.7      3.116      3.692
REMARK  Name = 
REMARK  9 active torsions:
REMARK  status: ('A' for Active; 'I' for Inactive)
REMARK    1  A    between atoms: C_1  and  C_2
REMARK    2  A    between atoms: C_2  and  C_3
REMARK    3  A    between atoms: C_2  and  C_4
REMARK    4  A    between atoms: C_2  and  N_5
REMARK    5  A    between atoms: C_12  and  N_13
REMARK    6  A    between atoms: C_18  and  N_19
REMARK    7  A    between atoms: C_24  and  C_25
REMARK    8  A    between atoms: C_25  and  O_26
REMARK    9  A    between atoms: C_27  and  C_28
REMARK                            x       y       z     vdW  Elec       q    Type
REMARK                         _______ _______ _______ _____ _____    ______ ____
ROOT
ATOM      1  N   UNL     1      -3.863  13.547  23.326  0.00  0.00    +0.000 N 
ATOM      2  C   UNL     1      -3.042  14.292  24.176  0.00  0.00    +0.000 C 
ATOM      3  O   UNL     1      -3.257  14.678  25.314  0.00  0.00    +0.000 OA
ATOM      4  C   UNL     1      -1.759  14.583  23.434  0.00  0.00    +0.000 C 
ATOM      5  C   UNL     1      -1.996  14.007  22.072  0.00  0.00    +0.000 A 
ATOM      6  C   UNL     1      -3.254  13.433  22.057  0.00  0.00    +0.000 A 
ATOM      7  N   UNL     1      -3.780  12.868  20.975  0.00  0.00    +0.000 NA
ATOM      8  C   UNL     1      -2.999  12.813  19.873  0.00  0.00    +0.000 A 
ATOM      9  C   UNL     1      -1.671  13.338  19.787  0.00  0.00    +0.000 A 
ATOM     10  C   UNL     1      -0.809  13.287  18.661  0.00  0.00    +0.000 A 
ATOM     11  N   UNL     1      -1.171  12.600  17.496  0.00  0.00    +0.000 N 
ATOM     12  N   UNL     1       0.444  13.813  18.630  0.00  0.00    +0.000 NA
ATOM     13  C   UNL     1       0.936  14.449  19.715  0.00  0.00    +0.000 A 
ATOM     14  C   UNL     1       0.127  14.583  20.847  0.00  0.00    +0.000 A 
ATOM     15  C   UNL     1      -1.168  13.990  20.931  0.00  0.00    +0.000 A 
ATOM     16  H   UNL     1      -2.093  12.897  17.178  0.00  0.00    +0.000 HD
ATOM     17  H   UNL     1      -0.447  12.764  16.802  0.00  0.00    +0.000 HD
ENDROOT
BRANCH  13  18
ATOM     18  N   UNL     1       2.226  14.971  19.651  0.00  0.00    +0.000 N 
ATOM     19  C   UNL     1       2.459  16.293  19.057  0.00  0.00    +0.000 C 
ATOM     20  C   UNL     1       3.304  16.227  17.780  0.00  0.00    +0.000 C 
ATOM     21  C   UNL     1       4.516  15.301  17.875  0.00  0.00    +0.000 C 
ATOM     22  C   UNL     1       4.121  13.953  18.452  0.00  0.00    +0.000 C 
ATOM     23  C   UNL     1       3.414  14.103  19.802  0.00  0.00    +0.000 C 
BRANCH  23  24
ATOM     24  C   UNL     1       4.346  14.644  20.913  0.00  0.00    +0.000 C 
BRANCH  24  25
ATOM     25  O   UNL     1       3.818  14.370  22.207  0.00  0.00    +0.000 OA
ATOM     26  H   UNL     1       4.310  13.604  22.556  0.00  0.00    +0.000 HD
ENDBRANCH  24  25
ENDBRANCH  23  24
ENDBRANCH  13  18
BRANCH   1  28
ATOM     27  C   UNL     1      -5.338  12.191  24.750  0.00  0.00    +0.000 C 
ATOM     28  C   UNL     1      -5.276  13.207  23.596  0.00  0.00    +0.000 C 
ATOM     29  C   UNL     1      -5.963  12.565  22.365  0.00  0.00    +0.000 C 
ATOM     30  C   UNL     1      -6.122  14.453  23.935  0.00  0.00    +0.000 C 
ENDBRANCH   1  28
BRANCH   8  31
ATOM     31  N   UNL     1      -3.640  12.227  18.774  0.00  0.00    +0.000 N 
ATOM     32  H   UNL     1      -3.877  11.275  19.048  0.00  0.00    +0.000 HD
ATOM     33  H   UNL     1      -3.025  12.244  17.964  0.00  0.00    +0.000 HD
ENDBRANCH   8  31
BRANCH  14  34
ATOM     34  C   UNL     1       0.572  15.406  21.936  0.00  0.00    +0.000 C 
ATOM     35  N   UNL     1       0.982  16.058  22.806  0.00  0.00    +0.000 NA
ENDBRANCH  14  34
TORSDOF 6
ENDMDL
MODEL 4
REMARK VINA RESULT:      -5.6      3.885      9.097
REMARK  Name = 
REMARK  9 active torsions:
REMARK  status: ('A' for Active; 'I' for Inactive)
REMARK    1  A    between atoms: C_1  and  C_2
REMARK    2  A    between atoms: C_2  and  C_3
REMARK    3  A    between atoms: C_2  and  C_4
REMARK    4  A    between atoms: C_2  and  N_5
REMARK    5  A    between atoms: C_12  and  N_13
REMARK    6  A    between atoms: C_18  and  N_19
REMARK    7  A    between atoms: C_24  and  C_25
REMARK    8  A    between atoms: C_25  and  O_26
REMARK    9  A    between atoms: C_27  and  C_28
REMARK                            x       y       z     vdW  Elec       q    Type
REMARK                         _______ _______ _______ _____ _____    ______ ____
ROOT
ATOM      1  N   UNL     1       3.032   4.803  19.892  0.00  0.00    +0.000 N 
ATOM      2  C   UNL     1       2.134   4.680  20.954  0.00  0.00    +0.000 C 
ATOM      3  O   UNL     1       1.904   3.713  21.662  0.00  0.00    +0.000 OA
ATOM      4  C   UNL     1       1.428   6.005  21.114  0.00  0.00    +0.000 C 
ATOM      5  C   UNL     1       1.958   6.830  19.981  0.00  0.00    +0.000 A 
ATOM      6  C   UNL     1       2.877   6.068  19.284  0.00  0.00    +0.000 A 
ATOM      7  N   UNL     1       3.501   6.504  18.193  0.00  0.00    +0.000 NA
ATOM      8  C   UNL     1       3.250   7.776  17.813  0.00  0.00    +0.000 A 
ATOM      9  C   UNL     1       2.350   8.666  18.481  0.00  0.00    +0.000 A 
ATOM     10  C   UNL     1       2.070  10.012  18.130  0.00  0.00    +0.000 A 
ATOM     11  N   UNL     1       2.756  10.652  17.091  0.00  0.00    +0.000 N 
ATOM     12  N   UNL     1       1.196  10.811  18.795  0.00  0.00    +0.000 NA
ATOM     13  C   UNL     1       0.514  10.330  19.857  0.00  0.00    +0.000 A 
ATOM     14  C   UNL     1       0.700   8.997  20.234  0.00  0.00    +0.000 A 
ATOM     15  C   UNL     1       1.654   8.151  19.594  0.00  0.00    +0.000 A 
ATOM     16  H   UNL     1       2.726  10.089  16.242  0.00  0.00    +0.000 HD
ATOM     17  H   UNL     1       2.340  11.571  16.965  0.00  0.00    +0.000 HD
ENDROOT
BRANCH  13  18
ATOM     18  N   UNL     1      -0.371  11.178  20.519  0.00  0.00    +0.000 N 
ATOM     19  C   UNL     1      -1.609  11.613  19.862  0.00  0.00    +0.000 C 
ATOM     20  C   UNL     1      -1.642  13.123  19.601  0.00  0.00    +0.000 C 
ATOM     21  C   UNL     1      -1.160  13.974  20.775  0.00  0.00    +0.000 C 
ATOM     22  C   UNL     1       0.156  13.447  21.319  0.00  0.00    +0.000 C 
ATOM     23  C   UNL     1       0.057  11.966  21.695  0.00  0.00    +0.000 C 
BRANCH  23  24
ATOM     24  C   UNL     1      -0.887  11.711  22.895  0.00  0.00    +0.000 C 
BRANCH  24  25
ATOM     25  O   UNL     1      -0.489  10.557  23.628  0.00  0.00    +0.000 OA
ATOM     26  H   UNL     1      -0.657  10.749  24.569  0.00  0.00    +0.000 HD
ENDBRANCH  24  25
ENDBRANCH  23  24
ENDBRANCH  13  18
BRANCH   1  28
ATOM     27  C   UNL     1       3.003   3.126  18.096  0.00  0.00    +0.000 C 
ATOM     28  C   UNL     1       3.792   3.687  19.291  0.00  0.00    +0.000 C 
ATOM     29  C   UNL     1       4.012   2.528  20.296  0.00  0.00    +0.000 C 
ATOM     30  C   UNL     1       5.205   4.116  18.845  0.00  0.00    +0.000 C 
ENDBRANCH   1  28
BRANCH   8  31
ATOM     31  N   UNL     1       3.928   8.143  16.643  0.00  0.00    +0.000 N 
ATOM     32  H   UNL     1       4.381   7.302  16.291  0.00  0.00    +0.000 HD
ATOM     33  H   UNL     1       4.603   8.876  16.848  0.00  0.00    +0.000 HD
ENDBRANCH   8  31
BRANCH  14  34
ATOM     34  C   UNL     1      -0.146   8.427  21.244  0.00  0.00    +0.000 C 
ATOM     35  N   UNL     1      -0.830   8.013  22.086  0.00  0.00    +0.000 NA
ENDBRANCH  14  34
TORSDOF 6
ENDMDL
MODEL 5
REMARK VINA RESULT:      -5.6      4.399      8.289
REMARK  Name = 
REMARK  9 active torsions:
REMARK  status: ('A' for Active; 'I' for Inactive)
REMARK    1  A    between atoms: C_1  and  C_2
REMARK    2  A    between atoms: C_2  and  C_3
REMARK    3  A    between atoms: C_2  and  C_4
REMARK    4  A    between atoms: C_2  and  N_5
REMARK    5  A    between atoms: C_12  and  N_13
REMARK    6  A    between atoms: C_18  and  N_19
REMARK    7  A    between atoms: C_24  and  C_25
REMARK    8  A    between atoms: C_25  and  O_26
REMARK    9  A    between atoms: C_27  and  C_28
REMARK                            x       y       z     vdW  Elec       q    Type
REMARK                         _______ _______ _______ _____ _____    ______ ____
ROOT
ATOM      1  N   UNL     1       2.032   7.576  18.981  0.00  0.00    +0.000 N 
ATOM      2  C   UNL     1       2.660   8.363  18.014  0.00  0.00    +0.000 C 
ATOM      3  O   UNL     1       3.385   8.021  17.093  0.00  0.00    +0.000 OA
ATOM      4  C   UNL     1       2.299   9.803  18.289  0.00  0.00    +0.000 C 
ATOM      5  C   UNL     1       1.492   9.734  19.549  0.00  0.00    +0.000 A 
ATOM      6  C   UNL     1       1.387   8.407  19.924  0.00  0.00    +0.000 A 
ATOM      7  N   UNL     1       0.760   8.013  21.029  0.00  0.00    +0.000 NA
ATOM      8  C   UNL     1       0.156   8.973  21.764  0.00  0.00    +0.000 A 
ATOM      9  C   UNL     1       0.167  10.369  21.451  0.00  0.00    +0.000 A 
ATOM     10  C   UNL     1      -0.466  11.408  22.180  0.00  0.00    +0.000 A 
ATOM     11  N   UNL     1      -1.279  11.131  23.286  0.00  0.00    +0.000 N 
ATOM     12  N   UNL     1      -0.415  12.723  21.844  0.00  0.00    +0.000 NA
ATOM     13  C   UNL     1       0.287  13.116  20.759  0.00  0.00    +0.000 A 
ATOM     14  C   UNL     1       0.980  12.155  20.016  0.00  0.00    +0.000 A 
ATOM     15  C   UNL     1       0.897  10.761  20.310  0.00  0.00    +0.000 A 
ATOM     16  H   UNL     1      -0.790  10.530  23.948  0.00  0.00    +0.000 HD
ATOM     17  H   UNL     1      -1.557  12.018  23.697  0.00  0.00    +0.000 HD
ENDROOT
BRANCH  13  18
ATOM     18  N   UNL     1       0.315  14.471  20.438  0.00  0.00    +0.000 N 
ATOM     19  C   UNL     1       1.139  15.399  21.222  0.00  0.00    +0.000 C 
ATOM     20  C   UNL     1       0.303  16.434  21.983  0.00  0.00    +0.000 C 
ATOM     21  C   UNL     1      -0.826  17.055  21.163  0.00  0.00    +0.000 C 
ATOM     22  C   UNL     1      -1.631  15.981  20.452  0.00  0.00    +0.000 C 
ATOM     23  C   UNL     1      -0.736  15.081  19.596  0.00  0.00    +0.000 C 
BRANCH  23  24
ATOM     24  C   UNL     1      -0.105  15.828  18.395  0.00  0.00    +0.000 C 
BRANCH  24  25
ATOM     25  O   UNL     1      -0.969  16.855  17.916  0.00  0.00    +0.000 OA
ATOM     26  H   UNL     1      -0.894  17.600  18.539  0.00  0.00    +0.000 HD
ENDBRANCH  24  25
ENDBRANCH  23  24
ENDBRANCH  13  18
BRANCH   1  28
ATOM     27  C   UNL     1       3.774   5.884  19.357  0.00  0.00    +0.000 C 
ATOM     28  C   UNL     1       2.265   6.130  19.181  0.00  0.00    +0.000 C 
ATOM     29  C   UNL     1       1.789   5.293  17.968  0.00  0.00    +0.000 C 
ATOM     30  C   UNL     1       1.488   5.574  20.393  0.00  0.00    +0.000 C 
ENDBRANCH   1  28
BRANCH   8  31
ATOM     31  N   UNL     1      -0.456   8.475  22.921  0.00  0.00    +0.000 N 
ATOM     32  H   UNL     1       0.254   7.941  23.420  0.00  0.00    +0.000 HD
ATOM     33  H   UNL     1      -1.255   7.898  22.671  0.00  0.00    +0.000 HD
ENDBRANCH   8  31
BRANCH  14  34
ATOM     34  C   UNL     1       1.869  12.579  18.972  0.00  0.00    +0.000 C 
ATOM     35  N   UNL     1       2.570  12.972  18.134  0.00  0.00    +0.000 NA
ENDBRANCH  14  34
TORSDOF 6
ENDMDL
MODEL 6
REMARK VINA RESULT:      -5.6      2.594      3.039
REMARK  Name = 
REMARK  9 active torsions:
REMARK  status: ('A' for Active; 'I' for Inactive)
REMARK    1  A    between atoms: C_1  and  C_2
REMARK    2  A    between atoms: C_2  and  C_3
REMARK    3  A    between atoms: C_2  and  C_4
REMARK    4  A    between atoms: C_2  and  N_5
REMARK    5  A    between atoms: C_12  and  N_13
REMARK    6  A    between atoms: C_18  and  N_19
REMARK    7  A    between atoms: C_24  and  C_25
REMARK    8  A    between atoms: C_25  and  O_26
REMARK    9  A    between atoms: C_27  and  C_28
REMARK                            x       y       z     vdW  Elec       q    Type
REMARK                         _______ _______ _______ _____ _____    ______ ____
ROOT
ATOM      1  N   UNL     1      -5.401  13.244  22.218  0.00  0.00    +0.000 N 
ATOM      2  C   UNL     1      -4.760  14.116  23.101  0.00  0.00    +0.000 C 
ATOM      3  O   UNL     1      -5.189  14.636  24.119  0.00  0.00    +0.000 OA
ATOM      4  C   UNL     1      -3.364  14.353  22.579  0.00  0.00    +0.000 C 
ATOM      5  C   UNL     1      -3.335  13.602  21.283  0.00  0.00    +0.000 A 
ATOM      6  C   UNL     1      -4.563  12.990  21.110  0.00  0.00    +0.000 A 
ATOM      7  N   UNL     1      -4.871  12.276  20.032  0.00  0.00    +0.000 NA
ATOM      8  C   UNL     1      -3.897  12.108  19.111  0.00  0.00    +0.000 A 
ATOM      9  C   UNL     1      -2.580  12.661  19.205  0.00  0.00    +0.000 A 
ATOM     10  C   UNL     1      -1.522  12.496  18.275  0.00  0.00    +0.000 A 
ATOM     11  N   UNL     1      -1.653  11.657  17.162  0.00  0.00    +0.000 N 
ATOM     12  N   UNL     1      -0.290  13.055  18.408  0.00  0.00    +0.000 NA
ATOM     13  C   UNL     1      -0.016  13.838  19.473  0.00  0.00    +0.000 A 
ATOM     14  C   UNL     1      -1.024  14.087  20.409  0.00  0.00    +0.000 A 
ATOM     15  C   UNL     1      -2.307  13.469  20.328  0.00  0.00    +0.000 A 
ATOM     16  H   UNL     1      -2.501  11.881  16.643  0.00  0.00    +0.000 HD
ATOM     17  H   UNL     1      -0.813  11.755  16.599  0.00  0.00    +0.000 HD
ENDROOT
BRANCH  13  18
ATOM     18  N   UNL     1       1.259  14.390  19.583  0.00  0.00    +0.000 N 
ATOM     19  C   UNL     1       1.522  15.744  19.081  0.00  0.00    +0.000 C 
ATOM     20  C   UNL     1       2.508  15.760  17.908  0.00  0.00    +0.000 C 
ATOM     21  C   UNL     1       3.725  14.857  18.098  0.00  0.00    +0.000 C 
ATOM     22  C   UNL     1       3.304  13.473  18.561  0.00  0.00    +0.000 C 
ATOM     23  C   UNL     1       2.444  13.541  19.827  0.00  0.00    +0.000 C 
BRANCH  23  24
ATOM     24  C   UNL     1       3.230  14.045  21.062  0.00  0.00    +0.000 C 
BRANCH  24  25
ATOM     25  O   UNL     1       2.350  14.393  22.126  0.00  0.00    +0.000 OA
ATOM     26  H   UNL     1       1.537  13.870  22.001  0.00  0.00    +0.000 HD
ENDBRANCH  24  25
ENDBRANCH  23  24
ENDBRANCH  13  18
BRANCH   1  28
ATOM     27  C   UNL     1      -7.199  12.436  23.686  0.00  0.00    +0.000 C 
ATOM     28  C   UNL     1      -6.836  12.895  22.263  0.00  0.00    +0.000 C 
ATOM     29  C   UNL     1      -7.183  11.738  21.292  0.00  0.00    +0.000 C 
ATOM     30  C   UNL     1      -7.737  14.072  21.836  0.00  0.00    +0.000 C 
ENDBRANCH   1  28
BRANCH   8  31
ATOM     31  N   UNL     1      -4.314  11.367  17.998  0.00  0.00    +0.000 N 
ATOM     32  H   UNL     1      -5.247  11.018  18.212  0.00  0.00    +0.000 HD
ATOM     33  H   UNL     1      -3.660  10.608  17.820  0.00  0.00    +0.000 HD
ENDBRANCH   8  31
BRANCH  14  34
ATOM     34  C   UNL     1      -0.799  15.056  21.445  0.00  0.00    +0.000 C 
ATOM     35  N   UNL     1      -0.617  15.800  22.318  0.00  0.00    +0.000 NA
ENDBRANCH  14  34
TORSDOF 6
ENDMDL
MODEL 7
REMARK VINA RESULT:      -5.5     10.712     13.980
REMARK  Name = 
REMARK  9 active torsions:
REMARK  status: ('A' for Active; 'I' for Inactive)
REMARK    1  A    between atoms: C_1  and  C_2
REMARK    2  A    between atoms: C_2  and  C_3
REMARK    3  A    between atoms: C_2  and  C_4
REMARK    4  A    between atoms: C_2  and  N_5
REMARK    5  A    between atoms: C_12  and  N_13
REMARK    6  A    between atoms: C_18  and  N_19
REMARK    7  A    between atoms: C_24  and  C_25
REMARK    8  A    between atoms: C_25  and  O_26
REMARK    9  A    between atoms: C_27  and  C_28
REMARK                            x       y       z     vdW  Elec       q    Type
REMARK                         _______ _______ _______ _____ _____    ______ ____
ROOT
ATOM      1  N   UNL     1      10.366  12.599  20.060  0.00  0.00    +0.000 N 
ATOM      2  C   UNL     1       9.601  11.476  20.381  0.00  0.00    +0.000 C 
ATOM      3  O   UNL     1       9.476  10.427  19.768  0.00  0.00    +0.000 OA
ATOM      4  C   UNL     1       8.890  11.761  21.682  0.00  0.00    +0.000 C 
ATOM      5  C   UNL     1       9.266  13.178  21.991  0.00  0.00    +0.000 A 
ATOM      6  C   UNL     1      10.115  13.627  20.995  0.00  0.00    +0.000 A 
ATOM      7  N   UNL     1      10.597  14.866  20.959  0.00  0.00    +0.000 NA
ATOM      8  C   UNL     1      10.277  15.677  21.991  0.00  0.00    +0.000 A 
ATOM      9  C   UNL     1       9.442  15.306  23.093  0.00  0.00    +0.000 A 
ATOM     10  C   UNL     1       9.094  16.115  24.205  0.00  0.00    +0.000 A 
ATOM     11  N   UNL     1       9.640  17.393  24.376  0.00  0.00    +0.000 N 
ATOM     12  N   UNL     1       8.285  15.715  25.221  0.00  0.00    +0.000 NA
ATOM     13  C   UNL     1       7.743  14.478  25.206  0.00  0.00    +0.000 A 
ATOM     14  C   UNL     1       8.000  13.639  24.118  0.00  0.00    +0.000 A 
ATOM     15  C   UNL     1       8.891  14.008  23.066  0.00  0.00    +0.000 A 
ATOM     16  H   UNL     1       9.523  17.948  23.530  0.00  0.00    +0.000 HD
ATOM     17  H   UNL     1       9.192  17.816  25.185  0.00  0.00    +0.000 HD
ENDROOT
BRANCH  13  18
ATOM     18  N   UNL     1       6.923  14.098  26.266  0.00  0.00    +0.000 N 
ATOM     19  C   UNL     1       5.486  14.394  26.232  0.00  0.00    +0.000 C 
ATOM     20  C   UNL     1       5.058  15.378  27.325  0.00  0.00    +0.000 C 
ATOM     21  C   UNL     1       5.660  15.091  28.700  0.00  0.00    +0.000 C 
ATOM     22  C   UNL     1       7.157  14.861  28.596  0.00  0.00    +0.000 C 
ATOM     23  C   UNL     1       7.489  13.757  27.589  0.00  0.00    +0.000 C 
BRANCH  23  24
ATOM     24  C   UNL     1       7.003  12.360  28.046  0.00  0.00    +0.000 C 
BRANCH  24  25
ATOM     25  O   UNL     1       7.392  11.350  27.120  0.00  0.00    +0.000 OA
ATOM     26  H   UNL     1       6.572  10.960  26.767  0.00  0.00    +0.000 HD
ENDBRANCH  24  25
ENDBRANCH  23  24
ENDBRANCH  13  18
BRANCH   1  28
ATOM     27  C   UNL     1      10.070  13.287  17.719  0.00  0.00    +0.000 C 
ATOM     28  C   UNL     1      11.075  12.805  18.780  0.00  0.00    +0.000 C 
ATOM     29  C   UNL     1      11.721  11.497  18.258  0.00  0.00    +0.000 C 
ATOM     30  C   UNL     1      12.238  13.811  18.911  0.00  0.00    +0.000 C 
ENDBRANCH   1  28
BRANCH   8  31
ATOM     31  N   UNL     1      10.805  16.967  21.861  0.00  0.00    +0.000 N 
ATOM     32  H   UNL     1      10.997  17.301  22.803  0.00  0.00    +0.000 HD
ATOM     33  H   UNL     1      10.141  17.568  21.377  0.00  0.00    +0.000 HD
ENDBRANCH   8  31
BRANCH  14  34
ATOM     34  C   UNL     1       7.290  12.396  24.005  0.00  0.00    +0.000 C 
ATOM     35  N   UNL     1       6.675  11.414  23.937  0.00  0.00    +0.000 NA
ENDBRANCH  14  34
TORSDOF 6
ENDMDL
MODEL 8
REMARK VINA RESULT:      -5.5      9.078     12.221
REMARK  Name = 
REMARK  9 active torsions:
REMARK  status: ('A' for Active; 'I' for Inactive)
REMARK    1  A    between atoms: C_1  and  C_2
REMARK    2  A    between atoms: C_2  and  C_3
REMARK    3  A    between atoms: C_2  and  C_4
REMARK    4  A    between atoms: C_2  and  N_5
REMARK    5  A    between atoms: C_12  and  N_13
REMARK    6  A    between atoms: C_18  and  N_19
REMARK    7  A    between atoms: C_24  and  C_25
REMARK    8  A    between atoms: C_25  and  O_26
REMARK    9  A    between atoms: C_27  and  C_28
REMARK                            x       y       z     vdW  Elec       q    Type
REMARK                         _______ _______ _______ _____ _____    ______ ____
ROOT
ATOM      1  N   UNL     1       9.221  13.841  19.853  0.00  0.00    +0.000 N 
ATOM      2  C   UNL     1      10.029  13.079  20.699  0.00  0.00    +0.000 C 
ATOM      3  O   UNL     1      11.103  12.547  20.468  0.00  0.00    +0.000 OA
ATOM      4  C   UNL     1       9.336  12.989  22.037  0.00  0.00    +0.000 C 
ATOM      5  C   UNL     1       8.033  13.694  21.812  0.00  0.00    +0.000 A 
ATOM      6  C   UNL     1       8.009  14.153  20.508  0.00  0.00    +0.000 A 
ATOM      7  N   UNL     1       6.967  14.790  19.983  0.00  0.00    +0.000 NA
ATOM      8  C   UNL     1       5.925  15.039  20.807  0.00  0.00    +0.000 A 
ATOM      9  C   UNL     1       5.858  14.647  22.182  0.00  0.00    +0.000 A 
ATOM     10  C   UNL     1       4.797  14.902  23.087  0.00  0.00    +0.000 A 
ATOM     11  N   UNL     1       3.695  15.684  22.718  0.00  0.00    +0.000 N 
ATOM     12  N   UNL     1       4.780  14.496  24.384  0.00  0.00    +0.000 NA
ATOM     13  C   UNL     1       5.815  13.785  24.882  0.00  0.00    +0.000 A 
ATOM     14  C   UNL     1       6.877  13.452  24.036  0.00  0.00    +0.000 A 
ATOM     15  C   UNL     1       6.951  13.914  22.689  0.00  0.00    +0.000 A 
ATOM     16  H   UNL     1       3.294  15.345  21.844  0.00  0.00    +0.000 HD
ATOM     17  H   UNL     1       3.030  15.665  23.486  0.00  0.00    +0.000 HD
ENDROOT
BRANCH  13  18
ATOM     18  N   UNL     1       5.769  13.389  26.216  0.00  0.00    +0.000 N 
ATOM     19  C   UNL     1       6.619  14.052  27.213  0.00  0.00    +0.000 C 
ATOM     20  C   UNL     1       7.664  13.110  27.821  0.00  0.00    +0.000 C 
ATOM     21  C   UNL     1       7.124  11.731  28.197  0.00  0.00    +0.000 C 
ATOM     22  C   UNL     1       6.314  11.139  27.057  0.00  0.00    +0.000 C 
ATOM     23  C   UNL     1       5.196  12.085  26.610  0.00  0.00    +0.000 C 
BRANCH  23  24
ATOM     24  C   UNL     1       4.101  12.274  27.689  0.00  0.00    +0.000 C 
BRANCH  24  25
ATOM     25  O   UNL     1       3.325  11.090  27.848  0.00  0.00    +0.000 OA
ATOM     26  H   UNL     1       2.394  11.343  27.709  0.00  0.00    +0.000 HD
ENDBRANCH  24  25
ENDBRANCH  23  24
ENDBRANCH  13  18
BRANCH   1  28
ATOM     27  C   UNL     1       8.874  12.807  17.651  0.00  0.00    +0.000 C 
ATOM     28  C   UNL     1       9.444  14.022  18.403  0.00  0.00    +0.000 C 
ATOM     29  C   UNL     1      10.951  14.126  18.057  0.00  0.00    +0.000 C 
ATOM     30  C   UNL     1       8.811  15.325  17.872  0.00  0.00    +0.000 C 
ENDBRANCH   1  28
BRANCH   8  31
ATOM     31  N   UNL     1       4.862  15.689  20.167  0.00  0.00    +0.000 N 
ATOM     32  H   UNL     1       4.457  16.328  20.849  0.00  0.00    +0.000 HD
ATOM     33  H   UNL     1       4.182  15.006  19.841  0.00  0.00    +0.000 HD
ENDBRANCH   8  31
BRANCH  14  34
ATOM     34  C   UNL     1       7.893  12.551  24.504  0.00  0.00    +0.000 C 
ATOM     35  N   UNL     1       8.738  11.864  24.906  0.00  0.00    +0.000 NA
ENDBRANCH  14  34
TORSDOF 6
ENDMDL
MODEL 9
REMARK VINA RESULT:      -5.4      3.159      7.819
REMARK  Name = 
REMARK  9 active torsions:
REMARK  status: ('A' for Active; 'I' for Inactive)
REMARK    1  A    between atoms: C_1  and  C_2
REMARK    2  A    between atoms: C_2  and  C_3
REMARK    3  A    between atoms: C_2  and  C_4
REMARK    4  A    between atoms: C_2  and  N_5
REMARK    5  A    between atoms: C_12  and  N_13
REMARK    6  A    between atoms: C_18  and  N_19
REMARK    7  A    between atoms: C_24  and  C_25
REMARK    8  A    between atoms: C_25  and  O_26
REMARK    9  A    between atoms: C_27  and  C_28
REMARK                            x       y       z     vdW  Elec       q    Type
REMARK                         _______ _______ _______ _____ _____    ______ ____
ROOT
ATOM      1  N   UNL     1       2.264  14.970  19.696  0.00  0.00    +0.000 N 
ATOM      2  C   UNL     1       2.437  15.515  20.970  0.00  0.00    +0.000 C 
ATOM      3  O   UNL     1       3.426  16.041  21.457  0.00  0.00    +0.000 OA
ATOM      4  C   UNL     1       1.140  15.343  21.724  0.00  0.00    +0.000 C 
ATOM      5  C   UNL     1       0.275  14.572  20.774  0.00  0.00    +0.000 A 
ATOM      6  C   UNL     1       0.993  14.361  19.610  0.00  0.00    +0.000 A 
ATOM      7  N   UNL     1       0.514  13.669  18.580  0.00  0.00    +0.000 NA
ATOM      8  C   UNL     1      -0.756  13.220  18.682  0.00  0.00    +0.000 A 
ATOM      9  C   UNL     1      -1.602  13.414  19.820  0.00  0.00    +0.000 A 
ATOM     10  C   UNL     1      -2.944  12.979  19.965  0.00  0.00    +0.000 A 
ATOM     11  N   UNL     1      -3.628  12.361  18.911  0.00  0.00    +0.000 N 
ATOM     12  N   UNL     1      -3.701  13.181  21.075  0.00  0.00    +0.000 NA
ATOM     13  C   UNL     1      -3.176  13.822  22.142  0.00  0.00    +0.000 A 
ATOM     14  C   UNL     1      -1.843  14.238  22.094  0.00  0.00    +0.000 A 
ATOM     15  C   UNL     1      -1.042  14.093  20.922  0.00  0.00    +0.000 A 
ATOM     16  H   UNL     1      -3.081  11.587  18.534  0.00  0.00    +0.000 HD
ATOM     17  H   UNL     1      -4.535  12.063  19.261  0.00  0.00    +0.000 HD
ENDROOT
BRANCH  13  18
ATOM     18  N   UNL     1      -3.981  14.018  23.262  0.00  0.00    +0.000 N 
ATOM     19  C   UNL     1      -4.258  12.904  24.177  0.00  0.00    +0.000 C 
ATOM     20  C   UNL     1      -5.738  12.508  24.198  0.00  0.00    +0.000 C 
ATOM     21  C   UNL     1      -6.704  13.691  24.255  0.00  0.00    +0.000 C 
ATOM     22  C   UNL     1      -6.335  14.739  23.219  0.00  0.00    +0.000 C 
ATOM     23  C   UNL     1      -4.879  15.188  23.366  0.00  0.00    +0.000 C 
BRANCH  23  24
ATOM     24  C   UNL     1      -4.617  15.961  24.682  0.00  0.00    +0.000 C 
BRANCH  24  25
ATOM     25  O   UNL     1      -3.485  16.816  24.560  0.00  0.00    +0.000 OA
ATOM     26  H   UNL     1      -3.318  17.190  25.445  0.00  0.00    +0.000 HD
ENDBRANCH  24  25
ENDBRANCH  23  24
ENDBRANCH  13  18
BRANCH   1  28
ATOM     27  C   UNL     1       3.262  13.338  18.154  0.00  0.00    +0.000 C 
ATOM     28  C   UNL     1       3.341  14.772  18.705  0.00  0.00    +0.000 C 
ATOM     29  C   UNL     1       4.746  14.960  19.330  0.00  0.00    +0.000 C 
ATOM     30  C   UNL     1       3.267  15.793  17.550  0.00  0.00    +0.000 C 
ENDBRANCH   1  28
BRANCH   8  31
ATOM     31  N   UNL     1      -1.169  12.480  17.567  0.00  0.00    +0.000 N 
ATOM     32  H   UNL     1      -2.159  12.282  17.698  0.00  0.00    +0.000 HD
ATOM     33  H   UNL     1      -0.620  11.627  17.493  0.00  0.00    +0.000 HD
ENDBRANCH   8  31
BRANCH  14  34
ATOM     34  C   UNL     1      -1.225  14.759  23.281  0.00  0.00    +0.000 C 
ATOM     35  N   UNL     1      -0.771  15.171  24.267  0.00  0.00    +0.000 NA
ENDBRANCH  14  34
TORSDOF 6
ENDMDL
