MODEL 1
REMARK VINA RESULT:      -7.9      0.000      0.000
REMARK  Name = 
REMARK  6 active torsions:
REMARK  status: ('A' for Active; 'I' for Inactive)
REMARK    1  A    between atoms: C_1  and  C_2
REMARK    2  A    between atoms: C_2  and  C_4
REMARK    3  A    between atoms: C_5  and  O_6
REMARK    4  A    between atoms: N_9  and  C_10
REMARK    5  A    between atoms: C_10  and  C_11
REMARK    6  A    between atoms: C_17  and  C_18
REMARK                            x       y       z     vdW  Elec       q    Type
REMARK                         _______ _______ _______ _____ _____    ______ ____
ROOT
ATOM      1  C   UNL     1       5.650   5.441  17.059  0.00  0.00    +0.000 C 
ATOM      2  C   UNL     1       4.982   6.448  16.476  0.00  0.00    +0.000 C 
ATOM      3  C   UNL     1       3.939   6.899  17.432  0.00  0.00    +0.000 C 
ATOM      4  O   UNL     1       3.141   7.793  17.232  0.00  0.00    +0.000 OA
ATOM      5  N   UNL     1       4.065   6.102  18.554  0.00  0.00    +0.000 N 
ATOM      6  C   UNL     1       5.138   5.132  18.431  0.00  0.00    +0.000 C 
ENDROOT
BRANCH   6   7
ATOM      7  C   UNL     1       4.651   3.713  18.630  0.00  0.00    +0.000 A 
ATOM      8  C   UNL     1       4.929   2.974  19.792  0.00  0.00    +0.000 A 
ATOM      9  C   UNL     1       4.517   1.641  19.902  0.00  0.00    +0.000 A 
ATOM     10  C   UNL     1       3.822   1.032  18.857  0.00  0.00    +0.000 A 
ATOM     11  C   UNL     1       3.519   1.759  17.710  0.00  0.00    +0.000 A 
ATOM     12  C   UNL     1       3.931   3.084  17.607  0.00  0.00    +0.000 A 
ATOM     13  F   UNL     1       3.631   3.765  16.491  0.00  0.00    +0.000 F 
ENDBRANCH   6   7
BRANCH   1  15
ATOM     14  C   UNL     1       6.587   4.241  14.976  0.00  0.00    +0.000 C 
ATOM     15  C   UNL     1       6.776   4.785  16.366  0.00  0.00    +0.000 C 
ATOM     16  O   UNL     1       7.866   4.701  16.932  0.00  0.00    +0.000 OA
ENDBRANCH   1  15
BRANCH   2  17
ATOM     17  O   UNL     1       5.187   7.000  15.240  0.00  0.00    +0.000 OA
ATOM     18  H   UNL     1       5.991   6.580  14.863  0.00  0.00    +0.000 HD
ENDBRANCH   2  17
BRANCH   5  19
ATOM     19  C   UNL     1       3.222   6.211  19.733  0.00  0.00    +0.000 C 
BRANCH  19  20
ATOM     20  C   UNL     1       2.288   5.043  19.942  0.00  0.00    +0.000 A 
ATOM     21  C   UNL     1       1.480   4.591  18.888  0.00  0.00    +0.000 A 
ATOM     22  C   UNL     1       0.661   3.469  19.048  0.00  0.00    +0.000 A 
ATOM     23  C   UNL     1       0.643   2.789  20.262  0.00  0.00    +0.000 A 
ATOM     24  C   UNL     1       1.427   3.239  21.322  0.00  0.00    +0.000 A 
ATOM     25  C   UNL     1       2.239   4.365  21.167  0.00  0.00    +0.000 A 
ENDBRANCH  19  20
ENDBRANCH   5  19
TORSDOF 5
ENDMDL
MODEL 2
REMARK VINA RESULT:      -7.8      2.183      3.351
REMARK  Name = 
REMARK  6 active torsions:
REMARK  status: ('A' for Active; 'I' for Inactive)
REMARK    1  A    between atoms: C_1  and  C_2
REMARK    2  A    between atoms: C_2  and  C_4
REMARK    3  A    between atoms: C_5  and  O_6
REMARK    4  A    between atoms: N_9  and  C_10
REMARK    5  A    between atoms: C_10  and  C_11
REMARK    6  A    between atoms: C_17  and  C_18
REMARK                            x       y       z     vdW  Elec       q    Type
REMARK                         _______ _______ _______ _____ _____    ______ ____
ROOT
ATOM      1  C   UNL     1       6.152   5.643  17.983  0.00  0.00    +0.000 C 
ATOM      2  C   UNL     1       6.282   6.304  16.822  0.00  0.00    +0.000 C 
ATOM      3  C   UNL     1       4.929   6.770  16.426  0.00  0.00    +0.000 C 
ATOM      4  O   UNL     1       4.669   7.400  15.419  0.00  0.00    +0.000 OA
ATOM      5  N   UNL     1       4.060   6.340  17.411  0.00  0.00    +0.000 N 
ATOM      6  C   UNL     1       4.736   5.610  18.469  0.00  0.00    +0.000 C 
ENDROOT
BRANCH   6   7
ATOM      7  C   UNL     1       4.158   4.225  18.667  0.00  0.00    +0.000 A 
ATOM      8  C   UNL     1       4.292   3.206  17.709  0.00  0.00    +0.000 A 
ATOM      9  C   UNL     1       3.681   1.963  17.905  0.00  0.00    +0.000 A 
ATOM     10  C   UNL     1       2.933   1.720  19.057  0.00  0.00    +0.000 A 
ATOM     11  C   UNL     1       2.812   2.713  20.026  0.00  0.00    +0.000 A 
ATOM     12  C   UNL     1       3.422   3.947  19.825  0.00  0.00    +0.000 A 
ATOM     13  F   UNL     1       3.289   4.891  20.769  0.00  0.00    +0.000 F 
ENDBRANCH   6   7
BRANCH   1  15
ATOM     14  C   UNL     1       7.715   5.544  20.034  0.00  0.00    +0.000 C 
ATOM     15  C   UNL     1       7.333   5.069  18.658  0.00  0.00    +0.000 C 
ATOM     16  O   UNL     1       7.986   4.195  18.090  0.00  0.00    +0.000 OA
ENDBRANCH   1  15
BRANCH   2  17
ATOM     17  O   UNL     1       7.421   6.540  16.102  0.00  0.00    +0.000 OA
ATOM     18  H   UNL     1       7.395   7.480  15.815  0.00  0.00    +0.000 HD
ENDBRANCH   2  17
BRANCH   5  19
ATOM     19  C   UNL     1       2.629   6.583  17.402  0.00  0.00    +0.000 C 
BRANCH  19  20
ATOM     20  C   UNL     1       2.182   7.718  18.293  0.00  0.00    +0.000 A 
ATOM     21  C   UNL     1       1.911   8.980  17.741  0.00  0.00    +0.000 A 
ATOM     22  C   UNL     1       1.431  10.020  18.543  0.00  0.00    +0.000 A 
ATOM     23  C   UNL     1       1.217   9.809  19.902  0.00  0.00    +0.000 A 
ATOM     24  C   UNL     1       1.500   8.565  20.464  0.00  0.00    +0.000 A 
ATOM     25  C   UNL     1       1.988   7.527  19.667  0.00  0.00    +0.000 A 
ENDBRANCH  19  20
ENDBRANCH   5  19
TORSDOF 5
ENDMDL
MODEL 3
REMARK VINA RESULT:      -7.6      2.426      3.292
REMARK  Name = 
REMARK  6 active torsions:
REMARK  status: ('A' for Active; 'I' for Inactive)
REMARK    1  A    between atoms: C_1  and  C_2
REMARK    2  A    between atoms: C_2  and  C_4
REMARK    3  A    between atoms: C_5  and  O_6
REMARK    4  A    between atoms: N_9  and  C_10
REMARK    5  A    between atoms: C_10  and  C_11
REMARK    6  A    between atoms: C_17  and  C_18
REMARK                            x       y       z     vdW  Elec       q    Type
REMARK                         _______ _______ _______ _____ _____    ______ ____
ROOT
ATOM      1  C   UNL     1       5.597   5.883  18.405  0.00  0.00    +0.000 C 
ATOM      2  C   UNL     1       5.557   6.764  17.393  0.00  0.00    +0.000 C 
ATOM      3  C   UNL     1       4.155   7.237  17.276  0.00  0.00    +0.000 C 
ATOM      4  O   UNL     1       3.749   8.039  16.458  0.00  0.00    +0.000 OA
ATOM      5  N   UNL     1       3.435   6.583  18.258  0.00  0.00    +0.000 N 
ATOM      6  C   UNL     1       4.261   5.690  19.052  0.00  0.00    +0.000 C 
ENDROOT
BRANCH   6   7
ATOM      7  C   UNL     1       3.741   4.269  19.041  0.00  0.00    +0.000 A 
ATOM      8  C   UNL     1       3.992   3.380  17.982  0.00  0.00    +0.000 A 
ATOM      9  C   UNL     1       3.433   2.098  17.984  0.00  0.00    +0.000 A 
ATOM     10  C   UNL     1       2.619   1.687  19.040  0.00  0.00    +0.000 A 
ATOM     11  C   UNL     1       2.381   2.548  20.107  0.00  0.00    +0.000 A 
ATOM     12  C   UNL     1       2.941   3.822  20.100  0.00  0.00    +0.000 A 
ATOM     13  F   UNL     1       2.695   4.637  21.136  0.00  0.00    +0.000 F 
ENDBRANCH   6   7
BRANCH   1  15
ATOM     14  C   UNL     1       7.682   4.503  17.764  0.00  0.00    +0.000 C 
ATOM     15  C   UNL     1       6.869   5.241  18.793  0.00  0.00    +0.000 C 
ATOM     16  O   UNL     1       7.258   5.329  19.957  0.00  0.00    +0.000 OA
ENDBRANCH   1  15
BRANCH   2  17
ATOM     17  O   UNL     1       6.584   7.188  16.595  0.00  0.00    +0.000 OA
ATOM     18  H   UNL     1       6.341   6.971  15.667  0.00  0.00    +0.000 HD
ENDBRANCH   2  17
BRANCH   5  19
ATOM     19  C   UNL     1       2.011   6.758  18.483  0.00  0.00    +0.000 C 
BRANCH  19  20
ATOM     20  C   UNL     1       1.660   7.891  19.417  0.00  0.00    +0.000 A 
ATOM     21  C   UNL     1       1.355   9.160  18.899  0.00  0.00    +0.000 A 
ATOM     22  C   UNL     1       0.962  10.199  19.748  0.00  0.00    +0.000 A 
ATOM     23  C   UNL     1       0.870   9.981  21.119  0.00  0.00    +0.000 A 
ATOM     24  C   UNL     1       1.187   8.731  21.646  0.00  0.00    +0.000 A 
ATOM     25  C   UNL     1       1.589   7.693  20.802  0.00  0.00    +0.000 A 
ENDBRANCH  19  20
ENDBRANCH   5  19
TORSDOF 5
ENDMDL
MODEL 4
REMARK VINA RESULT:      -7.6      1.863      3.012
REMARK  Name = 
REMARK  6 active torsions:
REMARK  status: ('A' for Active; 'I' for Inactive)
REMARK    1  A    between atoms: C_1  and  C_2
REMARK    2  A    between atoms: C_2  and  C_4
REMARK    3  A    between atoms: C_5  and  O_6
REMARK    4  A    between atoms: N_9  and  C_10
REMARK    5  A    between atoms: C_10  and  C_11
REMARK    6  A    between atoms: C_17  and  C_18
REMARK                            x       y       z     vdW  Elec       q    Type
REMARK                         _______ _______ _______ _____ _____    ______ ____
ROOT
ATOM      1  C   UNL     1       6.300   5.579  17.881  0.00  0.00    +0.000 C 
ATOM      2  C   UNL     1       6.437   6.166  16.682  0.00  0.00    +0.000 C 
ATOM      3  C   UNL     1       5.089   6.618  16.256  0.00  0.00    +0.000 C 
ATOM      4  O   UNL     1       4.835   7.187  15.211  0.00  0.00    +0.000 OA
ATOM      5  N   UNL     1       4.216   6.259  17.265  0.00  0.00    +0.000 N 
ATOM      6  C   UNL     1       4.884   5.589  18.366  0.00  0.00    +0.000 C 
ENDROOT
BRANCH   6   7
ATOM      7  C   UNL     1       4.292   4.225  18.649  0.00  0.00    +0.000 A 
ATOM      8  C   UNL     1       3.883   3.830  19.934  0.00  0.00    +0.000 A 
ATOM      9  C   UNL     1       3.406   2.535  20.160  0.00  0.00    +0.000 A 
ATOM     10  C   UNL     1       3.330   1.620  19.110  0.00  0.00    +0.000 A 
ATOM     11  C   UNL     1       3.710   2.004  17.828  0.00  0.00    +0.000 A 
ATOM     12  C   UNL     1       4.183   3.294  17.609  0.00  0.00    +0.000 A 
ATOM     13  F   UNL     1       4.548   3.643  16.366  0.00  0.00    +0.000 F 
ENDBRANCH   6   7
BRANCH   1  15
ATOM     14  C   UNL     1       7.845   5.575  19.949  0.00  0.00    +0.000 C 
ATOM     15  C   UNL     1       7.475   5.037  18.593  0.00  0.00    +0.000 C 
ATOM     16  O   UNL     1       8.134   4.138  18.070  0.00  0.00    +0.000 OA
ENDBRANCH   1  15
BRANCH   2  17
ATOM     17  O   UNL     1       7.579   6.345  15.950  0.00  0.00    +0.000 OA
ATOM     18  H   UNL     1       8.223   6.816  16.526  0.00  0.00    +0.000 HD
ENDBRANCH   2  17
BRANCH   5  19
ATOM     19  C   UNL     1       2.786   6.514  17.239  0.00  0.00    +0.000 C 
BRANCH  19  20
ATOM     20  C   UNL     1       2.315   7.531  18.251  0.00  0.00    +0.000 A 
ATOM     21  C   UNL     1       1.957   8.823  17.835  0.00  0.00    +0.000 A 
ATOM     22  C   UNL     1       1.454   9.753  18.750  0.00  0.00    +0.000 A 
ATOM     23  C   UNL     1       1.303   9.400  20.088  0.00  0.00    +0.000 A 
ATOM     24  C   UNL     1       1.672   8.125  20.516  0.00  0.00    +0.000 A 
ATOM     25  C   UNL     1       2.183   7.198  19.605  0.00  0.00    +0.000 A 
ENDBRANCH  19  20
ENDBRANCH   5  19
TORSDOF 5
ENDMDL
MODEL 5
REMARK VINA RESULT:      -7.6      3.161      4.935
REMARK  Name = 
REMARK  6 active torsions:
REMARK  status: ('A' for Active; 'I' for Inactive)
REMARK    1  A    between atoms: C_1  and  C_2
REMARK    2  A    between atoms: C_2  and  C_4
REMARK    3  A    between atoms: C_5  and  O_6
REMARK    4  A    between atoms: N_9  and  C_10
REMARK    5  A    between atoms: C_10  and  C_11
REMARK    6  A    between atoms: C_17  and  C_18
REMARK                            x       y       z     vdW  Elec       q    Type
REMARK                         _______ _______ _______ _____ _____    ______ ____
ROOT
ATOM      1  C   UNL     1       2.560   4.306  18.449  0.00  0.00    +0.000 C 
ATOM      2  C   UNL     1       1.783   4.243  19.542  0.00  0.00    +0.000 C 
ATOM      3  C   UNL     1       1.734   5.605  20.128  0.00  0.00    +0.000 C 
ATOM      4  O   UNL     1       1.126   5.918  21.133  0.00  0.00    +0.000 OA
ATOM      5  N   UNL     1       2.510   6.411  19.315  0.00  0.00    +0.000 N 
ATOM      6  C   UNL     1       3.087   5.684  18.199  0.00  0.00    +0.000 C 
ENDROOT
BRANCH   6   7
ATOM      7  C   UNL     1       4.596   5.798  18.161  0.00  0.00    +0.000 A 
ATOM      8  C   UNL     1       5.420   5.250  19.158  0.00  0.00    +0.000 A 
ATOM      9  C   UNL     1       6.806   5.439  19.116  0.00  0.00    +0.000 A 
ATOM     10  C   UNL     1       7.384   6.175  18.081  0.00  0.00    +0.000 A 
ATOM     11  C   UNL     1       6.582   6.703  17.074  0.00  0.00    +0.000 A 
ATOM     12  C   UNL     1       5.205   6.511  17.120  0.00  0.00    +0.000 A 
ATOM     13  F   UNL     1       4.450   7.032  16.142  0.00  0.00    +0.000 F 
ENDBRANCH   6   7
BRANCH   1  15
ATOM     14  C   UNL     1       3.653   1.988  18.145  0.00  0.00    +0.000 C 
ATOM     15  C   UNL     1       2.792   3.105  17.621  0.00  0.00    +0.000 C 
ATOM     16  O   UNL     1       2.266   3.027  16.511  0.00  0.00    +0.000 OA
ENDBRANCH   1  15
BRANCH   2  17
ATOM     17  O   UNL     1       1.130   3.156  20.058  0.00  0.00    +0.000 OA
ATOM     18  H   UNL     1       0.203   3.431  20.235  0.00  0.00    +0.000 HD
ENDBRANCH   2  17
BRANCH   5  19
ATOM     19  C   UNL     1       2.734   7.828  19.542  0.00  0.00    +0.000 C 
BRANCH  19  20
ATOM     20  C   UNL     1       1.519   8.696  19.318  0.00  0.00    +0.000 A 
ATOM     21  C   UNL     1       0.796   9.191  20.415  0.00  0.00    +0.000 A 
ATOM     22  C   UNL     1      -0.290  10.051  20.223  0.00  0.00    +0.000 A 
ATOM     23  C   UNL     1      -0.661  10.425  18.935  0.00  0.00    +0.000 A 
ATOM     24  C   UNL     1       0.038   9.927  17.837  0.00  0.00    +0.000 A 
ATOM     25  C   UNL     1       1.117   9.060  18.026  0.00  0.00    +0.000 A 
ENDBRANCH  19  20
ENDBRANCH   5  19
TORSDOF 5
ENDMDL
MODEL 6
REMARK VINA RESULT:      -7.5      0.953      1.368
REMARK  Name = 
REMARK  6 active torsions:
REMARK  status: ('A' for Active; 'I' for Inactive)
REMARK    1  A    between atoms: C_1  and  C_2
REMARK    2  A    between atoms: C_2  and  C_4
REMARK    3  A    between atoms: C_5  and  O_6
REMARK    4  A    between atoms: N_9  and  C_10
REMARK    5  A    between atoms: C_10  and  C_11
REMARK    6  A    between atoms: C_17  and  C_18
REMARK                            x       y       z     vdW  Elec       q    Type
REMARK                         _______ _______ _______ _____ _____    ______ ____
ROOT
ATOM      1  C   UNL     1       5.673   5.435  16.781  0.00  0.00    +0.000 C 
ATOM      2  C   UNL     1       5.013   6.487  16.272  0.00  0.00    +0.000 C 
ATOM      3  C   UNL     1       4.038   6.935  17.297  0.00  0.00    +0.000 C 
ATOM      4  O   UNL     1       3.264   7.864  17.174  0.00  0.00    +0.000 OA
ATOM      5  N   UNL     1       4.191   6.091  18.381  0.00  0.00    +0.000 N 
ATOM      6  C   UNL     1       5.221   5.090  18.166  0.00  0.00    +0.000 C 
ENDROOT
BRANCH   6   7
ATOM      7  C   UNL     1       4.693   3.682  18.337  0.00  0.00    +0.000 A 
ATOM      8  C   UNL     1       3.975   3.016  17.328  0.00  0.00    +0.000 A 
ATOM      9  C   UNL     1       3.448   1.741  17.557  0.00  0.00    +0.000 A 
ATOM     10  C   UNL     1       3.630   1.115  18.790  0.00  0.00    +0.000 A 
ATOM     11  C   UNL     1       4.359   1.752  19.790  0.00  0.00    +0.000 A 
ATOM     12  C   UNL     1       4.882   3.020  19.557  0.00  0.00    +0.000 A 
ATOM     13  F   UNL     1       5.578   3.619  20.535  0.00  0.00    +0.000 F 
ENDBRANCH   6   7
BRANCH   1  15
ATOM     14  C   UNL     1       6.417   4.146  14.673  0.00  0.00    +0.000 C 
ATOM     15  C   UNL     1       6.737   4.767  16.006  0.00  0.00    +0.000 C 
ATOM     16  O   UNL     1       7.883   4.738  16.455  0.00  0.00    +0.000 OA
ENDBRANCH   1  15
BRANCH   2  17
ATOM     17  O   UNL     1       5.175   7.079  15.049  0.00  0.00    +0.000 OA
ATOM     18  H   UNL     1       5.664   7.920  15.194  0.00  0.00    +0.000 HD
ENDBRANCH   2  17
BRANCH   5  19
ATOM     19  C   UNL     1       3.415   6.183  19.606  0.00  0.00    +0.000 C 
BRANCH  19  20
ATOM     20  C   UNL     1       2.387   5.090  19.776  0.00  0.00    +0.000 A 
ATOM     21  C   UNL     1       1.608   4.680  18.683  0.00  0.00    +0.000 A 
ATOM     22  C   UNL     1       0.702   3.623  18.811  0.00  0.00    +0.000 A 
ATOM     23  C   UNL     1       0.566   2.966  20.030  0.00  0.00    +0.000 A 
ATOM     24  C   UNL     1       1.322   3.375  21.128  0.00  0.00    +0.000 A 
ATOM     25  C   UNL     1       2.222   4.437  21.005  0.00  0.00    +0.000 A 
ENDBRANCH  19  20
ENDBRANCH   5  19
TORSDOF 5
ENDMDL
MODEL 7
REMARK VINA RESULT:      -7.3      1.926      5.553
REMARK  Name = 
REMARK  6 active torsions:
REMARK  status: ('A' for Active; 'I' for Inactive)
REMARK    1  A    between atoms: C_1  and  C_2
REMARK    2  A    between atoms: C_2  and  C_4
REMARK    3  A    between atoms: C_5  and  O_6
REMARK    4  A    between atoms: N_9  and  C_10
REMARK    5  A    between atoms: C_10  and  C_11
REMARK    6  A    between atoms: C_17  and  C_18
REMARK                            x       y       z     vdW  Elec       q    Type
REMARK                         _______ _______ _______ _____ _____    ______ ____
ROOT
ATOM      1  C   UNL     1       4.374   6.584  17.323  0.00  0.00    +0.000 C 
ATOM      2  C   UNL     1       5.605   7.117  17.344  0.00  0.00    +0.000 C 
ATOM      3  C   UNL     1       6.521   6.136  16.709  0.00  0.00    +0.000 C 
ATOM      4  O   UNL     1       7.719   6.285  16.562  0.00  0.00    +0.000 OA
ATOM      5  N   UNL     1       5.745   5.053  16.343  0.00  0.00    +0.000 N 
ATOM      6  C   UNL     1       4.345   5.231  16.682  0.00  0.00    +0.000 C 
ENDROOT
BRANCH   6   7
ATOM      7  C   UNL     1       3.823   4.115  17.561  0.00  0.00    +0.000 A 
ATOM      8  C   UNL     1       2.687   3.358  17.227  0.00  0.00    +0.000 A 
ATOM      9  C   UNL     1       2.201   2.383  18.104  0.00  0.00    +0.000 A 
ATOM     10  C   UNL     1       2.841   2.149  19.321  0.00  0.00    +0.000 A 
ATOM     11  C   UNL     1       3.981   2.875  19.655  0.00  0.00    +0.000 A 
ATOM     12  C   UNL     1       4.460   3.844  18.778  0.00  0.00    +0.000 A 
ATOM     13  F   UNL     1       5.557   4.534  19.121  0.00  0.00    +0.000 F 
ENDBRANCH   6   7
BRANCH   1  15
ATOM     14  C   UNL     1       2.547   6.856  19.125  0.00  0.00    +0.000 C 
ATOM     15  C   UNL     1       3.222   7.330  17.867  0.00  0.00    +0.000 C 
ATOM     16  O   UNL     1       2.833   8.344  17.287  0.00  0.00    +0.000 OA
ENDBRANCH   1  15
BRANCH   2  17
ATOM     17  O   UNL     1       5.997   8.332  17.836  0.00  0.00    +0.000 OA
ATOM     18  H   UNL     1       6.720   8.662  17.257  0.00  0.00    +0.000 HD
ENDBRANCH   2  17
BRANCH   5  19
ATOM     19  C   UNL     1       6.260   3.860  15.692  0.00  0.00    +0.000 C 
BRANCH  19  20
ATOM     20  C   UNL     1       6.390   3.974  14.192  0.00  0.00    +0.000 A 
ATOM     21  C   UNL     1       7.398   4.773  13.632  0.00  0.00    +0.000 A 
ATOM     22  C   UNL     1       7.573   4.833  12.246  0.00  0.00    +0.000 A 
ATOM     23  C   UNL     1       6.742   4.095  11.408  0.00  0.00    +0.000 A 
ATOM     24  C   UNL     1       5.726   3.312  11.952  0.00  0.00    +0.000 A 
ATOM     25  C   UNL     1       5.544   3.257  13.336  0.00  0.00    +0.000 A 
ENDBRANCH  19  20
ENDBRANCH   5  19
TORSDOF 5
ENDMDL
MODEL 8
REMARK VINA RESULT:      -7.2      1.796      5.387
REMARK  Name = 
REMARK  6 active torsions:
REMARK  status: ('A' for Active; 'I' for Inactive)
REMARK    1  A    between atoms: C_1  and  C_2
REMARK    2  A    between atoms: C_2  and  C_4
REMARK    3  A    between atoms: C_5  and  O_6
REMARK    4  A    between atoms: N_9  and  C_10
REMARK    5  A    between atoms: C_10  and  C_11
REMARK    6  A    between atoms: C_17  and  C_18
REMARK                            x       y       z     vdW  Elec       q    Type
REMARK                         _______ _______ _______ _____ _____    ______ ____
ROOT
ATOM      1  C   UNL     1       4.389   6.524  17.443  0.00  0.00    +0.000 C 
ATOM      2  C   UNL     1       5.574   7.149  17.362  0.00  0.00    +0.000 C 
ATOM      3  C   UNL     1       6.517   6.220  16.690  0.00  0.00    +0.000 C 
ATOM      4  O   UNL     1       7.687   6.454  16.454  0.00  0.00    +0.000 OA
ATOM      5  N   UNL     1       5.804   5.070  16.408  0.00  0.00    +0.000 N 
ATOM      6  C   UNL     1       4.421   5.154  16.841  0.00  0.00    +0.000 C 
ENDROOT
BRANCH   6   7
ATOM      7  C   UNL     1       4.048   4.030  17.784  0.00  0.00    +0.000 A 
ATOM      8  C   UNL     1       4.752   3.776  18.974  0.00  0.00    +0.000 A 
ATOM      9  C   UNL     1       4.413   2.684  19.779  0.00  0.00    +0.000 A 
ATOM     10  C   UNL     1       3.371   1.833  19.410  0.00  0.00    +0.000 A 
ATOM     11  C   UNL     1       2.650   2.086  18.246  0.00  0.00    +0.000 A 
ATOM     12  C   UNL     1       2.991   3.174  17.450  0.00  0.00    +0.000 A 
ATOM     13  F   UNL     1       2.286   3.397  16.331  0.00  0.00    +0.000 F 
ENDBRANCH   6   7
BRANCH   1  15
ATOM     14  C   UNL     1       2.604   6.646  19.303  0.00  0.00    +0.000 C 
ATOM     15  C   UNL     1       3.223   7.199  18.047  0.00  0.00    +0.000 C 
ATOM     16  O   UNL     1       2.776   8.217  17.521  0.00  0.00    +0.000 OA
ENDBRANCH   1  15
BRANCH   2  17
ATOM     17  O   UNL     1       5.903   8.405  17.793  0.00  0.00    +0.000 OA
ATOM     18  H   UNL     1       6.719   8.323  18.335  0.00  0.00    +0.000 HD
ENDBRANCH   2  17
BRANCH   5  19
ATOM     19  C   UNL     1       6.363   3.900  15.754  0.00  0.00    +0.000 C 
BRANCH  19  20
ATOM     20  C   UNL     1       6.429   3.998  14.249  0.00  0.00    +0.000 A 
ATOM     21  C   UNL     1       7.433   4.764  13.637  0.00  0.00    +0.000 A 
ATOM     22  C   UNL     1       7.548   4.808  12.244  0.00  0.00    +0.000 A 
ATOM     23  C   UNL     1       6.661   4.086  11.451  0.00  0.00    +0.000 A 
ATOM     24  C   UNL     1       5.649   3.335  12.046  0.00  0.00    +0.000 A 
ATOM     25  C   UNL     1       5.527   3.297  13.437  0.00  0.00    +0.000 A 
ENDBRANCH  19  20
ENDBRANCH   5  19
TORSDOF 5
ENDMDL
MODEL 9
REMARK VINA RESULT:      -7.2      3.033      4.724
REMARK  Name = 
REMARK  6 active torsions:
REMARK  status: ('A' for Active; 'I' for Inactive)
REMARK    1  A    between atoms: C_1  and  C_2
REMARK    2  A    between atoms: C_2  and  C_4
REMARK    3  A    between atoms: C_5  and  O_6
REMARK    4  A    between atoms: N_9  and  C_10
REMARK    5  A    between atoms: C_10  and  C_11
REMARK    6  A    between atoms: C_17  and  C_18
REMARK                            x       y       z     vdW  Elec       q    Type
REMARK                         _______ _______ _______ _____ _____    ______ ____
ROOT
ATOM      1  C   UNL     1       2.304   3.840  18.840  0.00  0.00    +0.000 C 
ATOM      2  C   UNL     1       1.611   4.112  19.956  0.00  0.00    +0.000 C 
ATOM      3  C   UNL     1       1.779   5.559  20.239  0.00  0.00    +0.000 C 
ATOM      4  O   UNL     1       1.292   6.153  21.182  0.00  0.00    +0.000 OA
ATOM      5  N   UNL     1       2.586   6.065  19.237  0.00  0.00    +0.000 N 
ATOM      6  C   UNL     1       2.980   5.051  18.276  0.00  0.00    +0.000 C 
ENDROOT
BRANCH   6   7
ATOM      7  C   UNL     1       4.485   4.943  18.143  0.00  0.00    +0.000 A 
ATOM      8  C   UNL     1       5.361   5.271  19.191  0.00  0.00    +0.000 A 
ATOM      9  C   UNL     1       6.746   5.221  18.999  0.00  0.00    +0.000 A 
ATOM     10  C   UNL     1       7.272   4.843  17.763  0.00  0.00    +0.000 A 
ATOM     11  C   UNL     1       6.416   4.493  16.724  0.00  0.00    +0.000 A 
ATOM     12  C   UNL     1       5.039   4.543  16.921  0.00  0.00    +0.000 A 
ATOM     13  F   UNL     1       4.232   4.206  15.904  0.00  0.00    +0.000 F 
ENDBRANCH   6   7
BRANCH   1  15
ATOM     14  C   UNL     1       3.546   1.615  18.432  0.00  0.00    +0.000 C 
ATOM     15  C   UNL     1       2.321   2.475  18.278  0.00  0.00    +0.000 C 
ATOM     16  O   UNL     1       1.322   2.050  17.698  0.00  0.00    +0.000 OA
ENDBRANCH   1  15
BRANCH   2  17
ATOM     17  O   UNL     1       0.867   3.256  20.723  0.00  0.00    +0.000 OA
ATOM     18  H   UNL     1       1.411   2.451  20.872  0.00  0.00    +0.000 HD
ENDBRANCH   2  17
BRANCH   5  19
ATOM     19  C   UNL     1       3.003   7.453  19.145  0.00  0.00    +0.000 C 
BRANCH  19  20
ATOM     20  C   UNL     1       1.866   8.442  19.051  0.00  0.00    +0.000 A 
ATOM     21  C   UNL     1       1.346   8.799  17.797  0.00  0.00    +0.000 A 
ATOM     22  C   UNL     1       0.249   9.660  17.699  0.00  0.00    +0.000 A 
ATOM     23  C   UNL     1      -0.338  10.172  18.853  0.00  0.00    +0.000 A 
ATOM     24  C   UNL     1       0.180   9.839  20.103  0.00  0.00    +0.000 A 
ATOM     25  C   UNL     1       1.282   8.985  20.203  0.00  0.00    +0.000 A 
ENDBRANCH  19  20
ENDBRANCH   5  19
TORSDOF 5
ENDMDL
