MODEL 1
REMARK VINA RESULT:      -7.8      0.000      0.000
REMARK  Name = 
REMARK  10 active torsions:
REMARK  status: ('A' for Active; 'I' for Inactive)
REMARK    1  A    between atoms: C_1  and  C_2
REMARK    2  A    between atoms: C_2  and  N_3
REMARK    3  A    between atoms: N_3  and  C_4
REMARK    4  A    between atoms: N_3  and  S_6
REMARK    5  A    between atoms: C_4  and  C_5
REMARK    6  A    between atoms: S_6  and  C_9
REMARK    7  A    between atoms: C_12  and  N_13
REMARK    8  A    between atoms: C_15  and  C_16
REMARK    9  A    between atoms: N_18  and  C_19
REMARK   10  A    between atoms: C_19  and  C_20
REMARK                            x       y       z     vdW  Elec       q    Type
REMARK                         _______ _______ _______ _____ _____    ______ ____
ROOT
ATOM      1  N   UNL     1       1.317   9.000  19.246  0.00  0.00    +0.000 N 
ATOM      2  C   UNL     1       0.683   9.783  18.205  0.00  0.00    +0.000 C 
ATOM      3  C   UNL     1       0.308  11.093  18.875  0.00  0.00    +0.000 C 
ATOM      4  C   UNL     1       0.043  10.680  20.313  0.00  0.00    +0.000 C 
ATOM      5  C   UNL     1       0.950   9.485  20.510  0.00  0.00    +0.000 C 
ATOM      6  O   UNL     1       1.228   9.056  21.619  0.00  0.00    +0.000 OA
ENDROOT
BRANCH   1  10
ATOM      7  C   UNL     1       3.906   5.717  18.434  0.00  0.00    +0.000 A 
ATOM      8  C   UNL     1       3.097   5.694  19.566  0.00  0.00    +0.000 A 
ATOM      9  C   UNL     1       2.228   6.768  19.826  0.00  0.00    +0.000 A 
ATOM     10  C   UNL     1       2.158   7.882  18.971  0.00  0.00    +0.000 A 
ATOM     11  C   UNL     1       2.979   7.867  17.831  0.00  0.00    +0.000 A 
ATOM     12  C   UNL     1       3.850   6.804  17.564  0.00  0.00    +0.000 A 
BRANCH   7  13
ATOM     13  S   UNL     1       5.108   4.433  18.166  0.00  0.00    +0.000 S 
ATOM     14  O   UNL     1       4.428   3.348  17.491  0.00  0.00    +0.000 OA
ATOM     15  O   UNL     1       5.804   4.211  19.418  0.00  0.00    +0.000 OA
BRANCH  13  16
ATOM     16  N   UNL     1       6.242   5.123  17.071  0.00  0.00    +0.000 NA
BRANCH  16  18
ATOM     17  C   UNL     1       7.517   7.223  17.598  0.00  0.00    +0.000 C 
ATOM     18  C   UNL     1       7.450   5.709  17.723  0.00  0.00    +0.000 C 
ENDBRANCH  16  18
BRANCH  16  19
ATOM     19  C   UNL     1       6.514   4.259  15.878  0.00  0.00    +0.000 C 
ATOM     20  C   UNL     1       6.159   4.909  14.550  0.00  0.00    +0.000 C 
ENDBRANCH  16  19
ENDBRANCH  13  16
ENDBRANCH   7  13
ENDBRANCH   1  10
BRANCH   3  21
ATOM     21  C   UNL     1       1.436  12.110  18.763  0.00  0.00    +0.000 C 
ATOM     22  O   UNL     1       2.483  11.883  18.162  0.00  0.00    +0.000 OA
ATOM     23  N   UNL     1       1.177  13.329  19.348  0.00  0.00    +0.000 N 
ATOM     24  H   UNL     1       0.230  13.573  19.607  0.00  0.00    +0.000 HD
BRANCH  23  25
ATOM     25  C   UNL     1       2.145  14.401  19.235  0.00  0.00    +0.000 C 
BRANCH  25  26
ATOM     26  C   UNL     1       1.533  15.655  18.691  0.00  0.00    +0.000 A 
ATOM     27  C   UNL     1       0.149  15.857  18.697  0.00  0.00    +0.000 A 
ATOM     28  C   UNL     1      -0.376  17.059  18.230  0.00  0.00    +0.000 A 
ATOM     29  C   UNL     1       0.505  18.025  17.773  0.00  0.00    +0.000 A 
ATOM     30  N   UNL     1       1.845  17.867  17.751  0.00  0.00    +0.000 NA
ATOM     31  C   UNL     1       2.328  16.693  18.216  0.00  0.00    +0.000 A 
ENDBRANCH  25  26
ENDBRANCH  23  25
ENDBRANCH   3  21
TORSDOF 8
ENDMDL
MODEL 2
REMARK VINA RESULT:      -7.8      0.852      1.264
REMARK  Name = 
REMARK  10 active torsions:
REMARK  status: ('A' for Active; 'I' for Inactive)
REMARK    1  A    between atoms: C_1  and  C_2
REMARK    2  A    between atoms: C_2  and  N_3
REMARK    3  A    between atoms: N_3  and  C_4
REMARK    4  A    between atoms: N_3  and  S_6
REMARK    5  A    between atoms: C_4  and  C_5
REMARK    6  A    between atoms: S_6  and  C_9
REMARK    7  A    between atoms: C_12  and  N_13
REMARK    8  A    between atoms: C_15  and  C_16
REMARK    9  A    between atoms: N_18  and  C_19
REMARK   10  A    between atoms: C_19  and  C_20
REMARK                            x       y       z     vdW  Elec       q    Type
REMARK                         _______ _______ _______ _____ _____    ______ ____
ROOT
ATOM      1  N   UNL     1       1.266   8.886  19.263  0.00  0.00    +0.000 N 
ATOM      2  C   UNL     1       0.819   9.817  18.247  0.00  0.00    +0.000 C 
ATOM      3  C   UNL     1       0.246  10.992  19.020  0.00  0.00    +0.000 C 
ATOM      4  C   UNL     1      -0.286  10.343  20.287  0.00  0.00    +0.000 C 
ATOM      5  C   UNL     1       0.623   9.149  20.481  0.00  0.00    +0.000 C 
ATOM      6  O   UNL     1       0.689   8.549  21.543  0.00  0.00    +0.000 OA
ENDROOT
BRANCH   1  10
ATOM      7  C   UNL     1       3.990   5.711  18.466  0.00  0.00    +0.000 A 
ATOM      8  C   UNL     1       3.913   6.789  17.590  0.00  0.00    +0.000 A 
ATOM      9  C   UNL     1       3.027   7.847  17.861  0.00  0.00    +0.000 A 
ATOM     10  C   UNL     1       2.203   7.844  18.999  0.00  0.00    +0.000 A 
ATOM     11  C   UNL     1       2.316   6.746  19.869  0.00  0.00    +0.000 A 
ATOM     12  C   UNL     1       3.192   5.686  19.607  0.00  0.00    +0.000 A 
BRANCH   7  13
ATOM     13  S   UNL     1       5.002   4.303  18.065  0.00  0.00    +0.000 S 
ATOM     14  O   UNL     1       4.201   3.424  17.240  0.00  0.00    +0.000 OA
ATOM     15  O   UNL     1       5.603   3.827  19.296  0.00  0.00    +0.000 OA
BRANCH  13  16
ATOM     16  N   UNL     1       6.271   4.944  17.096  0.00  0.00    +0.000 NA
BRANCH  16  18
ATOM     17  C   UNL     1       7.610   6.908  17.914  0.00  0.00    +0.000 C 
ATOM     18  C   UNL     1       7.468   5.394  17.867  0.00  0.00    +0.000 C 
ENDBRANCH  16  18
BRANCH  16  19
ATOM     19  C   UNL     1       6.567   4.116  15.883  0.00  0.00    +0.000 C 
ATOM     20  C   UNL     1       6.611   4.911  14.588  0.00  0.00    +0.000 C 
ENDBRANCH  16  19
ENDBRANCH  13  16
ENDBRANCH   7  13
ENDBRANCH   1  10
BRANCH   3  21
ATOM     21  C   UNL     1       1.318  12.035  19.310  0.00  0.00    +0.000 C 
ATOM     22  O   UNL     1       1.671  12.332  20.448  0.00  0.00    +0.000 OA
ATOM     23  N   UNL     1       1.901  12.592  18.194  0.00  0.00    +0.000 N 
ATOM     24  H   UNL     1       1.778  12.156  17.290  0.00  0.00    +0.000 HD
BRANCH  23  25
ATOM     25  C   UNL     1       2.989  13.537  18.346  0.00  0.00    +0.000 C 
BRANCH  25  26
ATOM     26  C   UNL     1       2.535  14.950  18.155  0.00  0.00    +0.000 A 
ATOM     27  C   UNL     1       1.348  15.423  18.725  0.00  0.00    +0.000 A 
ATOM     28  C   UNL     1       0.989  16.758  18.568  0.00  0.00    +0.000 A 
ATOM     29  C   UNL     1       1.834  17.582  17.844  0.00  0.00    +0.000 A 
ATOM     30  N   UNL     1       2.986  17.164  17.278  0.00  0.00    +0.000 NA
ATOM     31  C   UNL     1       3.314  15.865  17.452  0.00  0.00    +0.000 A 
ENDBRANCH  25  26
ENDBRANCH  23  25
ENDBRANCH   3  21
TORSDOF 8
ENDMDL
MODEL 3
REMARK VINA RESULT:      -7.8      3.486      8.793
REMARK  Name = 
REMARK  10 active torsions:
REMARK  status: ('A' for Active; 'I' for Inactive)
REMARK    1  A    between atoms: C_1  and  C_2
REMARK    2  A    between atoms: C_2  and  N_3
REMARK    3  A    between atoms: N_3  and  C_4
REMARK    4  A    between atoms: N_3  and  S_6
REMARK    5  A    between atoms: C_4  and  C_5
REMARK    6  A    between atoms: S_6  and  C_9
REMARK    7  A    between atoms: C_12  and  N_13
REMARK    8  A    between atoms: C_15  and  C_16
REMARK    9  A    between atoms: N_18  and  C_19
REMARK   10  A    between atoms: C_19  and  C_20
REMARK                            x       y       z     vdW  Elec       q    Type
REMARK                         _______ _______ _______ _____ _____    ______ ____
ROOT
ATOM      1  N   UNL     1       2.427   5.231  19.048  0.00  0.00    +0.000 N 
ATOM      2  C   UNL     1       3.403   4.501  19.832  0.00  0.00    +0.000 C 
ATOM      3  C   UNL     1       3.770   3.301  18.976  0.00  0.00    +0.000 C 
ATOM      4  C   UNL     1       2.492   3.026  18.202  0.00  0.00    +0.000 C 
ATOM      5  C   UNL     1       1.849   4.391  18.085  0.00  0.00    +0.000 C 
ATOM      6  O   UNL     1       0.954   4.622  17.287  0.00  0.00    +0.000 OA
ENDROOT
BRANCH   1  10
ATOM      7  C   UNL     1       1.410   9.315  19.698  0.00  0.00    +0.000 A 
ATOM      8  C   UNL     1       1.220   8.387  20.717  0.00  0.00    +0.000 A 
ATOM      9  C   UNL     1       1.572   7.042  20.511  0.00  0.00    +0.000 A 
ATOM     10  C   UNL     1       2.109   6.600  19.289  0.00  0.00    +0.000 A 
ATOM     11  C   UNL     1       2.299   7.565  18.286  0.00  0.00    +0.000 A 
ATOM     12  C   UNL     1       1.949   8.907  18.480  0.00  0.00    +0.000 A 
BRANCH   7  13
ATOM     13  S   UNL     1       0.842  10.990  19.895  0.00  0.00    +0.000 S 
ATOM     14  O   UNL     1       1.526  11.791  18.903  0.00  0.00    +0.000 OA
ATOM     15  O   UNL     1       0.922  11.320  21.304  0.00  0.00    +0.000 OA
BRANCH  13  16
ATOM     16  N   UNL     1      -0.828  10.932  19.481  0.00  0.00    +0.000 NA
BRANCH  16  18
ATOM     17  C   UNL     1      -2.348  12.441  20.796  0.00  0.00    +0.000 C 
ATOM     18  C   UNL     1      -1.521  12.252  19.532  0.00  0.00    +0.000 C 
ENDBRANCH  16  18
BRANCH  16  19
ATOM     19  C   UNL     1      -1.107  10.109  18.261  0.00  0.00    +0.000 C 
ATOM     20  C   UNL     1      -2.534  10.229  17.748  0.00  0.00    +0.000 C 
ENDBRANCH  16  19
ENDBRANCH  13  16
ENDBRANCH   7  13
ENDBRANCH   1  10
BRANCH   3  21
ATOM     21  C   UNL     1       4.945   3.618  18.060  0.00  0.00    +0.000 C 
ATOM     22  O   UNL     1       4.881   3.529  16.837  0.00  0.00    +0.000 OA
ATOM     23  N   UNL     1       6.079   4.060  18.704  0.00  0.00    +0.000 N 
ATOM     24  H   UNL     1       6.026   4.363  19.667  0.00  0.00    +0.000 HD
BRANCH  23  25
ATOM     25  C   UNL     1       7.233   4.468  17.929  0.00  0.00    +0.000 C 
BRANCH  25  26
ATOM     26  C   UNL     1       7.399   5.956  17.910  0.00  0.00    +0.000 A 
ATOM     27  C   UNL     1       8.267   6.607  18.792  0.00  0.00    +0.000 A 
ATOM     28  C   UNL     1       8.433   7.987  18.706  0.00  0.00    +0.000 A 
ATOM     29  C   UNL     1       7.721   8.672  17.735  0.00  0.00    +0.000 A 
ATOM     30  N   UNL     1       6.874   8.080  16.868  0.00  0.00    +0.000 NA
ATOM     31  C   UNL     1       6.738   6.739  16.969  0.00  0.00    +0.000 A 
ENDBRANCH  25  26
ENDBRANCH  23  25
ENDBRANCH   3  21
TORSDOF 8
ENDMDL
MODEL 4
REMARK VINA RESULT:      -7.7      3.804      5.478
REMARK  Name = 
REMARK  10 active torsions:
REMARK  status: ('A' for Active; 'I' for Inactive)
REMARK    1  A    between atoms: C_1  and  C_2
REMARK    2  A    between atoms: C_2  and  N_3
REMARK    3  A    between atoms: N_3  and  C_4
REMARK    4  A    between atoms: N_3  and  S_6
REMARK    5  A    between atoms: C_4  and  C_5
REMARK    6  A    between atoms: S_6  and  C_9
REMARK    7  A    between atoms: C_12  and  N_13
REMARK    8  A    between atoms: C_15  and  C_16
REMARK    9  A    between atoms: N_18  and  C_19
REMARK   10  A    between atoms: C_19  and  C_20
REMARK                            x       y       z     vdW  Elec       q    Type
REMARK                         _______ _______ _______ _____ _____    ______ ____
ROOT
ATOM      1  N   UNL     1       0.561  10.563  19.327  0.00  0.00    +0.000 N 
ATOM      2  C   UNL     1       1.170  11.699  19.989  0.00  0.00    +0.000 C 
ATOM      3  C   UNL     1       0.008  12.600  20.366  0.00  0.00    +0.000 C 
ATOM      4  C   UNL     1      -1.007  12.329  19.268  0.00  0.00    +0.000 C 
ATOM      5  C   UNL     1      -0.721  10.898  18.868  0.00  0.00    +0.000 C 
ATOM      6  O   UNL     1      -1.513  10.235  18.217  0.00  0.00    +0.000 OA
ENDROOT
BRANCH   1  10
ATOM      7  C   UNL     1       2.638   6.881  18.813  0.00  0.00    +0.000 A 
ATOM      8  C   UNL     1       2.070   7.186  20.046  0.00  0.00    +0.000 A 
ATOM      9  C   UNL     1       1.368   8.393  20.213  0.00  0.00    +0.000 A 
ATOM     10  C   UNL     1       1.228   9.315  19.161  0.00  0.00    +0.000 A 
ATOM     11  C   UNL     1       1.803   8.970  17.925  0.00  0.00    +0.000 A 
ATOM     12  C   UNL     1       2.507   7.772  17.749  0.00  0.00    +0.000 A 
BRANCH   7  13
ATOM     13  S   UNL     1       3.645   5.426  18.626  0.00  0.00    +0.000 S 
ATOM     14  O   UNL     1       4.721   5.527  19.588  0.00  0.00    +0.000 OA
ATOM     15  O   UNL     1       3.923   5.260  17.213  0.00  0.00    +0.000 OA
BRANCH  13  16
ATOM     16  N   UNL     1       2.620   4.127  19.098  0.00  0.00    +0.000 NA
BRANCH  16  18
ATOM     17  C   UNL     1       2.620   1.946  17.849  0.00  0.00    +0.000 C 
ATOM     18  C   UNL     1       2.046   3.351  17.959  0.00  0.00    +0.000 C 
ENDBRANCH  16  18
BRANCH  16  19
ATOM     19  C   UNL     1       3.185   3.302  20.214  0.00  0.00    +0.000 C 
ATOM     20  C   UNL     1       2.241   3.130  21.393  0.00  0.00    +0.000 C 
ENDBRANCH  16  19
ENDBRANCH  13  16
ENDBRANCH   7  13
ENDBRANCH   1  10
BRANCH   3  21
ATOM     21  C   UNL     1      -0.529  12.256  21.750  0.00  0.00    +0.000 C 
ATOM     22  O   UNL     1       0.078  11.541  22.542  0.00  0.00    +0.000 OA
ATOM     23  N   UNL     1      -1.732  12.845  22.068  0.00  0.00    +0.000 N 
ATOM     24  H   UNL     1      -2.079  13.615  21.511  0.00  0.00    +0.000 HD
BRANCH  23  25
ATOM     25  C   UNL     1      -2.300  12.654  23.386  0.00  0.00    +0.000 C 
BRANCH  25  26
ATOM     26  C   UNL     1      -3.796  12.680  23.362  0.00  0.00    +0.000 A 
ATOM     27  C   UNL     1      -4.505  13.012  22.203  0.00  0.00    +0.000 A 
ATOM     28  C   UNL     1      -5.896  12.972  22.208  0.00  0.00    +0.000 A 
ATOM     29  C   UNL     1      -6.537  12.598  23.378  0.00  0.00    +0.000 A 
ATOM     30  N   UNL     1      -5.889  12.272  24.516  0.00  0.00    +0.000 NA
ATOM     31  C   UNL     1      -4.538  12.312  24.481  0.00  0.00    +0.000 A 
ENDBRANCH  25  26
ENDBRANCH  23  25
ENDBRANCH   3  21
TORSDOF 8
ENDMDL
MODEL 5
REMARK VINA RESULT:      -7.7      3.075      9.674
REMARK  Name = 
REMARK  10 active torsions:
REMARK  status: ('A' for Active; 'I' for Inactive)
REMARK    1  A    between atoms: C_1  and  C_2
REMARK    2  A    between atoms: C_2  and  N_3
REMARK    3  A    between atoms: N_3  and  C_4
REMARK    4  A    between atoms: N_3  and  S_6
REMARK    5  A    between atoms: C_4  and  C_5
REMARK    6  A    between atoms: S_6  and  C_9
REMARK    7  A    between atoms: C_12  and  N_13
REMARK    8  A    between atoms: C_15  and  C_16
REMARK    9  A    between atoms: N_18  and  C_19
REMARK   10  A    between atoms: C_19  and  C_20
REMARK                            x       y       z     vdW  Elec       q    Type
REMARK                         _______ _______ _______ _____ _____    ______ ____
ROOT
ATOM      1  N   UNL     1       2.889   5.853  19.585  0.00  0.00    +0.000 N 
ATOM      2  C   UNL     1       4.272   5.602  19.233  0.00  0.00    +0.000 C 
ATOM      3  C   UNL     1       4.371   4.093  19.095  0.00  0.00    +0.000 C 
ATOM      4  C   UNL     1       3.337   3.588  20.087  0.00  0.00    +0.000 C 
ATOM      5  C   UNL     1       2.303   4.693  20.113  0.00  0.00    +0.000 C 
ATOM      6  O   UNL     1       1.185   4.526  20.574  0.00  0.00    +0.000 OA
ENDROOT
BRANCH   1  10
ATOM      7  C   UNL     1       1.105   9.700  19.190  0.00  0.00    +0.000 A 
ATOM      8  C   UNL     1       1.721   9.109  18.091  0.00  0.00    +0.000 A 
ATOM      9  C   UNL     1       2.294   7.832  18.214  0.00  0.00    +0.000 A 
ATOM     10  C   UNL     1       2.270   7.128  19.432  0.00  0.00    +0.000 A 
ATOM     11  C   UNL     1       1.629   7.748  20.518  0.00  0.00    +0.000 A 
ATOM     12  C   UNL     1       1.057   9.022  20.406  0.00  0.00    +0.000 A 
BRANCH   7  13
ATOM     13  S   UNL     1       0.498  11.369  19.086  0.00  0.00    +0.000 S 
ATOM     14  O   UNL     1      -0.881  11.296  18.653  0.00  0.00    +0.000 OA
ATOM     15  O   UNL     1       1.471  12.147  18.345  0.00  0.00    +0.000 OA
BRANCH  13  16
ATOM     16  N   UNL     1       0.523  11.940  20.710  0.00  0.00    +0.000 NA
BRANCH  16  18
ATOM     17  C   UNL     1       0.705  14.441  20.878  0.00  0.00    +0.000 C 
ATOM     18  C   UNL     1       1.429  13.104  20.940  0.00  0.00    +0.000 C 
ENDBRANCH  16  18
BRANCH  16  19
ATOM     19  C   UNL     1      -0.842  12.063  21.315  0.00  0.00    +0.000 C 
ATOM     20  C   UNL     1      -0.967  11.427  22.691  0.00  0.00    +0.000 C 
ENDBRANCH  16  19
ENDBRANCH  13  16
ENDBRANCH   7  13
ENDBRANCH   1  10
BRANCH   3  21
ATOM     21  C   UNL     1       4.070   3.650  17.669  0.00  0.00    +0.000 C 
ATOM     22  O   UNL     1       2.974   3.222  17.320  0.00  0.00    +0.000 OA
ATOM     23  N   UNL     1       5.110   3.809  16.781  0.00  0.00    +0.000 N 
ATOM     24  H   UNL     1       5.901   4.389  17.030  0.00  0.00    +0.000 HD
BRANCH  23  25
ATOM     25  C   UNL     1       4.915   3.497  15.380  0.00  0.00    +0.000 C 
BRANCH  25  26
ATOM     26  C   UNL     1       6.014   4.045  14.524  0.00  0.00    +0.000 A 
ATOM     27  C   UNL     1       6.127   3.708  13.172  0.00  0.00    +0.000 A 
ATOM     28  C   UNL     1       7.132   4.280  12.398  0.00  0.00    +0.000 A 
ATOM     29  C   UNL     1       7.995   5.178  13.005  0.00  0.00    +0.000 A 
ATOM     30  N   UNL     1       7.919   5.527  14.306  0.00  0.00    +0.000 NA
ATOM     31  C   UNL     1       6.930   4.962  15.032  0.00  0.00    +0.000 A 
ENDBRANCH  25  26
ENDBRANCH  23  25
ENDBRANCH   3  21
TORSDOF 8
ENDMDL
MODEL 6
REMARK VINA RESULT:      -7.6      3.727      9.703
REMARK  Name = 
REMARK  10 active torsions:
REMARK  status: ('A' for Active; 'I' for Inactive)
REMARK    1  A    between atoms: C_1  and  C_2
REMARK    2  A    between atoms: C_2  and  N_3
REMARK    3  A    between atoms: N_3  and  C_4
REMARK    4  A    between atoms: N_3  and  S_6
REMARK    5  A    between atoms: C_4  and  C_5
REMARK    6  A    between atoms: S_6  and  C_9
REMARK    7  A    between atoms: C_12  and  N_13
REMARK    8  A    between atoms: C_15  and  C_16
REMARK    9  A    between atoms: N_18  and  C_19
REMARK   10  A    between atoms: C_19  and  C_20
REMARK                            x       y       z     vdW  Elec       q    Type
REMARK                         _______ _______ _______ _____ _____    ______ ____
ROOT
ATOM      1  N   UNL     1       2.981   5.712  19.637  0.00  0.00    +0.000 N 
ATOM      2  C   UNL     1       4.355   5.510  19.227  0.00  0.00    +0.000 C 
ATOM      3  C   UNL     1       4.463   4.022  18.943  0.00  0.00    +0.000 C 
ATOM      4  C   UNL     1       3.459   3.415  19.908  0.00  0.00    +0.000 C 
ATOM      5  C   UNL     1       2.418   4.502  20.067  0.00  0.00    +0.000 C 
ATOM      6  O   UNL     1       1.313   4.280  20.538  0.00  0.00    +0.000 OA
ENDROOT
BRANCH   1  10
ATOM      7  C   UNL     1       1.158   9.562  19.656  0.00  0.00    +0.000 A 
ATOM      8  C   UNL     1       1.725   9.073  18.483  0.00  0.00    +0.000 A 
ATOM      9  C   UNL     1       2.311   7.795  18.470  0.00  0.00    +0.000 A 
ATOM     10  C   UNL     1       2.349   6.990  19.622  0.00  0.00    +0.000 A 
ATOM     11  C   UNL     1       1.756   7.509  20.786  0.00  0.00    +0.000 A 
ATOM     12  C   UNL     1       1.172   8.782  20.810  0.00  0.00    +0.000 A 
BRANCH   7  13
ATOM     13  S   UNL     1       0.538  11.228  19.724  0.00  0.00    +0.000 S 
ATOM     14  O   UNL     1       1.006  11.905  18.534  0.00  0.00    +0.000 OA
ATOM     15  O   UNL     1       0.829  11.754  21.043  0.00  0.00    +0.000 OA
BRANCH  13  16
ATOM     16  N   UNL     1      -1.171  11.059  19.611  0.00  0.00    +0.000 NA
BRANCH  16  18
ATOM     17  C   UNL     1      -2.852  12.857  20.118  0.00  0.00    +0.000 C 
ATOM     18  C   UNL     1      -1.932  11.779  20.673  0.00  0.00    +0.000 C 
ENDBRANCH  16  18
BRANCH  16  19
ATOM     19  C   UNL     1      -1.692  11.237  18.218  0.00  0.00    +0.000 C 
ATOM     20  C   UNL     1      -2.538  10.075  17.722  0.00  0.00    +0.000 C 
ENDBRANCH  16  19
ENDBRANCH  13  16
ENDBRANCH   7  13
ENDBRANCH   1  10
BRANCH   3  21
ATOM     21  C   UNL     1       4.127   3.715  17.489  0.00  0.00    +0.000 C 
ATOM     22  O   UNL     1       2.975   3.627  17.074  0.00  0.00    +0.000 OA
ATOM     23  N   UNL     1       5.217   3.588  16.658  0.00  0.00    +0.000 N 
ATOM     24  H   UNL     1       6.125   3.911  16.964  0.00  0.00    +0.000 HD
BRANCH  23  25
ATOM     25  C   UNL     1       5.018   3.375  15.239  0.00  0.00    +0.000 C 
BRANCH  25  26
ATOM     26  C   UNL     1       6.103   4.002  14.420  0.00  0.00    +0.000 A 
ATOM     27  C   UNL     1       6.217   3.761  13.047  0.00  0.00    +0.000 A 
ATOM     28  C   UNL     1       7.207   4.406  12.311  0.00  0.00    +0.000 A 
ATOM     29  C   UNL     1       8.054   5.277  12.976  0.00  0.00    +0.000 A 
ATOM     30  N   UNL     1       7.976   5.535  14.299  0.00  0.00    +0.000 NA
ATOM     31  C   UNL     1       7.001   4.901  14.987  0.00  0.00    +0.000 A 
ENDBRANCH  25  26
ENDBRANCH  23  25
ENDBRANCH   3  21
TORSDOF 8
ENDMDL
MODEL 7
REMARK VINA RESULT:      -7.5      1.526      2.502
REMARK  Name = 
REMARK  10 active torsions:
REMARK  status: ('A' for Active; 'I' for Inactive)
REMARK    1  A    between atoms: C_1  and  C_2
REMARK    2  A    between atoms: C_2  and  N_3
REMARK    3  A    between atoms: N_3  and  C_4
REMARK    4  A    between atoms: N_3  and  S_6
REMARK    5  A    between atoms: C_4  and  C_5
REMARK    6  A    between atoms: S_6  and  C_9
REMARK    7  A    between atoms: C_12  and  N_13
REMARK    8  A    between atoms: C_15  and  C_16
REMARK    9  A    between atoms: N_18  and  C_19
REMARK   10  A    between atoms: C_19  and  C_20
REMARK                            x       y       z     vdW  Elec       q    Type
REMARK                         _______ _______ _______ _____ _____    ______ ____
ROOT
ATOM      1  N   UNL     1       1.388   9.010  19.216  0.00  0.00    +0.000 N 
ATOM      2  C   UNL     1       0.721   9.733  18.152  0.00  0.00    +0.000 C 
ATOM      3  C   UNL     1       0.335  11.065  18.770  0.00  0.00    +0.000 C 
ATOM      4  C   UNL     1       0.103  10.713  20.230  0.00  0.00    +0.000 C 
ATOM      5  C   UNL     1       1.035   9.544  20.464  0.00  0.00    +0.000 C 
ATOM      6  O   UNL     1       1.341   9.171  21.585  0.00  0.00    +0.000 OA
ENDROOT
BRANCH   1  10
ATOM      7  C   UNL     1       3.864   5.623  18.484  0.00  0.00    +0.000 A 
ATOM      8  C   UNL     1       3.912   6.712  17.619  0.00  0.00    +0.000 A 
ATOM      9  C   UNL     1       3.109   7.839  17.869  0.00  0.00    +0.000 A 
ATOM     10  C   UNL     1       2.243   7.894  18.975  0.00  0.00    +0.000 A 
ATOM     11  C   UNL     1       2.229   6.783  19.835  0.00  0.00    +0.000 A 
ATOM     12  C   UNL     1       3.022   5.655  19.594  0.00  0.00    +0.000 A 
BRANCH   7  13
ATOM     13  S   UNL     1       4.769   4.138  18.105  0.00  0.00    +0.000 S 
ATOM     14  O   UNL     1       3.909   3.313  17.284  0.00  0.00    +0.000 OA
ATOM     15  O   UNL     1       5.325   3.632  19.345  0.00  0.00    +0.000 OA
BRANCH  13  16
ATOM     16  N   UNL     1       6.089   4.671  17.138  0.00  0.00    +0.000 NA
BRANCH  16  18
ATOM     17  C   UNL     1       7.651   6.235  18.333  0.00  0.00    +0.000 C 
ATOM     18  C   UNL     1       7.378   4.810  17.878  0.00  0.00    +0.000 C 
ENDBRANCH  16  18
BRANCH  16  19
ATOM     19  C   UNL     1       6.180   3.964  15.820  0.00  0.00    +0.000 C 
ATOM     20  C   UNL     1       5.885   4.852  14.621  0.00  0.00    +0.000 C 
ENDBRANCH  16  19
ENDBRANCH  13  16
ENDBRANCH   7  13
ENDBRANCH   1  10
BRANCH   3  21
ATOM     21  C   UNL     1       1.442  12.096  18.591  0.00  0.00    +0.000 C 
ATOM     22  O   UNL     1       2.509  11.840  18.040  0.00  0.00    +0.000 OA
ATOM     23  N   UNL     1       1.141  13.357  19.054  0.00  0.00    +0.000 N 
ATOM     24  H   UNL     1       0.182  13.600  19.267  0.00  0.00    +0.000 HD
BRANCH  23  25
ATOM     25  C   UNL     1       2.087  14.438  18.865  0.00  0.00    +0.000 C 
BRANCH  25  26
ATOM     26  C   UNL     1       2.978  14.618  20.055  0.00  0.00    +0.000 A 
ATOM     27  C   UNL     1       4.331  14.941  19.914  0.00  0.00    +0.000 A 
ATOM     28  C   UNL     1       5.113  15.152  21.046  0.00  0.00    +0.000 A 
ATOM     29  C   UNL     1       4.512  15.034  22.288  0.00  0.00    +0.000 A 
ATOM     30  N   UNL     1       3.211  14.723  22.465  0.00  0.00    +0.000 NA
ATOM     31  C   UNL     1       2.474  14.530  21.349  0.00  0.00    +0.000 A 
ENDBRANCH  25  26
ENDBRANCH  23  25
ENDBRANCH   3  21
TORSDOF 8
ENDMDL
MODEL 8
REMARK VINA RESULT:      -7.5      2.311      2.985
REMARK  Name = 
REMARK  10 active torsions:
REMARK  status: ('A' for Active; 'I' for Inactive)
REMARK    1  A    between atoms: C_1  and  C_2
REMARK    2  A    between atoms: C_2  and  N_3
REMARK    3  A    between atoms: N_3  and  C_4
REMARK    4  A    between atoms: N_3  and  S_6
REMARK    5  A    between atoms: C_4  and  C_5
REMARK    6  A    between atoms: S_6  and  C_9
REMARK    7  A    between atoms: C_12  and  N_13
REMARK    8  A    between atoms: C_15  and  C_16
REMARK    9  A    between atoms: N_18  and  C_19
REMARK   10  A    between atoms: C_19  and  C_20
REMARK                            x       y       z     vdW  Elec       q    Type
REMARK                         _______ _______ _______ _____ _____    ______ ____
ROOT
ATOM      1  N   UNL     1       0.482  10.328  19.954  0.00  0.00    +0.000 N 
ATOM      2  C   UNL     1      -0.304  11.067  18.987  0.00  0.00    +0.000 C 
ATOM      3  C   UNL     1      -0.443  12.458  19.579  0.00  0.00    +0.000 C 
ATOM      4  C   UNL     1      -0.427  12.197  21.076  0.00  0.00    +0.000 C 
ATOM      5  C   UNL     1       0.421  10.951  21.209  0.00  0.00    +0.000 C 
ATOM      6  O   UNL     1       0.897  10.599  22.277  0.00  0.00    +0.000 OA
ENDROOT
BRANCH   1  10
ATOM      7  C   UNL     1       2.621   6.776  18.980  0.00  0.00    +0.000 A 
ATOM      8  C   UNL     1       2.058   6.917  20.245  0.00  0.00    +0.000 A 
ATOM      9  C   UNL     1       1.336   8.081  20.562  0.00  0.00    +0.000 A 
ATOM     10  C   UNL     1       1.171   9.122  19.631  0.00  0.00    +0.000 A 
ATOM     11  C   UNL     1       1.741   8.941  18.360  0.00  0.00    +0.000 A 
ATOM     12  C   UNL     1       2.465   7.787  18.034  0.00  0.00    +0.000 A 
BRANCH   7  13
ATOM     13  S   UNL     1       3.653   5.374  18.611  0.00  0.00    +0.000 S 
ATOM     14  O   UNL     1       4.754   5.397  19.549  0.00  0.00    +0.000 OA
ATOM     15  O   UNL     1       3.892   5.367  17.181  0.00  0.00    +0.000 OA
BRANCH  13  16
ATOM     16  N   UNL     1       2.669   4.008  18.967  0.00  0.00    +0.000 NA
BRANCH  16  18
ATOM     17  C   UNL     1       3.418   1.800  18.027  0.00  0.00    +0.000 C 
ATOM     18  C   UNL     1       2.542   3.031  17.846  0.00  0.00    +0.000 C 
ENDBRANCH  16  18
BRANCH  16  19
ATOM     19  C   UNL     1       2.956   3.406  20.309  0.00  0.00    +0.000 C 
ATOM     20  C   UNL     1       1.717   3.182  21.163  0.00  0.00    +0.000 C 
ENDBRANCH  16  19
ENDBRANCH  13  16
ENDBRANCH   7  13
ENDBRANCH   1  10
BRANCH   3  21
ATOM     21  C   UNL     1       0.701  13.361  19.136  0.00  0.00    +0.000 C 
ATOM     22  O   UNL     1       1.487  13.054  18.245  0.00  0.00    +0.000 OA
ATOM     23  N   UNL     1       0.762  14.576  19.781  0.00  0.00    +0.000 N 
ATOM     24  H   UNL     1      -0.031  14.903  20.317  0.00  0.00    +0.000 HD
BRANCH  23  25
ATOM     25  C   UNL     1       1.760  15.550  19.386  0.00  0.00    +0.000 C 
BRANCH  25  26
ATOM     26  C   UNL     1       1.203  16.575  18.448  0.00  0.00    +0.000 A 
ATOM     27  C   UNL     1      -0.170  16.832  18.374  0.00  0.00    +0.000 A 
ATOM     28  C   UNL     1      -0.642  17.831  17.527  0.00  0.00    +0.000 A 
ATOM     29  C   UNL     1       0.280  18.544  16.779  0.00  0.00    +0.000 A 
ATOM     30  N   UNL     1       1.611  18.325  16.822  0.00  0.00    +0.000 NA
ATOM     31  C   UNL     1       2.042  17.355  17.658  0.00  0.00    +0.000 A 
ENDBRANCH  25  26
ENDBRANCH  23  25
ENDBRANCH   3  21
TORSDOF 8
ENDMDL
MODEL 9
REMARK VINA RESULT:      -7.5      3.713      5.513
REMARK  Name = 
REMARK  10 active torsions:
REMARK  status: ('A' for Active; 'I' for Inactive)
REMARK    1  A    between atoms: C_1  and  C_2
REMARK    2  A    between atoms: C_2  and  N_3
REMARK    3  A    between atoms: N_3  and  C_4
REMARK    4  A    between atoms: N_3  and  S_6
REMARK    5  A    between atoms: C_4  and  C_5
REMARK    6  A    between atoms: S_6  and  C_9
REMARK    7  A    between atoms: C_12  and  N_13
REMARK    8  A    between atoms: C_15  and  C_16
REMARK    9  A    between atoms: N_18  and  C_19
REMARK   10  A    between atoms: C_19  and  C_20
REMARK                            x       y       z     vdW  Elec       q    Type
REMARK                         _______ _______ _______ _____ _____    ______ ____
ROOT
ATOM      1  N   UNL     1       0.626  10.447  19.100  0.00  0.00    +0.000 N 
ATOM      2  C   UNL     1       1.087  11.620  19.813  0.00  0.00    +0.000 C 
ATOM      3  C   UNL     1      -0.169  12.430  20.085  0.00  0.00    +0.000 C 
ATOM      4  C   UNL     1      -1.059  12.091  18.901  0.00  0.00    +0.000 C 
ATOM      5  C   UNL     1      -0.632  10.688  18.527  0.00  0.00    +0.000 C 
ATOM      6  O   UNL     1      -1.310   9.972  17.808  0.00  0.00    +0.000 OA
ENDROOT
BRANCH   1  10
ATOM      7  C   UNL     1       2.850   6.828  18.789  0.00  0.00    +0.000 A 
ATOM      8  C   UNL     1       2.829   7.719  17.720  0.00  0.00    +0.000 A 
ATOM      9  C   UNL     1       2.111   8.922  17.827  0.00  0.00    +0.000 A 
ATOM     10  C   UNL     1       1.398   9.253  18.993  0.00  0.00    +0.000 A 
ATOM     11  C   UNL     1       1.451   8.338  20.058  0.00  0.00    +0.000 A 
ATOM     12  C   UNL     1       2.161   7.135  19.961  0.00  0.00    +0.000 A 
BRANCH   7  13
ATOM     13  S   UNL     1       3.638   5.242  18.619  0.00  0.00    +0.000 S 
ATOM     14  O   UNL     1       4.782   5.237  19.505  0.00  0.00    +0.000 OA
ATOM     15  O   UNL     1       3.792   4.976  17.202  0.00  0.00    +0.000 OA
BRANCH  13  16
ATOM     16  N   UNL     1       2.483   4.118  19.223  0.00  0.00    +0.000 NA
BRANCH  16  18
ATOM     17  C   UNL     1       0.685   2.434  18.730  0.00  0.00    +0.000 C 
ATOM     18  C   UNL     1       1.769   3.341  18.168  0.00  0.00    +0.000 C 
ENDBRANCH  16  18
BRANCH  16  19
ATOM     19  C   UNL     1       2.992   3.310  20.378  0.00  0.00    +0.000 C 
ATOM     20  C   UNL     1       2.218   3.523  21.669  0.00  0.00    +0.000 C 
ENDBRANCH  16  19
ENDBRANCH  13  16
ENDBRANCH   7  13
ENDBRANCH   1  10
BRANCH   3  21
ATOM     21  C   UNL     1      -0.799  12.037  21.415  0.00  0.00    +0.000 C 
ATOM     22  O   UNL     1      -0.458  11.041  22.047  0.00  0.00    +0.000 OA
ATOM     23  N   UNL     1      -1.755  12.910  21.883  0.00  0.00    +0.000 N 
ATOM     24  H   UNL     1      -1.834  13.835  21.481  0.00  0.00    +0.000 HD
BRANCH  23  25
ATOM     25  C   UNL     1      -2.366  12.682  23.177  0.00  0.00    +0.000 C 
BRANCH  25  26
ATOM     26  C   UNL     1      -3.861  12.697  23.102  0.00  0.00    +0.000 A 
ATOM     27  C   UNL     1      -4.653  12.622  24.253  0.00  0.00    +0.000 A 
ATOM     28  C   UNL     1      -6.039  12.693  24.144  0.00  0.00    +0.000 A 
ATOM     29  C   UNL     1      -6.590  12.839  22.882  0.00  0.00    +0.000 A 
ATOM     30  N   UNL     1      -5.859  12.915  21.749  0.00  0.00    +0.000 NA
ATOM     31  C   UNL     1      -4.517  12.850  21.884  0.00  0.00    +0.000 A 
ENDBRANCH  25  26
ENDBRANCH  23  25
ENDBRANCH   3  21
TORSDOF 8
ENDMDL
