MODEL 1
REMARK VINA RESULT:      -7.3      0.000      0.000
REMARK  Name = 
REMARK  15 active torsions:
REMARK  status: ('A' for Active; 'I' for Inactive)
REMARK    1  A    between atoms: C_1  and  O_2
REMARK    2  A    between atoms: O_2  and  C_3
REMARK    3  A    between atoms: C_6  and  C_7
REMARK    4  A    between atoms: C_7  and  C_8
REMARK    5  A    between atoms: C_11  and  O_12
REMARK    6  A    between atoms: O_12  and  C_13
REMARK    7  A    between atoms: C_14  and  O_15
REMARK    8  A    between atoms: O_15  and  C_16
REMARK    9  A    between atoms: N_21  and  C_22
REMARK   10  A    between atoms: C_22  and  C_23
REMARK   11  A    between atoms: C_23  and  O_25
REMARK   12  A    between atoms: O_25  and  C_26
REMARK   13  A    between atoms: C_26  and  C_27
REMARK   14  A    between atoms: C_34  and  O_35
REMARK   15  A    between atoms: O_35  and  C_36
REMARK                            x       y       z     vdW  Elec       q    Type
REMARK                         _______ _______ _______ _____ _____    ______ ____
ROOT
ATOM      1  C   UNL     1       0.005  10.945  19.462  0.00  0.00    +0.000 C 
ATOM      2  C   UNL     1      -1.400  11.075  18.855  0.00  0.00    +0.000 A 
ATOM      3  C   UNL     1      -1.814  10.292  17.772  0.00  0.00    +0.000 A 
ATOM      4  C   UNL     1      -3.105  10.387  17.232  0.00  0.00    +0.000 A 
ATOM      5  C   UNL     1      -4.011  11.318  17.762  0.00  0.00    +0.000 A 
ATOM      6  C   UNL     1      -3.614  12.093  18.855  0.00  0.00    +0.000 A 
ATOM      7  C   UNL     1      -2.335  11.962  19.416  0.00  0.00    +0.000 A 
ATOM      8  C   UNL     1      -1.972  12.840  20.585  0.00  0.00    +0.000 C 
ATOM      9  C   UNL     1      -0.619  12.490  21.202  0.00  0.00    +0.000 C 
ATOM     10  N   UNL     1       0.363  12.224  20.137  0.00  0.00    +0.000 NA
ENDROOT
BRANCH   4  11
ATOM     11  O   UNL     1      -3.511   9.601  16.177  0.00  0.00    +0.000 OA
ATOM     12  C   UNL     1      -3.036  10.015  14.895  0.00  0.00    +0.000 C 
ENDBRANCH   4  11
BRANCH   5  13
ATOM     13  O   UNL     1      -5.256  11.403  17.187  0.00  0.00    +0.000 OA
ATOM     14  C   UNL     1      -6.374  11.180  18.043  0.00  0.00    +0.000 C 
ENDBRANCH   5  13
BRANCH   1  15
ATOM     15  C   UNL     1       1.070  10.350  18.482  0.00  0.00    +0.000 C 
BRANCH  15  19
ATOM     16  C   UNL     1       2.792   6.452  19.084  0.00  0.00    +0.000 A 
ATOM     17  C   UNL     1       2.061   7.060  20.119  0.00  0.00    +0.000 A 
ATOM     18  C   UNL     1       1.537   8.340  19.976  0.00  0.00    +0.000 A 
ATOM     19  C   UNL     1       1.819   9.086  18.838  0.00  0.00    +0.000 A 
ATOM     20  C   UNL     1       2.734   8.559  17.914  0.00  0.00    +0.000 A 
ATOM     21  C   UNL     1       3.192   7.233  17.992  0.00  0.00    +0.000 A 
BRANCH  16  23
ATOM     22  C   UNL     1       2.161   4.266  18.463  0.00  0.00    +0.000 C 
ATOM     23  O   UNL     1       3.091   5.116  19.149  0.00  0.00    +0.000 OA
ENDBRANCH  16  23
BRANCH  21  24
ATOM     24  O   UNL     1       3.947   6.910  16.901  0.00  0.00    +0.000 OA
ATOM     25  C   UNL     1       5.347   6.724  17.013  0.00  0.00    +0.000 C 
ENDBRANCH  21  24
ENDBRANCH  15  19
ENDBRANCH   1  15
BRANCH  10  26
ATOM     26  C   UNL     1       1.747  12.378  20.608  0.00  0.00    +0.000 C 
BRANCH  26  27
ATOM     27  C   UNL     1       2.166  13.800  20.959  0.00  0.00    +0.000 C 
ATOM     28  O   UNL     1       2.958  14.125  21.828  0.00  0.00    +0.000 OA
BRANCH  27  29
ATOM     29  O   UNL     1       1.498  14.661  20.142  0.00  0.00    +0.000 OA
BRANCH  29  30
ATOM     30  C   UNL     1       2.279  15.268  19.108  0.00  0.00    +0.000 C 
BRANCH  30  31
ATOM     31  C   UNL     1       1.437  16.296  18.401  0.00  0.00    +0.000 A 
ATOM     32  C   UNL     1       2.042  17.253  17.570  0.00  0.00    +0.000 A 
ATOM     33  C   UNL     1       1.277  18.213  16.916  0.00  0.00    +0.000 A 
ATOM     34  C   UNL     1      -0.120  18.238  17.102  0.00  0.00    +0.000 A 
ATOM     35  C   UNL     1      -0.721  17.294  17.934  0.00  0.00    +0.000 A 
ATOM     36  C   UNL     1       0.048  16.331  18.584  0.00  0.00    +0.000 A 
ENDBRANCH  30  31
ENDBRANCH  29  30
ENDBRANCH  27  29
ENDBRANCH  26  27
ENDBRANCH  10  26
TORSDOF 11
ENDMDL
MODEL 2
REMARK VINA RESULT:      -7.1      0.939      1.641
REMARK  Name = 
REMARK  15 active torsions:
REMARK  status: ('A' for Active; 'I' for Inactive)
REMARK    1  A    between atoms: C_1  and  O_2
REMARK    2  A    between atoms: O_2  and  C_3
REMARK    3  A    between atoms: C_6  and  C_7
REMARK    4  A    between atoms: C_7  and  C_8
REMARK    5  A    between atoms: C_11  and  O_12
REMARK    6  A    between atoms: O_12  and  C_13
REMARK    7  A    between atoms: C_14  and  O_15
REMARK    8  A    between atoms: O_15  and  C_16
REMARK    9  A    between atoms: N_21  and  C_22
REMARK   10  A    between atoms: C_22  and  C_23
REMARK   11  A    between atoms: C_23  and  O_25
REMARK   12  A    between atoms: O_25  and  C_26
REMARK   13  A    between atoms: C_26  and  C_27
REMARK   14  A    between atoms: C_34  and  O_35
REMARK   15  A    between atoms: O_35  and  C_36
REMARK                            x       y       z     vdW  Elec       q    Type
REMARK                         _______ _______ _______ _____ _____    ______ ____
ROOT
ATOM      1  C   UNL     1       0.246  10.702  19.293  0.00  0.00    +0.000 C 
ATOM      2  C   UNL     1      -1.158  10.814  18.680  0.00  0.00    +0.000 A 
ATOM      3  C   UNL     1      -1.513  10.126  17.514  0.00  0.00    +0.000 A 
ATOM      4  C   UNL     1      -2.801  10.204  16.965  0.00  0.00    +0.000 A 
ATOM      5  C   UNL     1      -3.767  11.021  17.575  0.00  0.00    +0.000 A 
ATOM      6  C   UNL     1      -3.427  11.698  18.749  0.00  0.00    +0.000 A 
ATOM      7  C   UNL     1      -2.148  11.582  19.314  0.00  0.00    +0.000 A 
ATOM      8  C   UNL     1      -1.850  12.352  20.575  0.00  0.00    +0.000 C 
ATOM      9  C   UNL     1      -0.485  12.017  21.173  0.00  0.00    +0.000 C 
ATOM     10  N   UNL     1       0.521  11.921  20.104  0.00  0.00    +0.000 NA
ENDROOT
BRANCH   4  11
ATOM     11  O   UNL     1      -3.150   9.511  15.828  0.00  0.00    +0.000 OA
ATOM     12  C   UNL     1      -2.857  10.178  14.599  0.00  0.00    +0.000 C 
ENDBRANCH   4  11
BRANCH   5  13
ATOM     13  O   UNL     1      -5.008  11.095  16.991  0.00  0.00    +0.000 OA
ATOM     14  C   UNL     1      -5.729  12.311  17.172  0.00  0.00    +0.000 C 
ENDBRANCH   5  13
BRANCH   1  15
ATOM     15  C   UNL     1       1.355  10.275  18.274  0.00  0.00    +0.000 C 
BRANCH  15  19
ATOM     16  C   UNL     1       3.357   6.508  18.841  0.00  0.00    +0.000 A 
ATOM     17  C   UNL     1       3.596   7.257  17.676  0.00  0.00    +0.000 A 
ATOM     18  C   UNL     1       2.926   8.452  17.437  0.00  0.00    +0.000 A 
ATOM     19  C   UNL     1       1.924   8.874  18.302  0.00  0.00    +0.000 A 
ATOM     20  C   UNL     1       1.537   8.009  19.337  0.00  0.00    +0.000 A 
ATOM     21  C   UNL     1       2.267   6.850  19.651  0.00  0.00    +0.000 A 
BRANCH  16  23
ATOM     22  C   UNL     1       4.579   4.645  18.066  0.00  0.00    +0.000 C 
ATOM     23  O   UNL     1       4.190   5.471  19.173  0.00  0.00    +0.000 OA
ENDBRANCH  16  23
BRANCH  21  24
ATOM     24  O   UNL     1       1.785   6.260  20.785  0.00  0.00    +0.000 OA
ATOM     25  C   UNL     1       1.412   4.894  20.793  0.00  0.00    +0.000 C 
ENDBRANCH  21  24
ENDBRANCH  15  19
ENDBRANCH   1  15
BRANCH  10  26
ATOM     26  C   UNL     1       1.890  12.104  20.611  0.00  0.00    +0.000 C 
BRANCH  26  27
ATOM     27  C   UNL     1       2.516  13.465  20.333  0.00  0.00    +0.000 C 
ATOM     28  O   UNL     1       3.278  14.071  21.067  0.00  0.00    +0.000 OA
BRANCH  27  29
ATOM     29  O   UNL     1       2.075  13.903  19.121  0.00  0.00    +0.000 OA
BRANCH  29  30
ATOM     30  C   UNL     1       2.654  15.125  18.654  0.00  0.00    +0.000 C 
BRANCH  30  31
ATOM     31  C   UNL     1       1.553  16.115  18.383  0.00  0.00    +0.000 A 
ATOM     32  C   UNL     1       1.836  17.320  17.720  0.00  0.00    +0.000 A 
ATOM     33  C   UNL     1       0.829  18.247  17.469  0.00  0.00    +0.000 A 
ATOM     34  C   UNL     1      -0.487  17.983  17.901  0.00  0.00    +0.000 A 
ATOM     35  C   UNL     1      -0.767  16.791  18.568  0.00  0.00    +0.000 A 
ATOM     36  C   UNL     1       0.243  15.863  18.814  0.00  0.00    +0.000 A 
ENDBRANCH  30  31
ENDBRANCH  29  30
ENDBRANCH  27  29
ENDBRANCH  26  27
ENDBRANCH  10  26
TORSDOF 11
ENDMDL
MODEL 3
REMARK VINA RESULT:      -6.9      1.678      2.277
REMARK  Name = 
REMARK  15 active torsions:
REMARK  status: ('A' for Active; 'I' for Inactive)
REMARK    1  A    between atoms: C_1  and  O_2
REMARK    2  A    between atoms: O_2  and  C_3
REMARK    3  A    between atoms: C_6  and  C_7
REMARK    4  A    between atoms: C_7  and  C_8
REMARK    5  A    between atoms: C_11  and  O_12
REMARK    6  A    between atoms: O_12  and  C_13
REMARK    7  A    between atoms: C_14  and  O_15
REMARK    8  A    between atoms: O_15  and  C_16
REMARK    9  A    between atoms: N_21  and  C_22
REMARK   10  A    between atoms: C_22  and  C_23
REMARK   11  A    between atoms: C_23  and  O_25
REMARK   12  A    between atoms: O_25  and  C_26
REMARK   13  A    between atoms: C_26  and  C_27
REMARK   14  A    between atoms: C_34  and  O_35
REMARK   15  A    between atoms: O_35  and  C_36
REMARK                            x       y       z     vdW  Elec       q    Type
REMARK                         _______ _______ _______ _____ _____    ______ ____
ROOT
ATOM      1  C   UNL     1      -0.252  10.692  19.431  0.00  0.00    +0.000 C 
ATOM      2  C   UNL     1      -1.607  10.898  18.736  0.00  0.00    +0.000 A 
ATOM      3  C   UNL     1      -1.952  10.210  17.568  0.00  0.00    +0.000 A 
ATOM      4  C   UNL     1      -3.197  10.374  16.945  0.00  0.00    +0.000 A 
ATOM      5  C   UNL     1      -4.126  11.280  17.481  0.00  0.00    +0.000 A 
ATOM      6  C   UNL     1      -3.798  11.959  18.658  0.00  0.00    +0.000 A 
ATOM      7  C   UNL     1      -2.566  11.758  19.297  0.00  0.00    +0.000 A 
ATOM      8  C   UNL     1      -2.276  12.535  20.555  0.00  0.00    +0.000 C 
ATOM      9  C   UNL     1      -0.978  12.109  21.238  0.00  0.00    +0.000 C 
ATOM     10  N   UNL     1       0.075  11.906  20.229  0.00  0.00    +0.000 NA
ENDROOT
BRANCH   4  11
ATOM     11  O   UNL     1      -3.538   9.682  15.805  0.00  0.00    +0.000 OA
ATOM     12  C   UNL     1      -2.856  10.095  14.619  0.00  0.00    +0.000 C 
ENDBRANCH   4  11
BRANCH   5  13
ATOM     13  O   UNL     1      -5.324  11.436  16.827  0.00  0.00    +0.000 OA
ATOM     14  C   UNL     1      -6.119  12.557  17.206  0.00  0.00    +0.000 C 
ENDBRANCH   5  13
BRANCH   1  15
ATOM     15  C   UNL     1       0.873  10.152  18.486  0.00  0.00    +0.000 C 
BRANCH  15  19
ATOM     16  C   UNL     1       2.806   6.383  19.245  0.00  0.00    +0.000 A 
ATOM     17  C   UNL     1       2.095   7.022  20.275  0.00  0.00    +0.000 A 
ATOM     18  C   UNL     1       1.503   8.266  20.078  0.00  0.00    +0.000 A 
ATOM     19  C   UNL     1       1.698   8.949  18.884  0.00  0.00    +0.000 A 
ATOM     20  C   UNL     1       2.594   8.405  17.950  0.00  0.00    +0.000 A 
ATOM     21  C   UNL     1       3.118   7.109  18.089  0.00  0.00    +0.000 A 
BRANCH  16  23
ATOM     22  C   UNL     1       2.546   4.386  20.474  0.00  0.00    +0.000 C 
ATOM     23  O   UNL     1       3.172   5.069  19.378  0.00  0.00    +0.000 OA
ENDBRANCH  16  23
BRANCH  21  24
ATOM     24  O   UNL     1       3.838   6.751  16.984  0.00  0.00    +0.000 OA
ATOM     25  C   UNL     1       5.252   6.677  17.029  0.00  0.00    +0.000 C 
ENDBRANCH  21  24
ENDBRANCH  15  19
ENDBRANCH   1  15
BRANCH  10  26
ATOM     26  C   UNL     1       1.424  11.994  20.809  0.00  0.00    +0.000 C 
BRANCH  26  27
ATOM     27  C   UNL     1       2.099  13.355  20.694  0.00  0.00    +0.000 C 
ATOM     28  O   UNL     1       2.633  13.813  19.698  0.00  0.00    +0.000 OA
BRANCH  27  29
ATOM     29  O   UNL     1       2.016  13.980  21.901  0.00  0.00    +0.000 OA
BRANCH  29  30
ATOM     30  C   UNL     1       1.745  15.384  21.855  0.00  0.00    +0.000 C 
BRANCH  30  31
ATOM     31  C   UNL     1       0.255  15.596  21.901  0.00  0.00    +0.000 A 
ATOM     32  C   UNL     1      -0.464  15.299  23.069  0.00  0.00    +0.000 A 
ATOM     33  C   UNL     1      -1.841  15.483  23.122  0.00  0.00    +0.000 A 
ATOM     34  C   UNL     1      -2.528  15.955  21.985  0.00  0.00    +0.000 A 
ATOM     35  C   UNL     1      -1.816  16.242  20.821  0.00  0.00    +0.000 A 
ATOM     36  C   UNL     1      -0.435  16.060  20.773  0.00  0.00    +0.000 A 
ENDBRANCH  30  31
ENDBRANCH  29  30
ENDBRANCH  27  29
ENDBRANCH  26  27
ENDBRANCH  10  26
TORSDOF 11
ENDMDL
MODEL 4
REMARK VINA RESULT:      -6.8      2.191      8.279
REMARK  Name = 
REMARK  15 active torsions:
REMARK  status: ('A' for Active; 'I' for Inactive)
REMARK    1  A    between atoms: C_1  and  O_2
REMARK    2  A    between atoms: O_2  and  C_3
REMARK    3  A    between atoms: C_6  and  C_7
REMARK    4  A    between atoms: C_7  and  C_8
REMARK    5  A    between atoms: C_11  and  O_12
REMARK    6  A    between atoms: O_12  and  C_13
REMARK    7  A    between atoms: C_14  and  O_15
REMARK    8  A    between atoms: O_15  and  C_16
REMARK    9  A    between atoms: N_21  and  C_22
REMARK   10  A    between atoms: C_22  and  C_23
REMARK   11  A    between atoms: C_23  and  O_25
REMARK   12  A    between atoms: O_25  and  C_26
REMARK   13  A    between atoms: C_26  and  C_27
REMARK   14  A    between atoms: C_34  and  O_35
REMARK   15  A    between atoms: O_35  and  C_36
REMARK                            x       y       z     vdW  Elec       q    Type
REMARK                         _______ _______ _______ _____ _____    ______ ____
ROOT
ATOM      1  C   UNL     1      -0.002  11.769  18.879  0.00  0.00    +0.000 C 
ATOM      2  C   UNL     1      -1.390  12.195  19.381  0.00  0.00    +0.000 A 
ATOM      3  C   UNL     1      -1.563  13.288  20.238  0.00  0.00    +0.000 A 
ATOM      4  C   UNL     1      -2.830  13.698  20.677  0.00  0.00    +0.000 A 
ATOM      5  C   UNL     1      -3.968  12.979  20.280  0.00  0.00    +0.000 A 
ATOM      6  C   UNL     1      -3.807  11.897  19.410  0.00  0.00    +0.000 A 
ATOM      7  C   UNL     1      -2.540  11.519  18.942  0.00  0.00    +0.000 A 
ATOM      8  C   UNL     1      -2.442  10.334  18.017  0.00  0.00    +0.000 C 
ATOM      9  C   UNL     1      -1.037  10.125  17.455  0.00  0.00    +0.000 C 
ATOM     10  N   UNL     1      -0.038  10.323  18.518  0.00  0.00    +0.000 NA
ENDROOT
BRANCH   4  11
ATOM     11  O   UNL     1      -2.996  14.784  21.507  0.00  0.00    +0.000 OA
ATOM     12  C   UNL     1      -2.729  16.052  20.905  0.00  0.00    +0.000 C 
ENDBRANCH   4  11
BRANCH   5  13
ATOM     13  O   UNL     1      -5.189  13.392  20.755  0.00  0.00    +0.000 OA
ATOM     14  C   UNL     1      -6.198  13.658  19.783  0.00  0.00    +0.000 C 
ENDBRANCH   5  13
BRANCH   1  15
ATOM     15  C   UNL     1       1.178  12.230  19.799  0.00  0.00    +0.000 C 
BRANCH  15  19
ATOM     16  C   UNL     1       2.980  15.926  18.527  0.00  0.00    +0.000 A 
ATOM     17  C   UNL     1       3.274  14.734  17.843  0.00  0.00    +0.000 A 
ATOM     18  C   UNL     1       2.751  13.515  18.260  0.00  0.00    +0.000 A 
ATOM     19  C   UNL     1       2.008  13.440  19.432  0.00  0.00    +0.000 A 
ATOM     20  C   UNL     1       1.910  14.592  20.227  0.00  0.00    +0.000 A 
ATOM     21  C   UNL     1       2.345  15.849  19.773  0.00  0.00    +0.000 A 
BRANCH  16  23
ATOM     22  C   UNL     1       2.535  17.477  16.807  0.00  0.00    +0.000 C 
ATOM     23  O   UNL     1       3.303  17.135  17.969  0.00  0.00    +0.000 OA
ENDBRANCH  16  23
BRANCH  21  24
ATOM     24  O   UNL     1       2.005  16.833  20.658  0.00  0.00    +0.000 OA
ATOM     25  C   UNL     1       2.971  17.396  21.528  0.00  0.00    +0.000 C 
ENDBRANCH  21  24
ENDBRANCH  15  19
ENDBRANCH   1  15
BRANCH  10  26
ATOM     26  C   UNL     1       1.242   9.670  18.207  0.00  0.00    +0.000 C 
BRANCH  26  27
ATOM     27  C   UNL     1       1.638   8.529  19.136  0.00  0.00    +0.000 C 
ATOM     28  O   UNL     1       1.533   8.520  20.352  0.00  0.00    +0.000 OA
BRANCH  27  29
ATOM     29  O   UNL     1       2.142   7.514  18.383  0.00  0.00    +0.000 OA
BRANCH  29  30
ATOM     30  C   UNL     1       2.966   6.574  19.078  0.00  0.00    +0.000 C 
BRANCH  30  31
ATOM     31  C   UNL     1       2.216   5.275  19.216  0.00  0.00    +0.000 A 
ATOM     32  C   UNL     1       1.727   4.873  20.468  0.00  0.00    +0.000 A 
ATOM     33  C   UNL     1       1.038   3.672  20.611  0.00  0.00    +0.000 A 
ATOM     34  C   UNL     1       0.844   2.841  19.489  0.00  0.00    +0.000 A 
ATOM     35  C   UNL     1       1.337   3.236  18.246  0.00  0.00    +0.000 A 
ATOM     36  C   UNL     1       2.022   4.441  18.106  0.00  0.00    +0.000 A 
ENDBRANCH  30  31
ENDBRANCH  29  30
ENDBRANCH  27  29
ENDBRANCH  26  27
ENDBRANCH  10  26
TORSDOF 11
ENDMDL
MODEL 5
REMARK VINA RESULT:      -6.8      1.727      8.555
REMARK  Name = 
REMARK  15 active torsions:
REMARK  status: ('A' for Active; 'I' for Inactive)
REMARK    1  A    between atoms: C_1  and  O_2
REMARK    2  A    between atoms: O_2  and  C_3
REMARK    3  A    between atoms: C_6  and  C_7
REMARK    4  A    between atoms: C_7  and  C_8
REMARK    5  A    between atoms: C_11  and  O_12
REMARK    6  A    between atoms: O_12  and  C_13
REMARK    7  A    between atoms: C_14  and  O_15
REMARK    8  A    between atoms: O_15  and  C_16
REMARK    9  A    between atoms: N_21  and  C_22
REMARK   10  A    between atoms: C_22  and  C_23
REMARK   11  A    between atoms: C_23  and  O_25
REMARK   12  A    between atoms: O_25  and  C_26
REMARK   13  A    between atoms: C_26  and  C_27
REMARK   14  A    between atoms: C_34  and  O_35
REMARK   15  A    between atoms: O_35  and  C_36
REMARK                            x       y       z     vdW  Elec       q    Type
REMARK                         _______ _______ _______ _____ _____    ______ ____
ROOT
ATOM      1  C   UNL     1       0.130  12.663  19.260  0.00  0.00    +0.000 C 
ATOM      2  C   UNL     1       0.890  13.995  19.355  0.00  0.00    +0.000 A 
ATOM      3  C   UNL     1       0.492  15.127  18.636  0.00  0.00    +0.000 A 
ATOM      4  C   UNL     1       1.165  16.353  18.740  0.00  0.00    +0.000 A 
ATOM      5  C   UNL     1       2.299  16.453  19.562  0.00  0.00    +0.000 A 
ATOM      6  C   UNL     1       2.694  15.332  20.298  0.00  0.00    +0.000 A 
ATOM      7  C   UNL     1       1.990  14.122  20.220  0.00  0.00    +0.000 A 
ATOM      8  C   UNL     1       2.482  12.952  21.032  0.00  0.00    +0.000 C 
ATOM      9  C   UNL     1       1.542  11.750  20.984  0.00  0.00    +0.000 C 
ATOM     10  N   UNL     1       1.055  11.549  19.610  0.00  0.00    +0.000 NA
ENDROOT
BRANCH   4  11
ATOM     11  O   UNL     1       0.759  17.468  18.043  0.00  0.00    +0.000 OA
ATOM     12  C   UNL     1      -0.657  17.616  17.911  0.00  0.00    +0.000 C 
ENDBRANCH   4  11
BRANCH   5  13
ATOM     13  O   UNL     1       2.950  17.661  19.615  0.00  0.00    +0.000 OA
ATOM     14  C   UNL     1       4.333  17.628  19.960  0.00  0.00    +0.000 C 
ENDBRANCH   5  13
BRANCH   1  15
ATOM     15  C   UNL     1      -0.700  12.496  17.944  0.00  0.00    +0.000 C 
BRANCH  15  19
ATOM     16  C   UNL     1      -4.846  11.366  17.694  0.00  0.00    +0.000 A 
ATOM     17  C   UNL     1      -4.317  11.817  18.916  0.00  0.00    +0.000 A 
ATOM     18  C   UNL     1      -2.971  12.139  19.044  0.00  0.00    +0.000 A 
ATOM     19  C   UNL     1      -2.097  11.918  17.986  0.00  0.00    +0.000 A 
ATOM     20  C   UNL     1      -2.590  11.258  16.850  0.00  0.00    +0.000 A 
ATOM     21  C   UNL     1      -3.962  11.017  16.665  0.00  0.00    +0.000 A 
BRANCH  16  23
ATOM     22  C   UNL     1      -6.906  10.691  18.624  0.00  0.00    +0.000 C 
ATOM     23  O   UNL     1      -6.203  11.284  17.522  0.00  0.00    +0.000 OA
ENDBRANCH  16  23
BRANCH  21  24
ATOM     24  O   UNL     1      -4.206  10.503  15.423  0.00  0.00    +0.000 OA
ATOM     25  C   UNL     1      -3.146  10.258  14.516  0.00  0.00    +0.000 C 
ENDBRANCH  21  24
ENDBRANCH  15  19
ENDBRANCH   1  15
BRANCH  10  26
ATOM     26  C   UNL     1       0.579  10.176  19.384  0.00  0.00    +0.000 C 
BRANCH  26  27
ATOM     27  C   UNL     1       1.541   9.265  18.631  0.00  0.00    +0.000 C 
ATOM     28  O   UNL     1       1.937   9.421  17.488  0.00  0.00    +0.000 OA
BRANCH  27  29
ATOM     29  O   UNL     1       1.884   8.231  19.448  0.00  0.00    +0.000 OA
BRANCH  29  30
ATOM     30  C   UNL     1       2.782   7.268  18.888  0.00  0.00    +0.000 C 
BRANCH  30  31
ATOM     31  C   UNL     1       2.206   5.891  19.085  0.00  0.00    +0.000 A 
ATOM     32  C   UNL     1       2.008   5.045  17.982  0.00  0.00    +0.000 A 
ATOM     33  C   UNL     1       1.470   3.773  18.149  0.00  0.00    +0.000 A 
ATOM     34  C   UNL     1       1.103   3.334  19.437  0.00  0.00    +0.000 A 
ATOM     35  C   UNL     1       1.290   4.176  20.532  0.00  0.00    +0.000 A 
ATOM     36  C   UNL     1       1.833   5.448  20.361  0.00  0.00    +0.000 A 
ENDBRANCH  30  31
ENDBRANCH  29  30
ENDBRANCH  27  29
ENDBRANCH  26  27
ENDBRANCH  10  26
TORSDOF 11
ENDMDL
MODEL 6
REMARK VINA RESULT:      -6.7      1.856      7.960
REMARK  Name = 
REMARK  15 active torsions:
REMARK  status: ('A' for Active; 'I' for Inactive)
REMARK    1  A    between atoms: C_1  and  O_2
REMARK    2  A    between atoms: O_2  and  C_3
REMARK    3  A    between atoms: C_6  and  C_7
REMARK    4  A    between atoms: C_7  and  C_8
REMARK    5  A    between atoms: C_11  and  O_12
REMARK    6  A    between atoms: O_12  and  C_13
REMARK    7  A    between atoms: C_14  and  O_15
REMARK    8  A    between atoms: O_15  and  C_16
REMARK    9  A    between atoms: N_21  and  C_22
REMARK   10  A    between atoms: C_22  and  C_23
REMARK   11  A    between atoms: C_23  and  O_25
REMARK   12  A    between atoms: O_25  and  C_26
REMARK   13  A    between atoms: C_26  and  C_27
REMARK   14  A    between atoms: C_34  and  O_35
REMARK   15  A    between atoms: O_35  and  C_36
REMARK                            x       y       z     vdW  Elec       q    Type
REMARK                         _______ _______ _______ _____ _____    ______ ____
ROOT
ATOM      1  C   UNL     1      -0.617  11.596  19.257  0.00  0.00    +0.000 C 
ATOM      2  C   UNL     1      -2.143  11.656  19.095  0.00  0.00    +0.000 A 
ATOM      3  C   UNL     1      -2.922  12.608  19.762  0.00  0.00    +0.000 A 
ATOM      4  C   UNL     1      -4.312  12.684  19.596  0.00  0.00    +0.000 A 
ATOM      5  C   UNL     1      -4.963  11.760  18.764  0.00  0.00    +0.000 A 
ATOM      6  C   UNL     1      -4.192  10.816  18.080  0.00  0.00    +0.000 A 
ATOM      7  C   UNL     1      -2.797  10.773  18.219  0.00  0.00    +0.000 A 
ATOM      8  C   UNL     1      -2.033   9.719  17.460  0.00  0.00    +0.000 C 
ATOM      9  C   UNL     1      -0.518   9.881  17.570  0.00  0.00    +0.000 C 
ATOM     10  N   UNL     1      -0.149  10.214  18.955  0.00  0.00    +0.000 NA
ENDROOT
BRANCH   4  11
ATOM     11  O   UNL     1      -5.071  13.634  20.242  0.00  0.00    +0.000 OA
ATOM     12  C   UNL     1      -4.908  13.678  21.661  0.00  0.00    +0.000 C 
ENDBRANCH   4  11
BRANCH   5  13
ATOM     13  O   UNL     1      -6.329  11.847  18.650  0.00  0.00    +0.000 OA
ATOM     14  C   UNL     1      -7.092  10.840  19.311  0.00  0.00    +0.000 C 
ENDBRANCH   5  13
BRANCH   1  15
ATOM     15  C   UNL     1      -0.092  12.238  20.584  0.00  0.00    +0.000 C 
BRANCH  15  19
ATOM     16  C   UNL     1       2.839  15.303  19.845  0.00  0.00    +0.000 A 
ATOM     17  C   UNL     1       3.159  14.217  20.678  0.00  0.00    +0.000 A 
ATOM     18  C   UNL     1       2.218  13.238  20.981  0.00  0.00    +0.000 A 
ATOM     19  C   UNL     1       0.906  13.374  20.545  0.00  0.00    +0.000 A 
ATOM     20  C   UNL     1       0.543  14.570  19.907  0.00  0.00    +0.000 A 
ATOM     21  C   UNL     1       1.497  15.521  19.507  0.00  0.00    +0.000 A 
BRANCH  16  23
ATOM     22  C   UNL     1       4.513  15.611  18.212  0.00  0.00    +0.000 C 
ATOM     23  O   UNL     1       3.832  16.118  19.369  0.00  0.00    +0.000 OA
ENDBRANCH  16  23
BRANCH  21  24
ATOM     24  O   UNL     1       0.918  16.518  18.775  0.00  0.00    +0.000 OA
ATOM     25  C   UNL     1      -0.488  16.581  18.614  0.00  0.00    +0.000 C 
ENDBRANCH  21  24
ENDBRANCH  15  19
ENDBRANCH   1  15
BRANCH  10  26
ATOM     26  C   UNL     1       1.256   9.895  19.248  0.00  0.00    +0.000 C 
BRANCH  26  27
ATOM     27  C   UNL     1       1.899   8.865  18.328  0.00  0.00    +0.000 C 
ATOM     28  O   UNL     1       2.217   9.037  17.163  0.00  0.00    +0.000 OA
BRANCH  27  29
ATOM     29  O   UNL     1       2.056   7.704  19.023  0.00  0.00    +0.000 OA
BRANCH  29  30
ATOM     30  C   UNL     1       2.607   6.609  18.285  0.00  0.00    +0.000 C 
BRANCH  30  31
ATOM     31  C   UNL     1       2.052   5.322  18.836  0.00  0.00    +0.000 A 
ATOM     32  C   UNL     1       1.754   4.256  17.972  0.00  0.00    +0.000 A 
ATOM     33  C   UNL     1       1.235   3.064  18.467  0.00  0.00    +0.000 A 
ATOM     34  C   UNL     1       0.987   2.930  19.848  0.00  0.00    +0.000 A 
ATOM     35  C   UNL     1       1.274   3.991  20.706  0.00  0.00    +0.000 A 
ATOM     36  C   UNL     1       1.798   5.182  20.207  0.00  0.00    +0.000 A 
ENDBRANCH  30  31
ENDBRANCH  29  30
ENDBRANCH  27  29
ENDBRANCH  26  27
ENDBRANCH  10  26
TORSDOF 11
ENDMDL
MODEL 7
REMARK VINA RESULT:      -6.7      2.491      8.172
REMARK  Name = 
REMARK  15 active torsions:
REMARK  status: ('A' for Active; 'I' for Inactive)
REMARK    1  A    between atoms: C_1  and  O_2
REMARK    2  A    between atoms: O_2  and  C_3
REMARK    3  A    between atoms: C_6  and  C_7
REMARK    4  A    between atoms: C_7  and  C_8
REMARK    5  A    between atoms: C_11  and  O_12
REMARK    6  A    between atoms: O_12  and  C_13
REMARK    7  A    between atoms: C_14  and  O_15
REMARK    8  A    between atoms: O_15  and  C_16
REMARK    9  A    between atoms: N_21  and  C_22
REMARK   10  A    between atoms: C_22  and  C_23
REMARK   11  A    between atoms: C_23  and  O_25
REMARK   12  A    between atoms: O_25  and  C_26
REMARK   13  A    between atoms: C_26  and  C_27
REMARK   14  A    between atoms: C_34  and  O_35
REMARK   15  A    between atoms: O_35  and  C_36
REMARK                            x       y       z     vdW  Elec       q    Type
REMARK                         _______ _______ _______ _____ _____    ______ ____
ROOT
ATOM      1  C   UNL     1       0.053  11.777  19.074  0.00  0.00    +0.000 C 
ATOM      2  C   UNL     1      -1.362  12.191  19.504  0.00  0.00    +0.000 A 
ATOM      3  C   UNL     1      -1.586  13.243  20.399  0.00  0.00    +0.000 A 
ATOM      4  C   UNL     1      -2.878  13.643  20.773  0.00  0.00    +0.000 A 
ATOM      5  C   UNL     1      -3.991  12.953  20.267  0.00  0.00    +0.000 A 
ATOM      6  C   UNL     1      -3.778  11.912  19.359  0.00  0.00    +0.000 A 
ATOM      7  C   UNL     1      -2.485  11.546  18.958  0.00  0.00    +0.000 A 
ATOM      8  C   UNL     1      -2.332  10.406  17.985  0.00  0.00    +0.000 C 
ATOM      9  C   UNL     1      -0.894  10.212  17.508  0.00  0.00    +0.000 C 
ATOM     10  N   UNL     1       0.033  10.351  18.643  0.00  0.00    +0.000 NA
ENDROOT
BRANCH   4  11
ATOM     11  O   UNL     1      -3.092  14.689  21.641  0.00  0.00    +0.000 OA
ATOM     12  C   UNL     1      -2.494  14.539  22.931  0.00  0.00    +0.000 C 
ENDBRANCH   4  11
BRANCH   5  13
ATOM     13  O   UNL     1      -5.238  13.353  20.680  0.00  0.00    +0.000 OA
ATOM     14  C   UNL     1      -6.077  13.951  19.696  0.00  0.00    +0.000 C 
ENDBRANCH   5  13
BRANCH   1  15
ATOM     15  C   UNL     1       1.172  12.185  20.091  0.00  0.00    +0.000 C 
BRANCH  15  19
ATOM     16  C   UNL     1       3.543  15.635  19.093  0.00  0.00    +0.000 A 
ATOM     17  C   UNL     1       3.300  14.650  18.121  0.00  0.00    +0.000 A 
ATOM     18  C   UNL     1       2.583  13.498  18.424  0.00  0.00    +0.000 A 
ATOM     19  C   UNL     1       2.182  13.251  19.732  0.00  0.00    +0.000 A 
ATOM     20  C   UNL     1       2.624  14.128  20.735  0.00  0.00    +0.000 A 
ATOM     21  C   UNL     1       3.261  15.344  20.433  0.00  0.00    +0.000 A 
BRANCH  16  23
ATOM     22  C   UNL     1       5.466  16.962  18.769  0.00  0.00    +0.000 C 
ATOM     23  O   UNL     1       4.036  16.859  18.722  0.00  0.00    +0.000 OA
ENDBRANCH  16  23
BRANCH  21  24
ATOM     24  O   UNL     1       3.455  16.087  21.563  0.00  0.00    +0.000 OA
ATOM     25  C   UNL     1       4.670  16.008  22.287  0.00  0.00    +0.000 C 
ENDBRANCH  21  24
ENDBRANCH  15  19
ENDBRANCH   1  15
BRANCH  10  26
ATOM     26  C   UNL     1       1.327   9.703  18.385  0.00  0.00    +0.000 C 
BRANCH  26  27
ATOM     27  C   UNL     1       1.640   8.495  19.260  0.00  0.00    +0.000 C 
ATOM     28  O   UNL     1       1.472   8.415  20.466  0.00  0.00    +0.000 OA
BRANCH  27  29
ATOM     29  O   UNL     1       2.153   7.511  18.471  0.00  0.00    +0.000 OA
BRANCH  29  30
ATOM     30  C   UNL     1       2.996   6.562  19.130  0.00  0.00    +0.000 C 
BRANCH  30  31
ATOM     31  C   UNL     1       2.256   5.257  19.259  0.00  0.00    +0.000 A 
ATOM     32  C   UNL     1       2.048   4.450  18.129  0.00  0.00    +0.000 A 
ATOM     33  C   UNL     1       1.360   3.246  18.233  0.00  0.00    +0.000 A 
ATOM     34  C   UNL     1       0.849   2.838  19.482  0.00  0.00    +0.000 A 
ATOM     35  C   UNL     1       1.047   3.643  20.602  0.00  0.00    +0.000 A 
ATOM     36  C   UNL     1       1.741   4.847  20.496  0.00  0.00    +0.000 A 
ENDBRANCH  30  31
ENDBRANCH  29  30
ENDBRANCH  27  29
ENDBRANCH  26  27
ENDBRANCH  10  26
TORSDOF 11
ENDMDL
MODEL 8
REMARK VINA RESULT:      -6.7      1.943      7.670
REMARK  Name = 
REMARK  15 active torsions:
REMARK  status: ('A' for Active; 'I' for Inactive)
REMARK    1  A    between atoms: C_1  and  O_2
REMARK    2  A    between atoms: O_2  and  C_3
REMARK    3  A    between atoms: C_6  and  C_7
REMARK    4  A    between atoms: C_7  and  C_8
REMARK    5  A    between atoms: C_11  and  O_12
REMARK    6  A    between atoms: O_12  and  C_13
REMARK    7  A    between atoms: C_14  and  O_15
REMARK    8  A    between atoms: O_15  and  C_16
REMARK    9  A    between atoms: N_21  and  C_22
REMARK   10  A    between atoms: C_22  and  C_23
REMARK   11  A    between atoms: C_23  and  O_25
REMARK   12  A    between atoms: O_25  and  C_26
REMARK   13  A    between atoms: C_26  and  C_27
REMARK   14  A    between atoms: C_34  and  O_35
REMARK   15  A    between atoms: O_35  and  C_36
REMARK                            x       y       z     vdW  Elec       q    Type
REMARK                         _______ _______ _______ _____ _____    ______ ____
ROOT
ATOM      1  C   UNL     1      -0.925  11.608  19.234  0.00  0.00    +0.000 C 
ATOM      2  C   UNL     1      -2.451  11.785  19.237  0.00  0.00    +0.000 A 
ATOM      3  C   UNL     1      -3.079  12.779  19.995  0.00  0.00    +0.000 A 
ATOM      4  C   UNL     1      -4.469  12.962  19.981  0.00  0.00    +0.000 A 
ATOM      5  C   UNL     1      -5.273  12.106  19.212  0.00  0.00    +0.000 A 
ATOM      6  C   UNL     1      -4.654  11.121  18.438  0.00  0.00    +0.000 A 
ATOM      7  C   UNL     1      -3.260  10.971  18.426  0.00  0.00    +0.000 A 
ATOM      8  C   UNL     1      -2.664   9.878  17.577  0.00  0.00    +0.000 C 
ATOM      9  C   UNL     1      -1.138   9.924  17.525  0.00  0.00    +0.000 C 
ATOM     10  N   UNL     1      -0.599  10.201  18.867  0.00  0.00    +0.000 NA
ENDROOT
BRANCH   4  11
ATOM     11  O   UNL     1      -5.080  13.953  20.716  0.00  0.00    +0.000 OA
ATOM     12  C   UNL     1      -4.539  14.158  22.023  0.00  0.00    +0.000 C 
ENDBRANCH   4  11
BRANCH   5  13
ATOM     13  O   UNL     1      -6.633  12.297  19.247  0.00  0.00    +0.000 OA
ATOM     14  C   UNL     1      -7.401  11.309  19.931  0.00  0.00    +0.000 C 
ENDBRANCH   5  13
BRANCH   1  15
ATOM     15  C   UNL     1      -0.214  12.182  20.504  0.00  0.00    +0.000 C 
BRANCH  15  19
ATOM     16  C   UNL     1       2.686  15.214  19.548  0.00  0.00    +0.000 A 
ATOM     17  C   UNL     1       3.010  14.206  20.472  0.00  0.00    +0.000 A 
ATOM     18  C   UNL     1       2.078  13.242  20.843  0.00  0.00    +0.000 A 
ATOM     19  C   UNL     1       0.770  13.324  20.383  0.00  0.00    +0.000 A 
ATOM     20  C   UNL     1       0.399  14.458  19.644  0.00  0.00    +0.000 A 
ATOM     21  C   UNL     1       1.347  15.386  19.179  0.00  0.00    +0.000 A 
BRANCH  16  23
ATOM     22  C   UNL     1       4.302  15.459  17.848  0.00  0.00    +0.000 C 
ATOM     23  O   UNL     1       3.675  16.002  19.018  0.00  0.00    +0.000 OA
ENDBRANCH  16  23
BRANCH  21  24
ATOM     24  O   UNL     1       0.764  16.312  18.361  0.00  0.00    +0.000 OA
ATOM     25  C   UNL     1      -0.514  16.845  18.659  0.00  0.00    +0.000 C 
ENDBRANCH  21  24
ENDBRANCH  15  19
ENDBRANCH   1  15
BRANCH  10  26
ATOM     26  C   UNL     1       0.800   9.771  19.003  0.00  0.00    +0.000 C 
BRANCH  26  27
ATOM     27  C   UNL     1       1.073   8.771  20.119  0.00  0.00    +0.000 C 
ATOM     28  O   UNL     1       0.502   8.718  21.196  0.00  0.00    +0.000 OA
BRANCH  27  29
ATOM     29  O   UNL     1       2.075   7.940  19.719  0.00  0.00    +0.000 OA
BRANCH  29  30
ATOM     30  C   UNL     1       2.354   7.935  18.316  0.00  0.00    +0.000 C 
BRANCH  30  31
ATOM     31  C   UNL     1       2.896   6.584  17.931  0.00  0.00    +0.000 A 
ATOM     32  C   UNL     1       2.089   5.441  18.048  0.00  0.00    +0.000 A 
ATOM     33  C   UNL     1       2.580   4.186  17.702  0.00  0.00    +0.000 A 
ATOM     34  C   UNL     1       3.908   4.057  17.246  0.00  0.00    +0.000 A 
ATOM     35  C   UNL     1       4.713   5.190  17.138  0.00  0.00    +0.000 A 
ATOM     36  C   UNL     1       4.216   6.446  17.481  0.00  0.00    +0.000 A 
ENDBRANCH  30  31
ENDBRANCH  29  30
ENDBRANCH  27  29
ENDBRANCH  26  27
ENDBRANCH  10  26
TORSDOF 11
ENDMDL
MODEL 9
REMARK VINA RESULT:      -6.7      2.294      8.237
REMARK  Name = 
REMARK  15 active torsions:
REMARK  status: ('A' for Active; 'I' for Inactive)
REMARK    1  A    between atoms: C_1  and  O_2
REMARK    2  A    between atoms: O_2  and  C_3
REMARK    3  A    between atoms: C_6  and  C_7
REMARK    4  A    between atoms: C_7  and  C_8
REMARK    5  A    between atoms: C_11  and  O_12
REMARK    6  A    between atoms: O_12  and  C_13
REMARK    7  A    between atoms: C_14  and  O_15
REMARK    8  A    between atoms: O_15  and  C_16
REMARK    9  A    between atoms: N_21  and  C_22
REMARK   10  A    between atoms: C_22  and  C_23
REMARK   11  A    between atoms: C_23  and  O_25
REMARK   12  A    between atoms: O_25  and  C_26
REMARK   13  A    between atoms: C_26  and  C_27
REMARK   14  A    between atoms: C_34  and  O_35
REMARK   15  A    between atoms: O_35  and  C_36
REMARK                            x       y       z     vdW  Elec       q    Type
REMARK                         _______ _______ _______ _____ _____    ______ ____
ROOT
ATOM      1  C   UNL     1      -0.496  11.358  20.017  0.00  0.00    +0.000 C 
ATOM      2  C   UNL     1      -1.930  11.502  19.486  0.00  0.00    +0.000 A 
ATOM      3  C   UNL     1      -2.868  12.337  20.103  0.00  0.00    +0.000 A 
ATOM      4  C   UNL     1      -4.170  12.492  19.606  0.00  0.00    +0.000 A 
ATOM      5  C   UNL     1      -4.571  11.767  18.473  0.00  0.00    +0.000 A 
ATOM      6  C   UNL     1      -3.637  10.943  17.839  0.00  0.00    +0.000 A 
ATOM      7  C   UNL     1      -2.324  10.825  18.319  0.00  0.00    +0.000 A 
ATOM      8  C   UNL     1      -1.375   9.908  17.591  0.00  0.00    +0.000 C 
ATOM      9  C   UNL     1       0.058   9.992  18.113  0.00  0.00    +0.000 C 
ATOM     10  N   UNL     1       0.054  10.043  19.584  0.00  0.00    +0.000 NA
ENDROOT
BRANCH   4  11
ATOM     11  O   UNL     1      -5.083  13.329  20.207  0.00  0.00    +0.000 OA
ATOM     12  C   UNL     1      -5.577  12.878  21.470  0.00  0.00    +0.000 C 
ENDBRANCH   4  11
BRANCH   5  13
ATOM     13  O   UNL     1      -5.863  11.922  18.034  0.00  0.00    +0.000 OA
ATOM     14  C   UNL     1      -6.787  10.894  18.384  0.00  0.00    +0.000 C 
ENDBRANCH   5  13
BRANCH   1  15
ATOM     15  C   UNL     1      -0.339  11.717  21.532  0.00  0.00    +0.000 C 
BRANCH  15  19
ATOM     16  C   UNL     1      -0.033  15.696  23.145  0.00  0.00    +0.000 A 
ATOM     17  C   UNL     1      -1.008  14.814  23.642  0.00  0.00    +0.000 A 
ATOM     18  C   UNL     1      -1.169  13.541  23.107  0.00  0.00    +0.000 A 
ATOM     19  C   UNL     1      -0.433  13.154  21.994  0.00  0.00    +0.000 A 
ATOM     20  C   UNL     1       0.372  14.118  21.368  0.00  0.00    +0.000 A 
ATOM     21  C   UNL     1       0.622  15.373  21.950  0.00  0.00    +0.000 A 
BRANCH  16  23
ATOM     22  C   UNL     1      -0.529  17.978  23.473  0.00  0.00    +0.000 C 
ATOM     23  O   UNL     1       0.270  16.842  23.832  0.00  0.00    +0.000 OA
ENDBRANCH  16  23
BRANCH  21  24
ATOM     24  O   UNL     1       1.551  16.070  21.231  0.00  0.00    +0.000 OA
ATOM     25  C   UNL     1       1.622  15.948  19.822  0.00  0.00    +0.000 C 
ENDBRANCH  21  24
ENDBRANCH  15  19
ENDBRANCH   1  15
BRANCH  10  26
ATOM     26  C   UNL     1       1.341   9.624  20.158  0.00  0.00    +0.000 C 
BRANCH  26  27
ATOM     27  C   UNL     1       1.253   8.622  21.303  0.00  0.00    +0.000 C 
ATOM     28  O   UNL     1       1.328   8.878  22.493  0.00  0.00    +0.000 OA
BRANCH  27  29
ATOM     29  O   UNL     1       1.082   7.378  20.775  0.00  0.00    +0.000 OA
BRANCH  29  30
ATOM     30  C   UNL     1       2.230   6.812  20.136  0.00  0.00    +0.000 C 
BRANCH  30  31
ATOM     31  C   UNL     1       1.884   5.431  19.644  0.00  0.00    +0.000 A 
ATOM     32  C   UNL     1       2.139   5.073  18.311  0.00  0.00    +0.000 A 
ATOM     33  C   UNL     1       1.818   3.804  17.842  0.00  0.00    +0.000 A 
ATOM     34  C   UNL     1       1.212   2.871  18.709  0.00  0.00    +0.000 A 
ATOM     35  C   UNL     1       0.950   3.229  20.031  0.00  0.00    +0.000 A 
ATOM     36  C   UNL     1       1.277   4.500  20.498  0.00  0.00    +0.000 A 
ENDBRANCH  30  31
ENDBRANCH  29  30
ENDBRANCH  27  29
ENDBRANCH  26  27
ENDBRANCH  10  26
TORSDOF 11
ENDMDL
