MODEL 1
REMARK VINA RESULT:      -7.0      0.000      0.000
REMARK  Name = 
REMARK  4 active torsions:
REMARK  status: ('A' for Active; 'I' for Inactive)
REMARK    1  A    between atoms: C_1  and  C_2
REMARK    2  A    between atoms: C_2  and  N_3
REMARK    3  A    between atoms: C_4  and  C_6
REMARK    4  A    between atoms: C_15  and  C_16
REMARK                            x       y       z     vdW  Elec       q    Type
REMARK                         _______ _______ _______ _____ _____    ______ ____
ROOT
ATOM      1  N   UNL     1       4.385   5.002  17.001  0.00  0.00    +0.000 N 
ATOM      2  C   UNL     1       3.535   5.677  17.859  0.00  0.00    +0.000 C 
ATOM      3  O   UNL     1       3.451   6.900  17.911  0.00  0.00    +0.000 OA
ATOM      4  H   UNL     1       4.237   4.016  16.841  0.00  0.00    +0.000 HD
ENDROOT
BRANCH   1   6
ATOM      5  C   UNL     1       4.788   7.064  15.687  0.00  0.00    +0.000 C 
ATOM      6  C   UNL     1       5.326   5.684  16.082  0.00  0.00    +0.000 C 
ATOM      7  C   UNL     1       5.622   4.801  14.869  0.00  0.00    +0.000 C 
ATOM      8  C   UNL     1       6.769   3.914  15.320  0.00  0.00    +0.000 C 
ATOM      9  O   UNL     1       7.377   4.521  16.465  0.00  0.00    +0.000 OA
ATOM     10  C   UNL     1       6.767   5.810  16.657  0.00  0.00    +0.000 C 
BRANCH  10  11
ATOM     11  C   UNL     1       6.910   6.265  18.086  0.00  0.00    +0.000 C 
ATOM     12  C   UNL     1       7.979   5.783  19.041  0.00  0.00    +0.000 C 
ATOM     13  C   UNL     1       8.067   7.168  18.471  0.00  0.00    +0.000 C 
ENDBRANCH  10  11
ENDBRANCH   1   6
BRANCH   2  14
ATOM     14  C   UNL     1       2.665   4.876  18.736  0.00  0.00    +0.000 A 
ATOM     15  C   UNL     1       2.536   5.074  20.092  0.00  0.00    +0.000 A 
ATOM     16  N   UNL     1       1.704   4.353  20.880  0.00  0.00    +0.000 NA
ATOM     17  C   UNL     1       0.966   3.421  20.252  0.00  0.00    +0.000 A 
ATOM     18  N   UNL     1       0.998   3.147  18.940  0.00  0.00    +0.000 NA
ATOM     19  C   UNL     1       1.851   3.897  18.205  0.00  0.00    +0.000 A 
ENDBRANCH   2  14
TORSDOF 3
ENDMDL
MODEL 2
REMARK VINA RESULT:      -6.9      2.285      5.770
REMARK  Name = 
REMARK  4 active torsions:
REMARK  status: ('A' for Active; 'I' for Inactive)
REMARK    1  A    between atoms: C_1  and  C_2
REMARK    2  A    between atoms: C_2  and  N_3
REMARK    3  A    between atoms: C_4  and  C_6
REMARK    4  A    between atoms: C_15  and  C_16
REMARK                            x       y       z     vdW  Elec       q    Type
REMARK                         _______ _______ _______ _____ _____    ______ ____
ROOT
ATOM      1  N   UNL     1       4.319   3.870  18.412  0.00  0.00    +0.000 N 
ATOM      2  C   UNL     1       5.083   4.398  17.387  0.00  0.00    +0.000 C 
ATOM      3  O   UNL     1       4.933   4.106  16.205  0.00  0.00    +0.000 OA
ATOM      4  H   UNL     1       4.333   4.321  19.315  0.00  0.00    +0.000 HD
ENDROOT
BRANCH   1   6
ATOM      5  C   UNL     1       3.887   1.459  18.036  0.00  0.00    +0.000 C 
ATOM      6  C   UNL     1       3.265   2.850  18.201  0.00  0.00    +0.000 C 
ATOM      7  C   UNL     1       2.377   3.238  17.017  0.00  0.00    +0.000 C 
ATOM      8  C   UNL     1       1.321   4.146  17.623  0.00  0.00    +0.000 C 
ATOM      9  O   UNL     1       1.307   3.932  19.037  0.00  0.00    +0.000 OA
ATOM     10  C   UNL     1       2.189   2.833  19.325  0.00  0.00    +0.000 C 
BRANCH  10  11
ATOM     11  C   UNL     1       2.671   2.889  20.751  0.00  0.00    +0.000 C 
ATOM     12  C   UNL     1       2.244   3.928  21.765  0.00  0.00    +0.000 C 
ATOM     13  C   UNL     1       1.720   2.526  21.877  0.00  0.00    +0.000 C 
ENDBRANCH  10  11
ENDBRANCH   1   6
BRANCH   2  14
ATOM     14  C   UNL     1       6.113   5.390  17.739  0.00  0.00    +0.000 A 
ATOM     15  C   UNL     1       6.947   5.289  18.830  0.00  0.00    +0.000 A 
ATOM     16  N   UNL     1       7.915   6.191  19.120  0.00  0.00    +0.000 NA
ATOM     17  C   UNL     1       8.046   7.208  18.252  0.00  0.00    +0.000 A 
ATOM     18  N   UNL     1       7.302   7.403  17.153  0.00  0.00    +0.000 NA
ATOM     19  C   UNL     1       6.349   6.473  16.917  0.00  0.00    +0.000 A 
ENDBRANCH   2  14
TORSDOF 3
ENDMDL
MODEL 3
REMARK VINA RESULT:      -6.9      2.265      5.802
REMARK  Name = 
REMARK  4 active torsions:
REMARK  status: ('A' for Active; 'I' for Inactive)
REMARK    1  A    between atoms: C_1  and  C_2
REMARK    2  A    between atoms: C_2  and  N_3
REMARK    3  A    between atoms: C_4  and  C_6
REMARK    4  A    between atoms: C_15  and  C_16
REMARK                            x       y       z     vdW  Elec       q    Type
REMARK                         _______ _______ _______ _____ _____    ______ ____
ROOT
ATOM      1  N   UNL     1       4.331   3.886  18.349  0.00  0.00    +0.000 N 
ATOM      2  C   UNL     1       5.119   4.342  17.307  0.00  0.00    +0.000 C 
ATOM      3  O   UNL     1       4.982   3.984  16.142  0.00  0.00    +0.000 OA
ATOM      4  H   UNL     1       4.338   4.388  19.224  0.00  0.00    +0.000 HD
ENDROOT
BRANCH   1   6
ATOM      5  C   UNL     1       3.864   1.471  18.046  0.00  0.00    +0.000 C 
ATOM      6  C   UNL     1       3.262   2.875  18.179  0.00  0.00    +0.000 C 
ATOM      7  C   UNL     1       2.363   3.240  16.997  0.00  0.00    +0.000 C 
ATOM      8  C   UNL     1       1.325   4.178  17.590  0.00  0.00    +0.000 C 
ATOM      9  O   UNL     1       1.327   4.003  19.010  0.00  0.00    +0.000 OA
ATOM     10  C   UNL     1       2.200   2.902  19.318  0.00  0.00    +0.000 C 
BRANCH  10  11
ATOM     11  C   UNL     1       2.701   2.992  20.735  0.00  0.00    +0.000 C 
ATOM     12  C   UNL     1       2.242   4.017  21.748  0.00  0.00    +0.000 C 
ATOM     13  C   UNL     1       1.787   2.593  21.878  0.00  0.00    +0.000 C 
ENDBRANCH  10  11
ENDBRANCH   1   6
BRANCH   2  14
ATOM     14  C   UNL     1       6.162   5.334  17.618  0.00  0.00    +0.000 A 
ATOM     15  C   UNL     1       6.405   6.464  16.870  0.00  0.00    +0.000 A 
ATOM     16  N   UNL     1       7.344   7.387  17.189  0.00  0.00    +0.000 NA
ATOM     17  C   UNL     1       8.032   7.154  18.319  0.00  0.00    +0.000 A 
ATOM     18  N   UNL     1       7.875   6.098  19.131  0.00  0.00    +0.000 NA
ATOM     19  C   UNL     1       6.926   5.209  18.760  0.00  0.00    +0.000 A 
ENDBRANCH   2  14
TORSDOF 3
ENDMDL
MODEL 4
REMARK VINA RESULT:      -6.9      0.186      1.117
REMARK  Name = 
REMARK  4 active torsions:
REMARK  status: ('A' for Active; 'I' for Inactive)
REMARK    1  A    between atoms: C_1  and  C_2
REMARK    2  A    between atoms: C_2  and  N_3
REMARK    3  A    between atoms: C_4  and  C_6
REMARK    4  A    between atoms: C_15  and  C_16
REMARK                            x       y       z     vdW  Elec       q    Type
REMARK                         _______ _______ _______ _____ _____    ______ ____
ROOT
ATOM      1  N   UNL     1       4.364   5.024  16.918  0.00  0.00    +0.000 N 
ATOM      2  C   UNL     1       3.533   5.756  17.747  0.00  0.00    +0.000 C 
ATOM      3  O   UNL     1       3.505   6.982  17.773  0.00  0.00    +0.000 OA
ATOM      4  H   UNL     1       4.172   4.043  16.776  0.00  0.00    +0.000 HD
ENDROOT
BRANCH   1   6
ATOM      5  C   UNL     1       4.861   7.017  15.532  0.00  0.00    +0.000 C 
ATOM      6  C   UNL     1       5.350   5.642  16.002  0.00  0.00    +0.000 C 
ATOM      7  C   UNL     1       5.660   4.701  14.836  0.00  0.00    +0.000 C 
ATOM      8  C   UNL     1       6.769   3.806  15.361  0.00  0.00    +0.000 C 
ATOM      9  O   UNL     1       7.357   4.445  16.498  0.00  0.00    +0.000 OA
ATOM     10  C   UNL     1       6.776   5.756  16.616  0.00  0.00    +0.000 C 
BRANCH  10  11
ATOM     11  C   UNL     1       6.887   6.268  18.028  0.00  0.00    +0.000 C 
ATOM     12  C   UNL     1       7.943   5.836  19.021  0.00  0.00    +0.000 C 
ATOM     13  C   UNL     1       8.027   7.198  18.398  0.00  0.00    +0.000 C 
ENDBRANCH  10  11
ENDBRANCH   1   6
BRANCH   2  14
ATOM     14  C   UNL     1       2.612   5.015  18.625  0.00  0.00    +0.000 A 
ATOM     15  C   UNL     1       1.939   3.872  18.257  0.00  0.00    +0.000 A 
ATOM     16  N   UNL     1       1.123   3.181  19.088  0.00  0.00    +0.000 NA
ATOM     17  C   UNL     1       1.017   3.663  20.338  0.00  0.00    +0.000 A 
ATOM     18  N   UNL     1       1.632   4.756  20.812  0.00  0.00    +0.000 NA
ATOM     19  C   UNL     1       2.430   5.408  19.936  0.00  0.00    +0.000 A 
ENDBRANCH   2  14
TORSDOF 3
ENDMDL
MODEL 5
REMARK VINA RESULT:      -6.9      2.305      5.707
REMARK  Name = 
REMARK  4 active torsions:
REMARK  status: ('A' for Active; 'I' for Inactive)
REMARK    1  A    between atoms: C_1  and  C_2
REMARK    2  A    between atoms: C_2  and  N_3
REMARK    3  A    between atoms: C_4  and  C_6
REMARK    4  A    between atoms: C_15  and  C_16
REMARK                            x       y       z     vdW  Elec       q    Type
REMARK                         _______ _______ _______ _____ _____    ______ ____
ROOT
ATOM      1  N   UNL     1       4.074   3.352  18.045  0.00  0.00    +0.000 N 
ATOM      2  C   UNL     1       5.298   3.996  18.080  0.00  0.00    +0.000 C 
ATOM      3  O   UNL     1       5.905   4.249  19.115  0.00  0.00    +0.000 OA
ATOM      4  H   UNL     1       3.748   2.968  17.170  0.00  0.00    +0.000 HD
ENDROOT
BRANCH   1   6
ATOM      5  C   UNL     1       4.310   2.474  20.350  0.00  0.00    +0.000 C 
ATOM      6  C   UNL     1       3.336   2.939  19.261  0.00  0.00    +0.000 C 
ATOM      7  C   UNL     1       2.292   1.875  18.917  0.00  0.00    +0.000 C 
ATOM      8  C   UNL     1       1.070   2.672  18.496  0.00  0.00    +0.000 C 
ATOM      9  O   UNL     1       1.218   4.008  18.985  0.00  0.00    +0.000 OA
ATOM     10  C   UNL     1       2.392   4.046  19.816  0.00  0.00    +0.000 C 
BRANCH  10  11
ATOM     11  C   UNL     1       2.940   5.445  19.910  0.00  0.00    +0.000 C 
ATOM     12  C   UNL     1       2.612   6.566  18.949  0.00  0.00    +0.000 C 
ATOM     13  C   UNL     1       2.024   6.580  20.329  0.00  0.00    +0.000 C 
ENDBRANCH  10  11
ENDBRANCH   1   6
BRANCH   2  14
ATOM     14  C   UNL     1       5.914   4.371  16.796  0.00  0.00    +0.000 A 
ATOM     15  C   UNL     1       6.948   5.270  16.665  0.00  0.00    +0.000 A 
ATOM     16  N   UNL     1       7.529   5.577  15.480  0.00  0.00    +0.000 NA
ATOM     17  C   UNL     1       7.051   4.924  14.408  0.00  0.00    +0.000 A 
ATOM     18  N   UNL     1       6.058   4.023  14.415  0.00  0.00    +0.000 NA
ATOM     19  C   UNL     1       5.514   3.759  15.625  0.00  0.00    +0.000 A 
ENDBRANCH   2  14
TORSDOF 3
ENDMDL
MODEL 6
REMARK VINA RESULT:      -6.8      2.319      5.794
REMARK  Name = 
REMARK  4 active torsions:
REMARK  status: ('A' for Active; 'I' for Inactive)
REMARK    1  A    between atoms: C_1  and  C_2
REMARK    2  A    between atoms: C_2  and  N_3
REMARK    3  A    between atoms: C_4  and  C_6
REMARK    4  A    between atoms: C_15  and  C_16
REMARK                            x       y       z     vdW  Elec       q    Type
REMARK                         _______ _______ _______ _____ _____    ______ ____
ROOT
ATOM      1  N   UNL     1       4.172   3.279  17.978  0.00  0.00    +0.000 N 
ATOM      2  C   UNL     1       5.377   3.959  17.982  0.00  0.00    +0.000 C 
ATOM      3  O   UNL     1       5.963   4.300  19.005  0.00  0.00    +0.000 OA
ATOM      4  H   UNL     1       3.868   2.826  17.128  0.00  0.00    +0.000 HD
ENDROOT
BRANCH   1   6
ATOM      5  C   UNL     1       4.397   2.512  20.324  0.00  0.00    +0.000 C 
ATOM      6  C   UNL     1       3.429   2.931  19.211  0.00  0.00    +0.000 C 
ATOM      7  C   UNL     1       2.377   1.859  18.917  0.00  0.00    +0.000 C 
ATOM      8  C   UNL     1       1.162   2.644  18.455  0.00  0.00    +0.000 C 
ATOM      9  O   UNL     1       1.320   4.001  18.880  0.00  0.00    +0.000 OA
ATOM     10  C   UNL     1       2.492   4.070  19.710  0.00  0.00    +0.000 C 
BRANCH  10  11
ATOM     11  C   UNL     1       3.050   5.468  19.738  0.00  0.00    +0.000 C 
ATOM     12  C   UNL     1       2.689   6.561  18.756  0.00  0.00    +0.000 C 
ATOM     13  C   UNL     1       2.158   6.621  20.158  0.00  0.00    +0.000 C 
ENDBRANCH  10  11
ENDBRANCH   1   6
BRANCH   2  14
ATOM     14  C   UNL     1       6.000   4.261  16.683  0.00  0.00    +0.000 A 
ATOM     15  C   UNL     1       5.642   3.666  15.494  0.00  0.00    +0.000 A 
ATOM     16  N   UNL     1       6.200   3.981  14.300  0.00  0.00    +0.000 NA
ATOM     17  C   UNL     1       7.130   4.950  14.327  0.00  0.00    +0.000 A 
ATOM     18  N   UNL     1       7.550   5.605  15.419  0.00  0.00    +0.000 NA
ATOM     19  C   UNL     1       6.960   5.246  16.582  0.00  0.00    +0.000 A 
ENDBRANCH   2  14
TORSDOF 3
ENDMDL
MODEL 7
REMARK VINA RESULT:      -6.8      1.663      3.148
REMARK  Name = 
REMARK  4 active torsions:
REMARK  status: ('A' for Active; 'I' for Inactive)
REMARK    1  A    between atoms: C_1  and  C_2
REMARK    2  A    between atoms: C_2  and  N_3
REMARK    3  A    between atoms: C_4  and  C_6
REMARK    4  A    between atoms: C_15  and  C_16
REMARK                            x       y       z     vdW  Elec       q    Type
REMARK                         _______ _______ _______ _____ _____    ______ ____
ROOT
ATOM      1  N   UNL     1       5.091   4.325  17.408  0.00  0.00    +0.000 N 
ATOM      2  C   UNL     1       4.478   4.471  18.640  0.00  0.00    +0.000 C 
ATOM      3  O   UNL     1       4.825   5.295  19.480  0.00  0.00    +0.000 OA
ATOM      4  H   UNL     1       4.617   3.805  16.684  0.00  0.00    +0.000 HD
ENDROOT
BRANCH   1   6
ATOM      5  C   UNL     1       7.553   4.535  17.588  0.00  0.00    +0.000 C 
ATOM      6  C   UNL     1       6.269   5.117  16.986  0.00  0.00    +0.000 C 
ATOM      7  C   UNL     1       6.075   6.594  17.337  0.00  0.00    +0.000 C 
ATOM      8  C   UNL     1       5.317   7.165  16.151  0.00  0.00    +0.000 C 
ATOM      9  O   UNL     1       5.471   6.266  15.050  0.00  0.00    +0.000 OA
ATOM     10  C   UNL     1       6.406   5.244  15.440  0.00  0.00    +0.000 C 
BRANCH  10  11
ATOM     11  C   UNL     1       6.214   3.997  14.619  0.00  0.00    +0.000 C 
ATOM     12  C   UNL     1       5.261   3.871  13.451  0.00  0.00    +0.000 C 
ATOM     13  C   UNL     1       6.737   3.950  13.196  0.00  0.00    +0.000 C 
ENDBRANCH  10  11
ENDBRANCH   1   6
BRANCH   2  14
ATOM     14  C   UNL     1       3.327   3.604  18.942  0.00  0.00    +0.000 A 
ATOM     15  C   UNL     1       2.939   3.244  20.212  0.00  0.00    +0.000 A 
ATOM     16  N   UNL     1       1.855   2.475  20.475  0.00  0.00    +0.000 NA
ATOM     17  C   UNL     1       1.138   2.089  19.407  0.00  0.00    +0.000 A 
ATOM     18  N   UNL     1       1.412   2.388  18.129  0.00  0.00    +0.000 NA
ATOM     19  C   UNL     1       2.507   3.155  17.926  0.00  0.00    +0.000 A 
ENDBRANCH   2  14
TORSDOF 3
ENDMDL
MODEL 8
REMARK VINA RESULT:      -6.8      2.585      4.006
REMARK  Name = 
REMARK  4 active torsions:
REMARK  status: ('A' for Active; 'I' for Inactive)
REMARK    1  A    between atoms: C_1  and  C_2
REMARK    2  A    between atoms: C_2  and  N_3
REMARK    3  A    between atoms: C_4  and  C_6
REMARK    4  A    between atoms: C_15  and  C_16
REMARK                            x       y       z     vdW  Elec       q    Type
REMARK                         _______ _______ _______ _____ _____    ______ ____
ROOT
ATOM      1  N   UNL     1       4.530   6.012  17.972  0.00  0.00    +0.000 N 
ATOM      2  C   UNL     1       3.516   6.234  18.886  0.00  0.00    +0.000 C 
ATOM      3  O   UNL     1       3.258   5.475  19.815  0.00  0.00    +0.000 OA
ATOM      4  H   UNL     1       4.839   6.775  17.388  0.00  0.00    +0.000 HD
ENDROOT
BRANCH   1   6
ATOM      5  C   UNL     1       4.531   3.534  17.927  0.00  0.00    +0.000 C 
ATOM      6  C   UNL     1       5.388   4.804  17.985  0.00  0.00    +0.000 C 
ATOM      7  C   UNL     1       6.322   4.825  19.196  0.00  0.00    +0.000 C 
ATOM      8  C   UNL     1       7.526   5.625  18.727  0.00  0.00    +0.000 C 
ATOM      9  O   UNL     1       7.511   5.654  17.297  0.00  0.00    +0.000 OA
ATOM     10  C   UNL     1       6.452   4.791  16.848  0.00  0.00    +0.000 C 
BRANCH  10  11
ATOM     11  C   UNL     1       5.998   5.171  15.464  0.00  0.00    +0.000 C 
ATOM     12  C   UNL     1       6.827   5.010  14.209  0.00  0.00    +0.000 C 
ATOM     13  C   UNL     1       5.674   4.083  14.458  0.00  0.00    +0.000 C 
ENDBRANCH  10  11
ENDBRANCH   1   6
BRANCH   2  14
ATOM     14  C   UNL     1       2.723   7.467  18.746  0.00  0.00    +0.000 A 
ATOM     15  C   UNL     1       2.635   8.206  17.588  0.00  0.00    +0.000 A 
ATOM     16  N   UNL     1       1.873   9.319  17.465  0.00  0.00    +0.000 NA
ATOM     17  C   UNL     1       1.163   9.665  18.552  0.00  0.00    +0.000 A 
ATOM     18  N   UNL     1       1.160   9.018  19.726  0.00  0.00    +0.000 NA
ATOM     19  C   UNL     1       1.943   7.917  19.792  0.00  0.00    +0.000 A 
ENDBRANCH   2  14
TORSDOF 3
ENDMDL
MODEL 9
REMARK VINA RESULT:      -6.7      2.807      4.213
REMARK  Name = 
REMARK  4 active torsions:
REMARK  status: ('A' for Active; 'I' for Inactive)
REMARK    1  A    between atoms: C_1  and  C_2
REMARK    2  A    between atoms: C_2  and  N_3
REMARK    3  A    between atoms: C_4  and  C_6
REMARK    4  A    between atoms: C_15  and  C_16
REMARK                            x       y       z     vdW  Elec       q    Type
REMARK                         _______ _______ _______ _____ _____    ______ ____
ROOT
ATOM      1  N   UNL     1       3.492   5.790  17.822  0.00  0.00    +0.000 N 
ATOM      2  C   UNL     1       2.685   6.263  18.841  0.00  0.00    +0.000 C 
ATOM      3  O   UNL     1       2.335   5.586  19.802  0.00  0.00    +0.000 OA
ATOM      4  H   UNL     1       3.931   6.452  17.198  0.00  0.00    +0.000 HD
ENDROOT
BRANCH   1   6
ATOM      5  C   UNL     1       2.884   3.460  17.241  0.00  0.00    +0.000 C 
ATOM      6  C   UNL     1       3.985   4.395  17.754  0.00  0.00    +0.000 C 
ATOM      7  C   UNL     1       4.539   3.957  19.111  0.00  0.00    +0.000 C 
ATOM      8  C   UNL     1       5.984   4.424  19.094  0.00  0.00    +0.000 C 
ATOM      9  O   UNL     1       6.357   4.670  17.735  0.00  0.00    +0.000 OA
ATOM     10  C   UNL     1       5.273   4.236  16.895  0.00  0.00    +0.000 C 
BRANCH  10  11
ATOM     11  C   UNL     1       5.312   4.936  15.562  0.00  0.00    +0.000 C 
ATOM     12  C   UNL     1       6.563   5.156  14.740  0.00  0.00    +0.000 C 
ATOM     13  C   UNL     1       5.560   4.130  14.301  0.00  0.00    +0.000 C 
ENDBRANCH  10  11
ENDBRANCH   1   6
BRANCH   2  14
ATOM     14  C   UNL     1       2.248   7.668  18.775  0.00  0.00    +0.000 A 
ATOM     15  C   UNL     1       2.415   8.483  17.678  0.00  0.00    +0.000 A 
ATOM     16  N   UNL     1       1.975   9.762  17.620  0.00  0.00    +0.000 NA
ATOM     17  C   UNL     1       1.324  10.207  18.708  0.00  0.00    +0.000 A 
ATOM     18  N   UNL     1       1.092   9.503  19.826  0.00  0.00    +0.000 NA
ATOM     19  C   UNL     1       1.557   8.233  19.828  0.00  0.00    +0.000 A 
ENDBRANCH   2  14
TORSDOF 3
ENDMDL
