MODEL 1
REMARK VINA RESULT:      -7.3      0.000      0.000
REMARK  Name = 
REMARK  5 active torsions:
REMARK  status: ('A' for Active; 'I' for Inactive)
REMARK    1  A    between atoms: C_1  and  C_2
REMARK    2  A    between atoms: N_5  and  C_6
REMARK    3  A    between atoms: C_6  and  C_7
REMARK    4  A    between atoms: N_9  and  C_10
REMARK    5  A    between atoms: C_19  and  C_20
REMARK                            x       y       z     vdW  Elec       q    Type
REMARK                         _______ _______ _______ _____ _____    ______ ____
ROOT
ATOM      1  C   UNL     1       2.310   5.257  20.113  0.00  0.00    +0.000 C 
ATOM      2  O   UNL     1       1.125   4.957  20.230  0.00  0.00    +0.000 OA
ATOM      3  N   UNL     1       2.803   6.534  19.929  0.00  0.00    +0.000 N 
ATOM      4  H   UNL     1       3.684   6.606  19.408  0.00  0.00    +0.000 HD
ENDROOT
BRANCH   3   5
ATOM      5  C   UNL     1       1.988   7.682  19.917  0.00  0.00    +0.000 A 
ATOM      6  C   UNL     1       1.308   8.126  21.051  0.00  0.00    +0.000 A 
ATOM      7  C   UNL     1       0.529   9.287  20.989  0.00  0.00    +0.000 A 
ATOM      8  C   UNL     1       0.399   9.982  19.784  0.00  0.00    +0.000 A 
ATOM      9  C   UNL     1       1.071   9.536  18.647  0.00  0.00    +0.000 A 
ATOM     10  C   UNL     1       1.882   8.407  18.729  0.00  0.00    +0.000 A 
ATOM     11  F   UNL     1       2.513   7.980  17.625  0.00  0.00    +0.000 F 
ENDBRANCH   3   5
BRANCH   1  12
ATOM     12  C   UNL     1       3.388   4.176  20.086  0.00  0.00    +0.000 C 
BRANCH  12  17
ATOM     13  C   UNL     1       6.057   3.900  15.104  0.00  0.00    +0.000 C 
ATOM     14  C   UNL     1       5.422   4.060  16.462  0.00  0.00    +0.000 A 
ATOM     15  N   UNL     1       4.088   3.743  16.510  0.00  0.00    +0.000 NA
ATOM     16  C   UNL     1       3.500   3.798  17.659  0.00  0.00    +0.000 A 
ATOM     17  N   UNL     1       4.111   4.186  18.820  0.00  0.00    +0.000 N 
ATOM     18  C   UNL     1       5.394   4.680  18.796  0.00  0.00    +0.000 A 
ATOM     19  O   UNL     1       5.897   5.264  19.749  0.00  0.00    +0.000 OA
ATOM     20  C   UNL     1       6.130   4.487  17.520  0.00  0.00    +0.000 A 
ATOM     21  C   UNL     1       7.603   4.753  17.527  0.00  0.00    +0.000 C 
ENDBRANCH  12  17
ENDBRANCH   1  12
TORSDOF 3
ENDMDL
MODEL 2
REMARK VINA RESULT:      -7.2      3.135      4.220
REMARK  Name = 
REMARK  5 active torsions:
REMARK  status: ('A' for Active; 'I' for Inactive)
REMARK    1  A    between atoms: C_1  and  C_2
REMARK    2  A    between atoms: N_5  and  C_6
REMARK    3  A    between atoms: C_6  and  C_7
REMARK    4  A    between atoms: N_9  and  C_10
REMARK    5  A    between atoms: C_19  and  C_20
REMARK                            x       y       z     vdW  Elec       q    Type
REMARK                         _______ _______ _______ _____ _____    ______ ____
ROOT
ATOM      1  C   UNL     1       5.288   4.252  18.670  0.00  0.00    +0.000 C 
ATOM      2  O   UNL     1       5.529   3.318  19.431  0.00  0.00    +0.000 OA
ATOM      3  N   UNL     1       4.031   4.737  18.362  0.00  0.00    +0.000 N 
ATOM      4  H   UNL     1       3.926   5.160  17.434  0.00  0.00    +0.000 HD
ENDROOT
BRANCH   3   5
ATOM      5  C   UNL     1       2.850   4.245  18.949  0.00  0.00    +0.000 A 
ATOM      6  C   UNL     1       2.379   4.708  20.178  0.00  0.00    +0.000 A 
ATOM      7  C   UNL     1       1.186   4.201  20.705  0.00  0.00    +0.000 A 
ATOM      8  C   UNL     1       0.483   3.206  20.021  0.00  0.00    +0.000 A 
ATOM      9  C   UNL     1       0.955   2.737  18.797  0.00  0.00    +0.000 A 
ATOM     10  C   UNL     1       2.118   3.280  18.257  0.00  0.00    +0.000 A 
ATOM     11  F   UNL     1       2.569   2.812  17.084  0.00  0.00    +0.000 F 
ENDBRANCH   3   5
BRANCH   1  12
ATOM     12  C   UNL     1       6.414   4.943  17.904  0.00  0.00    +0.000 C 
BRANCH  12  17
ATOM     13  C   UNL     1       6.126   3.446  12.454  0.00  0.00    +0.000 C 
ATOM     14  C   UNL     1       6.238   3.952  13.870  0.00  0.00    +0.000 A 
ATOM     15  N   UNL     1       5.385   3.352  14.762  0.00  0.00    +0.000 NA
ATOM     16  C   UNL     1       5.477   3.697  16.003  0.00  0.00    +0.000 A 
ATOM     17  N   UNL     1       6.340   4.644  16.479  0.00  0.00    +0.000 N 
ATOM     18  C   UNL     1       7.090   5.399  15.606  0.00  0.00    +0.000 A 
ATOM     19  O   UNL     1       7.686   6.413  15.951  0.00  0.00    +0.000 OA
ATOM     20  C   UNL     1       7.108   4.919  14.200  0.00  0.00    +0.000 A 
ATOM     21  C   UNL     1       8.116   5.531  13.277  0.00  0.00    +0.000 C 
ENDBRANCH  12  17
ENDBRANCH   1  12
TORSDOF 3
ENDMDL
MODEL 3
REMARK VINA RESULT:      -7.1      3.376      6.649
REMARK  Name = 
REMARK  5 active torsions:
REMARK  status: ('A' for Active; 'I' for Inactive)
REMARK    1  A    between atoms: C_1  and  C_2
REMARK    2  A    between atoms: N_5  and  C_6
REMARK    3  A    between atoms: C_6  and  C_7
REMARK    4  A    between atoms: N_9  and  C_10
REMARK    5  A    between atoms: C_19  and  C_20
REMARK                            x       y       z     vdW  Elec       q    Type
REMARK                         _______ _______ _______ _____ _____    ______ ____
ROOT
ATOM      1  C   UNL     1       5.412   6.074  16.081  0.00  0.00    +0.000 C 
ATOM      2  O   UNL     1       5.046   6.949  15.301  0.00  0.00    +0.000 OA
ATOM      3  N   UNL     1       5.930   4.844  15.727  0.00  0.00    +0.000 N 
ATOM      4  H   UNL     1       5.765   4.078  16.389  0.00  0.00    +0.000 HD
ENDROOT
BRANCH   3   5
ATOM      5  C   UNL     1       6.165   4.460  14.393  0.00  0.00    +0.000 A 
ATOM      6  C   UNL     1       5.274   3.657  13.680  0.00  0.00    +0.000 A 
ATOM      7  C   UNL     1       5.546   3.325  12.347  0.00  0.00    +0.000 A 
ATOM      8  C   UNL     1       6.725   3.765  11.740  0.00  0.00    +0.000 A 
ATOM      9  C   UNL     1       7.619   4.562  12.453  0.00  0.00    +0.000 A 
ATOM     10  C   UNL     1       7.319   4.927  13.763  0.00  0.00    +0.000 A 
ATOM     11  F   UNL     1       8.194   5.683  14.442  0.00  0.00    +0.000 F 
ENDBRANCH   3   5
BRANCH   1  12
ATOM     12  C   UNL     1       5.246   6.257  17.588  0.00  0.00    +0.000 C 
BRANCH  12  17
ATOM     13  C   UNL     1       1.035   3.130  19.711  0.00  0.00    +0.000 C 
ATOM     14  C   UNL     1       2.227   3.866  19.153  0.00  0.00    +0.000 A 
ATOM     15  N   UNL     1       1.915   4.895  18.299  0.00  0.00    +0.000 NA
ATOM     16  C   UNL     1       2.889   5.605  17.837  0.00  0.00    +0.000 A 
ATOM     17  N   UNL     1       4.209   5.378  18.113  0.00  0.00    +0.000 N 
ATOM     18  C   UNL     1       4.586   4.258  18.819  0.00  0.00    +0.000 A 
ATOM     19  O   UNL     1       5.749   3.878  18.883  0.00  0.00    +0.000 OA
ATOM     20  C   UNL     1       3.481   3.517  19.479  0.00  0.00    +0.000 A 
ATOM     21  C   UNL     1       3.857   2.464  20.476  0.00  0.00    +0.000 C 
ENDBRANCH  12  17
ENDBRANCH   1  12
TORSDOF 3
ENDMDL
MODEL 4
REMARK VINA RESULT:      -7.0      3.495      6.716
REMARK  Name = 
REMARK  5 active torsions:
REMARK  status: ('A' for Active; 'I' for Inactive)
REMARK    1  A    between atoms: C_1  and  C_2
REMARK    2  A    between atoms: N_5  and  C_6
REMARK    3  A    between atoms: C_6  and  C_7
REMARK    4  A    between atoms: N_9  and  C_10
REMARK    5  A    between atoms: C_19  and  C_20
REMARK                            x       y       z     vdW  Elec       q    Type
REMARK                         _______ _______ _______ _____ _____    ______ ____
ROOT
ATOM      1  C   UNL     1       6.905   4.861  16.970  0.00  0.00    +0.000 C 
ATOM      2  O   UNL     1       7.951   4.217  16.956  0.00  0.00    +0.000 OA
ATOM      3  N   UNL     1       6.196   5.271  15.858  0.00  0.00    +0.000 N 
ATOM      4  H   UNL     1       5.652   6.134  15.963  0.00  0.00    +0.000 HD
ENDROOT
BRANCH   3   5
ATOM      5  C   UNL     1       6.565   4.936  14.541  0.00  0.00    +0.000 A 
ATOM      6  C   UNL     1       7.653   5.528  13.898  0.00  0.00    +0.000 A 
ATOM      7  C   UNL     1       7.990   5.141  12.595  0.00  0.00    +0.000 A 
ATOM      8  C   UNL     1       7.217   4.190  11.924  0.00  0.00    +0.000 A 
ATOM      9  C   UNL     1       6.126   3.603  12.562  0.00  0.00    +0.000 A 
ATOM     10  C   UNL     1       5.826   3.959  13.874  0.00  0.00    +0.000 A 
ATOM     11  F   UNL     1       4.766   3.396  14.473  0.00  0.00    +0.000 F 
ENDBRANCH   3   5
BRANCH   1  12
ATOM     12  C   UNL     1       6.311   5.351  18.289  0.00  0.00    +0.000 C 
BRANCH  12  17
ATOM     13  C   UNL     1       1.763   2.216  19.520  0.00  0.00    +0.000 C 
ATOM     14  C   UNL     1       2.901   3.144  19.177  0.00  0.00    +0.000 A 
ATOM     15  N   UNL     1       4.101   2.817  19.758  0.00  0.00    +0.000 NA
ATOM     16  C   UNL     1       5.130   3.536  19.453  0.00  0.00    +0.000 A 
ATOM     17  N   UNL     1       5.094   4.620  18.620  0.00  0.00    +0.000 N 
ATOM     18  C   UNL     1       3.890   5.094  18.152  0.00  0.00    +0.000 A 
ATOM     19  O   UNL     1       3.775   6.189  17.614  0.00  0.00    +0.000 OA
ATOM     20  C   UNL     1       2.723   4.201  18.370  0.00  0.00    +0.000 A 
ATOM     21  C   UNL     1       1.455   4.536  17.646  0.00  0.00    +0.000 C 
ENDBRANCH  12  17
ENDBRANCH   1  12
TORSDOF 3
ENDMDL
MODEL 5
REMARK VINA RESULT:      -7.0      3.014      4.270
REMARK  Name = 
REMARK  5 active torsions:
REMARK  status: ('A' for Active; 'I' for Inactive)
REMARK    1  A    between atoms: C_1  and  C_2
REMARK    2  A    between atoms: N_5  and  C_6
REMARK    3  A    between atoms: C_6  and  C_7
REMARK    4  A    between atoms: N_9  and  C_10
REMARK    5  A    between atoms: C_19  and  C_20
REMARK                            x       y       z     vdW  Elec       q    Type
REMARK                         _______ _______ _______ _____ _____    ______ ____
ROOT
ATOM      1  C   UNL     1       5.250   4.196  18.663  0.00  0.00    +0.000 C 
ATOM      2  O   UNL     1       5.488   3.320  19.491  0.00  0.00    +0.000 OA
ATOM      3  N   UNL     1       3.994   4.595  18.249  0.00  0.00    +0.000 N 
ATOM      4  H   UNL     1       3.929   4.960  17.293  0.00  0.00    +0.000 HD
ENDROOT
BRANCH   3   5
ATOM      5  C   UNL     1       2.803   4.073  18.789  0.00  0.00    +0.000 A 
ATOM      6  C   UNL     1       2.158   2.965  18.239  0.00  0.00    +0.000 A 
ATOM      7  C   UNL     1       0.988   2.473  18.829  0.00  0.00    +0.000 A 
ATOM      8  C   UNL     1       0.443   3.112  19.946  0.00  0.00    +0.000 A 
ATOM      9  C   UNL     1       1.082   4.223  20.493  0.00  0.00    +0.000 A 
ATOM     10  C   UNL     1       2.271   4.677  19.928  0.00  0.00    +0.000 A 
ATOM     11  F   UNL     1       2.869   5.756  20.456  0.00  0.00    +0.000 F 
ENDBRANCH   3   5
BRANCH   1  12
ATOM     12  C   UNL     1       6.388   4.903  17.930  0.00  0.00    +0.000 C 
BRANCH  12  17
ATOM     13  C   UNL     1       6.220   3.489  12.454  0.00  0.00    +0.000 C 
ATOM     14  C   UNL     1       6.299   3.975  13.879  0.00  0.00    +0.000 A 
ATOM     15  N   UNL     1       5.439   3.348  14.745  0.00  0.00    +0.000 NA
ATOM     16  C   UNL     1       5.503   3.675  15.993  0.00  0.00    +0.000 A 
ATOM     17  N   UNL     1       6.344   4.627  16.500  0.00  0.00    +0.000 N 
ATOM     18  C   UNL     1       7.099   5.405  15.653  0.00  0.00    +0.000 A 
ATOM     19  O   UNL     1       7.675   6.422  16.025  0.00  0.00    +0.000 OA
ATOM     20  C   UNL     1       7.150   4.948  14.240  0.00  0.00    +0.000 A 
ATOM     21  C   UNL     1       8.166   5.589  13.345  0.00  0.00    +0.000 C 
ENDBRANCH  12  17
ENDBRANCH   1  12
TORSDOF 3
ENDMDL
MODEL 6
REMARK VINA RESULT:      -6.9      1.043      1.500
REMARK  Name = 
REMARK  5 active torsions:
REMARK  status: ('A' for Active; 'I' for Inactive)
REMARK    1  A    between atoms: C_1  and  C_2
REMARK    2  A    between atoms: N_5  and  C_6
REMARK    3  A    between atoms: C_6  and  C_7
REMARK    4  A    between atoms: N_9  and  C_10
REMARK    5  A    between atoms: C_19  and  C_20
REMARK                            x       y       z     vdW  Elec       q    Type
REMARK                         _______ _______ _______ _____ _____    ______ ____
ROOT
ATOM      1  C   UNL     1       2.366   5.646  19.909  0.00  0.00    +0.000 C 
ATOM      2  O   UNL     1       1.190   5.305  20.004  0.00  0.00    +0.000 OA
ATOM      3  N   UNL     1       2.814   6.923  19.632  0.00  0.00    +0.000 N 
ATOM      4  H   UNL     1       3.714   6.988  19.144  0.00  0.00    +0.000 HD
ENDROOT
BRANCH   3   5
ATOM      5  C   UNL     1       1.954   8.027  19.483  0.00  0.00    +0.000 A 
ATOM      6  C   UNL     1       1.741   8.646  18.250  0.00  0.00    +0.000 A 
ATOM      7  C   UNL     1       0.857   9.727  18.155  0.00  0.00    +0.000 A 
ATOM      8  C   UNL     1       0.216  10.212  19.297  0.00  0.00    +0.000 A 
ATOM      9  C   UNL     1       0.433   9.601  20.530  0.00  0.00    +0.000 A 
ATOM     10  C   UNL     1       1.277   8.496  20.609  0.00  0.00    +0.000 A 
ATOM     11  F   UNL     1       1.488   7.924  21.804  0.00  0.00    +0.000 F 
ENDBRANCH   3   5
BRANCH   1  12
ATOM     12  C   UNL     1       3.487   4.615  20.024  0.00  0.00    +0.000 C 
BRANCH  12  17
ATOM     13  C   UNL     1       6.150   3.838  15.093  0.00  0.00    +0.000 C 
ATOM     14  C   UNL     1       5.526   4.122  16.435  0.00  0.00    +0.000 A 
ATOM     15  N   UNL     1       4.163   3.973  16.475  0.00  0.00    +0.000 NA
ATOM     16  C   UNL     1       3.576   4.141  17.614  0.00  0.00    +0.000 A 
ATOM     17  N   UNL     1       4.217   4.492  18.769  0.00  0.00    +0.000 N 
ATOM     18  C   UNL     1       5.553   4.824  18.746  0.00  0.00    +0.000 A 
ATOM     19  O   UNL     1       6.114   5.375  19.686  0.00  0.00    +0.000 OA
ATOM     20  C   UNL     1       6.271   4.497  17.487  0.00  0.00    +0.000 A 
ATOM     21  C   UNL     1       7.766   4.580  17.506  0.00  0.00    +0.000 C 
ENDBRANCH  12  17
ENDBRANCH   1  12
TORSDOF 3
ENDMDL
MODEL 7
REMARK VINA RESULT:      -6.9      3.072      6.646
REMARK  Name = 
REMARK  5 active torsions:
REMARK  status: ('A' for Active; 'I' for Inactive)
REMARK    1  A    between atoms: C_1  and  C_2
REMARK    2  A    between atoms: N_5  and  C_6
REMARK    3  A    between atoms: C_6  and  C_7
REMARK    4  A    between atoms: N_9  and  C_10
REMARK    5  A    between atoms: C_19  and  C_20
REMARK                            x       y       z     vdW  Elec       q    Type
REMARK                         _______ _______ _______ _____ _____    ______ ____
ROOT
ATOM      1  C   UNL     1       5.714   6.257  16.313  0.00  0.00    +0.000 C 
ATOM      2  O   UNL     1       5.057   6.984  15.571  0.00  0.00    +0.000 OA
ATOM      3  N   UNL     1       6.501   5.196  15.911  0.00  0.00    +0.000 N 
ATOM      4  H   UNL     1       6.609   4.433  16.588  0.00  0.00    +0.000 HD
ENDROOT
BRANCH   3   5
ATOM      5  C   UNL     1       6.698   4.850  14.560  0.00  0.00    +0.000 A 
ATOM      6  C   UNL     1       7.734   5.389  13.796  0.00  0.00    +0.000 A 
ATOM      7  C   UNL     1       7.898   4.993  12.464  0.00  0.00    +0.000 A 
ATOM      8  C   UNL     1       7.006   4.086  11.886  0.00  0.00    +0.000 A 
ATOM      9  C   UNL     1       5.967   3.551  12.646  0.00  0.00    +0.000 A 
ATOM     10  C   UNL     1       5.838   3.915  13.984  0.00  0.00    +0.000 A 
ATOM     11  F   UNL     1       4.827   3.403  14.701  0.00  0.00    +0.000 F 
ENDBRANCH   3   5
BRANCH   1  12
ATOM     12  C   UNL     1       5.653   6.433  17.829  0.00  0.00    +0.000 C 
BRANCH  12  17
ATOM     13  C   UNL     1       1.157   3.927  20.178  0.00  0.00    +0.000 C 
ATOM     14  C   UNL     1       2.401   4.486  19.536  0.00  0.00    +0.000 A 
ATOM     15  N   UNL     1       2.219   5.676  18.877  0.00  0.00    +0.000 NA
ATOM     16  C   UNL     1       3.261   6.239  18.360  0.00  0.00    +0.000 A 
ATOM     17  N   UNL     1       4.521   5.711  18.396  0.00  0.00    +0.000 N 
ATOM     18  C   UNL     1       4.727   4.442  18.888  0.00  0.00    +0.000 A 
ATOM     19  O   UNL     1       5.776   3.830  18.722  0.00  0.00    +0.000 OA
ATOM     20  C   UNL     1       3.578   3.845  19.616  0.00  0.00    +0.000 A 
ATOM     21  C   UNL     1       3.834   2.597  20.402  0.00  0.00    +0.000 C 
ENDBRANCH  12  17
ENDBRANCH   1  12
TORSDOF 3
ENDMDL
MODEL 8
REMARK VINA RESULT:      -6.8      3.580      6.833
REMARK  Name = 
REMARK  5 active torsions:
REMARK  status: ('A' for Active; 'I' for Inactive)
REMARK    1  A    between atoms: C_1  and  C_2
REMARK    2  A    between atoms: N_5  and  C_6
REMARK    3  A    between atoms: C_6  and  C_7
REMARK    4  A    between atoms: N_9  and  C_10
REMARK    5  A    between atoms: C_19  and  C_20
REMARK                            x       y       z     vdW  Elec       q    Type
REMARK                         _______ _______ _______ _____ _____    ______ ____
ROOT
ATOM      1  C   UNL     1       6.788   4.741  16.714  0.00  0.00    +0.000 C 
ATOM      2  O   UNL     1       7.855   4.133  16.684  0.00  0.00    +0.000 OA
ATOM      3  N   UNL     1       5.994   5.027  15.621  0.00  0.00    +0.000 N 
ATOM      4  H   UNL     1       5.424   5.877  15.689  0.00  0.00    +0.000 HD
ENDROOT
BRANCH   3   5
ATOM      5  C   UNL     1       6.289   4.589  14.316  0.00  0.00    +0.000 A 
ATOM      6  C   UNL     1       5.505   3.648  13.649  0.00  0.00    +0.000 A 
ATOM      7  C   UNL     1       5.831   3.265  12.343  0.00  0.00    +0.000 A 
ATOM      8  C   UNL     1       6.963   3.795  11.718  0.00  0.00    +0.000 A 
ATOM      9  C   UNL     1       7.752   4.731  12.385  0.00  0.00    +0.000 A 
ATOM     10  C   UNL     1       7.394   5.141  13.667  0.00  0.00    +0.000 A 
ATOM     11  F   UNL     1       8.169   6.032  14.303  0.00  0.00    +0.000 F 
ENDBRANCH   3   5
BRANCH   1  12
ATOM     12  C   UNL     1       6.261   5.325  18.023  0.00  0.00    +0.000 C 
BRANCH  12  17
ATOM     13  C   UNL     1       1.782   2.304  19.702  0.00  0.00    +0.000 C 
ATOM     14  C   UNL     1       2.901   3.201  19.238  0.00  0.00    +0.000 A 
ATOM     15  N   UNL     1       4.129   2.907  19.775  0.00  0.00    +0.000 NA
ATOM     16  C   UNL     1       5.141   3.599  19.368  0.00  0.00    +0.000 A 
ATOM     17  N   UNL     1       5.063   4.624  18.466  0.00  0.00    +0.000 N 
ATOM     18  C   UNL     1       3.836   5.073  18.032  0.00  0.00    +0.000 A 
ATOM     19  O   UNL     1       3.694   6.129  17.428  0.00  0.00    +0.000 OA
ATOM     20  C   UNL     1       2.682   4.202  18.371  0.00  0.00    +0.000 A 
ATOM     21  C   UNL     1       1.378   4.494  17.695  0.00  0.00    +0.000 C 
ENDBRANCH  12  17
ENDBRANCH   1  12
TORSDOF 3
ENDMDL
MODEL 9
REMARK VINA RESULT:      -6.8      3.302      7.114
REMARK  Name = 
REMARK  5 active torsions:
REMARK  status: ('A' for Active; 'I' for Inactive)
REMARK    1  A    between atoms: C_1  and  C_2
REMARK    2  A    between atoms: N_5  and  C_6
REMARK    3  A    between atoms: C_6  and  C_7
REMARK    4  A    between atoms: N_9  and  C_10
REMARK    5  A    between atoms: C_19  and  C_20
REMARK                            x       y       z     vdW  Elec       q    Type
REMARK                         _______ _______ _______ _____ _____    ______ ____
ROOT
ATOM      1  C   UNL     1       7.092   5.257  16.182  0.00  0.00    +0.000 C 
ATOM      2  O   UNL     1       7.861   4.310  16.325  0.00  0.00    +0.000 OA
ATOM      3  N   UNL     1       6.393   5.559  15.030  0.00  0.00    +0.000 N 
ATOM      4  H   UNL     1       6.176   6.551  14.882  0.00  0.00    +0.000 HD
ENDROOT
BRANCH   3   5
ATOM      5  C   UNL     1       6.430   4.760  13.872  0.00  0.00    +0.000 A 
ATOM      6  C   UNL     1       5.438   3.824  13.579  0.00  0.00    +0.000 A 
ATOM      7  C   UNL     1       5.513   3.071  12.402  0.00  0.00    +0.000 A 
ATOM      8  C   UNL     1       6.598   3.228  11.536  0.00  0.00    +0.000 A 
ATOM      9  C   UNL     1       7.595   4.157  11.830  0.00  0.00    +0.000 A 
ATOM     10  C   UNL     1       7.489   4.935  12.980  0.00  0.00    +0.000 A 
ATOM     11  F   UNL     1       8.460   5.816  13.259  0.00  0.00    +0.000 F 
ENDBRANCH   3   5
BRANCH   1  12
ATOM     12  C   UNL     1       6.894   6.275  17.303  0.00  0.00    +0.000 C 
BRANCH  12  17
ATOM     13  C   UNL     1       2.542   4.621  20.519  0.00  0.00    +0.000 C 
ATOM     14  C   UNL     1       3.635   5.155  19.629  0.00  0.00    +0.000 A 
ATOM     15  N   UNL     1       4.907   4.830  20.029  0.00  0.00    +0.000 NA
ATOM     16  C   UNL     1       5.886   5.205  19.274  0.00  0.00    +0.000 A 
ATOM     17  N   UNL     1       5.740   5.932  18.125  0.00  0.00    +0.000 N 
ATOM     18  C   UNL     1       4.507   6.432  17.774  0.00  0.00    +0.000 A 
ATOM     19  O   UNL     1       4.361   7.283  16.904  0.00  0.00    +0.000 OA
ATOM     20  C   UNL     1       3.356   5.893  18.543  0.00  0.00    +0.000 A 
ATOM     21  C   UNL     1       1.983   6.189  18.025  0.00  0.00    +0.000 C 
ENDBRANCH  12  17
ENDBRANCH   1  12
TORSDOF 3
ENDMDL
