MODEL 1
REMARK VINA RESULT:      -8.1      0.000      0.000
REMARK  Name = 
REMARK  9 active torsions:
REMARK  status: ('A' for Active; 'I' for Inactive)
REMARK    1  A    between atoms: O_1  and  C_2
REMARK    2  A    between atoms: C_2  and  C_3
REMARK    3  A    between atoms: C_2  and  C_15
REMARK    4  A    between atoms: C_3  and  O_4
REMARK    5  A    between atoms: O_4  and  C_5
REMARK    6  A    between atoms: C_8  and  C_9
REMARK    7  A    between atoms: C_15  and  N_16
REMARK    8  A    between atoms: N_19  and  C_20
REMARK    9  A    between atoms: C_20  and  C_21
REMARK                            x       y       z     vdW  Elec       q    Type
REMARK                         _______ _______ _______ _____ _____    ______ ____
ROOT
ATOM      1  C   UNL     1       6.844   6.923  17.414  0.00  0.00    +0.000 C 
ENDROOT
BRANCH   1   2
ATOM      2  N   UNL     1       6.647   5.628  18.090  0.00  0.00    +0.000 NA
ATOM      3  C   UNL     1       5.494   5.612  19.016  0.00  0.00    +0.000 C 
ATOM      4  C   UNL     1       4.100   5.652  18.341  0.00  0.00    +0.000 C 
ATOM      5  N   UNL     1       3.894   4.726  17.211  0.00  0.00    +0.000 NA
ATOM      6  C   UNL     1       5.077   4.713  16.326  0.00  0.00    +0.000 C 
ATOM      7  C   UNL     1       6.426   4.572  17.077  0.00  0.00    +0.000 C 
BRANCH   5   8
ATOM      8  C   UNL     1       3.575   3.346  17.615  0.00  0.00    +0.000 C 
BRANCH   8   9
ATOM      9  C   UNL     1       2.793   3.137  18.890  0.00  0.00    +0.000 A 
ATOM     10  C   UNL     1       1.478   3.633  18.901  0.00  0.00    +0.000 A 
ATOM     11  F   UNL     1       0.983   4.224  17.804  0.00  0.00    +0.000 F 
ATOM     12  C   UNL     1       0.660   3.561  20.025  0.00  0.00    +0.000 A 
ATOM     13  C   UNL     1       1.143   2.982  21.188  0.00  0.00    +0.000 A 
ATOM     14  C   UNL     1       2.454   2.506  21.221  0.00  0.00    +0.000 A 
ATOM     15  C   UNL     1       3.284   2.606  20.091  0.00  0.00    +0.000 A 
ATOM     16 CL   UNL     1       4.916   2.078  20.302  0.00  0.00    +0.000 Cl
ENDBRANCH   8   9
ENDBRANCH   5   8
ENDBRANCH   1   2
BRANCH   1  17
ATOM     17  C   UNL     1       8.096   7.726  17.806  0.00  0.00    +0.000 C 
BRANCH  17  18
ATOM     18  O   UNL     1       8.583   7.257  19.076  0.00  0.00    +0.000 OA
ATOM     19  H   UNL     1       9.537   7.090  18.984  0.00  0.00    +0.000 HD
ENDBRANCH  17  18
BRANCH  17  20
ATOM     20  C   UNL     1       7.861   9.238  17.852  0.00  0.00    +0.000 C 
BRANCH  20  21
ATOM     21  O   UNL     1       9.109   9.947  17.805  0.00  0.00    +0.000 OA
BRANCH  21  22
ATOM     22  C   UNL     1       9.192  10.994  18.684  0.00  0.00    +0.000 A 
ATOM     23  C   UNL     1       9.420  10.663  20.020  0.00  0.00    +0.000 A 
ATOM     24  C   UNL     1       9.509  11.664  20.995  0.00  0.00    +0.000 A 
ATOM     25  C   UNL     1       9.384  13.014  20.639  0.00  0.00    +0.000 A 
ATOM     26  C   UNL     1       9.184  13.339  19.291  0.00  0.00    +0.000 A 
ATOM     27  C   UNL     1       9.090  12.339  18.321  0.00  0.00    +0.000 A 
BRANCH  25  28
ATOM     28  C   UNL     1       9.464  14.119  21.664  0.00  0.00    +0.000 C 
ATOM     29  F   UNL     1       8.533  15.097  21.492  0.00  0.00    +0.000 F 
ATOM     30  F   UNL     1       9.295  13.660  22.935  0.00  0.00    +0.000 F 
ATOM     31  F   UNL     1      10.672  14.748  21.655  0.00  0.00    +0.000 F 
ENDBRANCH  25  28
ENDBRANCH  21  22
ENDBRANCH  20  21
ENDBRANCH  17  20
ENDBRANCH   1  17
TORSDOF 9
ENDMDL
MODEL 2
REMARK VINA RESULT:      -7.8      1.236      1.776
REMARK  Name = 
REMARK  9 active torsions:
REMARK  status: ('A' for Active; 'I' for Inactive)
REMARK    1  A    between atoms: O_1  and  C_2
REMARK    2  A    between atoms: C_2  and  C_3
REMARK    3  A    between atoms: C_2  and  C_15
REMARK    4  A    between atoms: C_3  and  O_4
REMARK    5  A    between atoms: O_4  and  C_5
REMARK    6  A    between atoms: C_8  and  C_9
REMARK    7  A    between atoms: C_15  and  N_16
REMARK    8  A    between atoms: N_19  and  C_20
REMARK    9  A    between atoms: C_20  and  C_21
REMARK                            x       y       z     vdW  Elec       q    Type
REMARK                         _______ _______ _______ _____ _____    ______ ____
ROOT
ATOM      1  C   UNL     1       6.867   6.897  17.464  0.00  0.00    +0.000 C 
ENDROOT
BRANCH   1   2
ATOM      2  N   UNL     1       6.638   5.588  18.103  0.00  0.00    +0.000 NA
ATOM      3  C   UNL     1       5.484   5.574  19.028  0.00  0.00    +0.000 C 
ATOM      4  C   UNL     1       4.092   5.667  18.354  0.00  0.00    +0.000 C 
ATOM      5  N   UNL     1       3.865   4.778  17.198  0.00  0.00    +0.000 NA
ATOM      6  C   UNL     1       5.049   4.762  16.314  0.00  0.00    +0.000 C 
ATOM      7  C   UNL     1       6.393   4.567  17.061  0.00  0.00    +0.000 C 
BRANCH   5   8
ATOM      8  C   UNL     1       3.513   3.395  17.562  0.00  0.00    +0.000 C 
BRANCH   8   9
ATOM      9  C   UNL     1       2.754   3.166  18.847  0.00  0.00    +0.000 A 
ATOM     10  C   UNL     1       1.439   3.659  18.889  0.00  0.00    +0.000 A 
ATOM     11  F   UNL     1       0.923   4.265  17.809  0.00  0.00    +0.000 F 
ATOM     12  C   UNL     1       0.639   3.569  20.026  0.00  0.00    +0.000 A 
ATOM     13  C   UNL     1       1.145   2.974  21.171  0.00  0.00    +0.000 A 
ATOM     14  C   UNL     1       2.457   2.500  21.175  0.00  0.00    +0.000 A 
ATOM     15  C   UNL     1       3.266   2.618  20.032  0.00  0.00    +0.000 A 
ATOM     16 CL   UNL     1       4.902   2.091  20.207  0.00  0.00    +0.000 Cl
ENDBRANCH   8   9
ENDBRANCH   5   8
ENDBRANCH   1   2
BRANCH   1  17
ATOM     17  C   UNL     1       8.142   7.654  17.873  0.00  0.00    +0.000 C 
BRANCH  17  18
ATOM     18  O   UNL     1       8.591   7.173  19.152  0.00  0.00    +0.000 OA
ATOM     19  H   UNL     1       9.275   6.500  18.993  0.00  0.00    +0.000 HD
ENDBRANCH  17  18
BRANCH  17  20
ATOM     20  C   UNL     1       7.962   9.174  17.911  0.00  0.00    +0.000 C 
BRANCH  20  21
ATOM     21  O   UNL     1       9.151   9.814  18.402  0.00  0.00    +0.000 OA
BRANCH  21  22
ATOM     22  C   UNL     1       9.049  11.175  18.514  0.00  0.00    +0.000 A 
ATOM     23  C   UNL     1       8.279  11.818  17.544  0.00  0.00    +0.000 A 
ATOM     24  C   UNL     1       8.124  13.210  17.568  0.00  0.00    +0.000 A 
ATOM     25  C   UNL     1       8.729  13.973  18.576  0.00  0.00    +0.000 A 
ATOM     26  C   UNL     1       9.475  13.316  19.563  0.00  0.00    +0.000 A 
ATOM     27  C   UNL     1       9.634  11.928  19.534  0.00  0.00    +0.000 A 
BRANCH  25  28
ATOM     28  C   UNL     1       8.592  15.475  18.628  0.00  0.00    +0.000 C 
ATOM     29  F   UNL     1       7.418  15.902  19.170  0.00  0.00    +0.000 F 
ATOM     30  F   UNL     1       9.579  16.060  19.364  0.00  0.00    +0.000 F 
ATOM     31  F   UNL     1       8.663  16.046  17.393  0.00  0.00    +0.000 F 
ENDBRANCH  25  28
ENDBRANCH  21  22
ENDBRANCH  20  21
ENDBRANCH  17  20
ENDBRANCH   1  17
TORSDOF 9
ENDMDL
MODEL 3
REMARK VINA RESULT:      -7.7      0.997      1.490
REMARK  Name = 
REMARK  9 active torsions:
REMARK  status: ('A' for Active; 'I' for Inactive)
REMARK    1  A    between atoms: O_1  and  C_2
REMARK    2  A    between atoms: C_2  and  C_3
REMARK    3  A    between atoms: C_2  and  C_15
REMARK    4  A    between atoms: C_3  and  O_4
REMARK    5  A    between atoms: O_4  and  C_5
REMARK    6  A    between atoms: C_8  and  C_9
REMARK    7  A    between atoms: C_15  and  N_16
REMARK    8  A    between atoms: N_19  and  C_20
REMARK    9  A    between atoms: C_20  and  C_21
REMARK                            x       y       z     vdW  Elec       q    Type
REMARK                         _______ _______ _______ _____ _____    ______ ____
ROOT
ATOM      1  C   UNL     1       7.375   6.338  17.112  0.00  0.00    +0.000 C 
ENDROOT
BRANCH   1   2
ATOM      2  N   UNL     1       5.934   6.632  17.014  0.00  0.00    +0.000 NA
ATOM      3  C   UNL     1       5.291   6.052  15.815  0.00  0.00    +0.000 C 
ATOM      4  C   UNL     1       5.138   4.510  15.825  0.00  0.00    +0.000 C 
ATOM      5  N   UNL     1       4.602   3.914  17.063  0.00  0.00    +0.000 NA
ATOM      6  C   UNL     1       5.214   4.544  18.251  0.00  0.00    +0.000 C 
ATOM      7  C   UNL     1       5.239   6.092  18.204  0.00  0.00    +0.000 C 
BRANCH   5   8
ATOM      8  C   UNL     1       3.135   3.984  17.178  0.00  0.00    +0.000 C 
BRANCH   8   9
ATOM      9  C   UNL     1       2.504   3.625  18.503  0.00  0.00    +0.000 A 
ATOM     10  C   UNL     1       1.831   4.661  19.172  0.00  0.00    +0.000 A 
ATOM     11  F   UNL     1       1.755   5.876  18.609  0.00  0.00    +0.000 F 
ATOM     12  C   UNL     1       1.250   4.490  20.426  0.00  0.00    +0.000 A 
ATOM     13  C   UNL     1       1.329   3.257  21.054  0.00  0.00    +0.000 A 
ATOM     14  C   UNL     1       2.016   2.215  20.432  0.00  0.00    +0.000 A 
ATOM     15  C   UNL     1       2.623   2.402  19.178  0.00  0.00    +0.000 A 
ATOM     16 CL   UNL     1       3.533   1.064  18.571  0.00  0.00    +0.000 Cl
ENDBRANCH   8   9
ENDBRANCH   5   8
ENDBRANCH   1   2
BRANCH   1  17
ATOM     17  C   UNL     1       8.231   7.330  17.918  0.00  0.00    +0.000 C 
BRANCH  17  18
ATOM     18  O   UNL     1       8.315   6.885  19.284  0.00  0.00    +0.000 OA
ATOM     19  H   UNL     1       9.251   6.712  19.482  0.00  0.00    +0.000 HD
ENDBRANCH  17  18
BRANCH  17  20
ATOM     20  C   UNL     1       7.712   8.769  17.860  0.00  0.00    +0.000 C 
BRANCH  20  21
ATOM     21  O   UNL     1       8.760   9.671  17.470  0.00  0.00    +0.000 OA
BRANCH  21  22
ATOM     22  C   UNL     1       8.961  10.707  18.343  0.00  0.00    +0.000 A 
ATOM     23  C   UNL     1       9.359  10.359  19.634  0.00  0.00    +0.000 A 
ATOM     24  C   UNL     1       9.578  11.348  20.601  0.00  0.00    +0.000 A 
ATOM     25  C   UNL     1       9.414  12.703  20.279  0.00  0.00    +0.000 A 
ATOM     26  C   UNL     1       9.043  13.045  18.972  0.00  0.00    +0.000 A 
ATOM     27  C   UNL     1       8.819  12.056  18.011  0.00  0.00    +0.000 A 
BRANCH  25  28
ATOM     28  C   UNL     1       9.631  13.795  21.297  0.00  0.00    +0.000 C 
ATOM     29  F   UNL     1      10.875  14.349  21.253  0.00  0.00    +0.000 F 
ATOM     30  F   UNL     1       8.756  14.828  21.145  0.00  0.00    +0.000 F 
ATOM     31  F   UNL     1       9.465  13.354  22.576  0.00  0.00    +0.000 F 
ENDBRANCH  25  28
ENDBRANCH  21  22
ENDBRANCH  20  21
ENDBRANCH  17  20
ENDBRANCH   1  17
TORSDOF 9
ENDMDL
MODEL 4
REMARK VINA RESULT:      -7.6      1.017      1.556
REMARK  Name = 
REMARK  9 active torsions:
REMARK  status: ('A' for Active; 'I' for Inactive)
REMARK    1  A    between atoms: O_1  and  C_2
REMARK    2  A    between atoms: C_2  and  C_3
REMARK    3  A    between atoms: C_2  and  C_15
REMARK    4  A    between atoms: C_3  and  O_4
REMARK    5  A    between atoms: O_4  and  C_5
REMARK    6  A    between atoms: C_8  and  C_9
REMARK    7  A    between atoms: C_15  and  N_16
REMARK    8  A    between atoms: N_19  and  C_20
REMARK    9  A    between atoms: C_20  and  C_21
REMARK                            x       y       z     vdW  Elec       q    Type
REMARK                         _______ _______ _______ _____ _____    ______ ____
ROOT
ATOM      1  C   UNL     1       7.529   5.955  16.982  0.00  0.00    +0.000 C 
ENDROOT
BRANCH   1   2
ATOM      2  N   UNL     1       7.092   4.679  17.576  0.00  0.00    +0.000 NA
ATOM      3  C   UNL     1       6.126   4.842  18.685  0.00  0.00    +0.000 C 
ATOM      4  C   UNL     1       4.711   5.316  18.267  0.00  0.00    +0.000 C 
ATOM      5  N   UNL     1       4.100   4.618  17.120  0.00  0.00    +0.000 NA
ATOM      6  C   UNL     1       5.093   4.414  16.045  0.00  0.00    +0.000 C 
ATOM      7  C   UNL     1       6.449   3.846  16.537  0.00  0.00    +0.000 C 
BRANCH   5   8
ATOM      8  C   UNL     1       3.483   3.324  17.462  0.00  0.00    +0.000 C 
BRANCH   8   9
ATOM      9  C   UNL     1       2.768   3.202  18.786  0.00  0.00    +0.000 A 
ATOM     10  C   UNL     1       1.527   3.854  18.885  0.00  0.00    +0.000 A 
ATOM     11  F   UNL     1       1.036   4.510  17.823  0.00  0.00    +0.000 F 
ATOM     12  C   UNL     1       0.782   3.873  20.061  0.00  0.00    +0.000 A 
ATOM     13  C   UNL     1       1.267   3.230  21.189  0.00  0.00    +0.000 A 
ATOM     14  C   UNL     1       2.510   2.598  21.135  0.00  0.00    +0.000 A 
ATOM     15  C   UNL     1       3.269   2.605  19.952  0.00  0.00    +0.000 A 
ATOM     16 CL   UNL     1       4.834   1.881  20.054  0.00  0.00    +0.000 Cl
ENDBRANCH   8   9
ENDBRANCH   5   8
ENDBRANCH   1   2
BRANCH   1  17
ATOM     17  C   UNL     1       7.106   7.241  17.712  0.00  0.00    +0.000 C 
BRANCH  17  18
ATOM     18  O   UNL     1       6.292   8.040  16.834  0.00  0.00    +0.000 OA
ATOM     19  H   UNL     1       5.678   8.555  17.386  0.00  0.00    +0.000 HD
ENDBRANCH  17  18
BRANCH  17  20
ATOM     20  C   UNL     1       8.288   8.063  18.234  0.00  0.00    +0.000 C 
BRANCH  20  21
ATOM     21  O   UNL     1       8.359   9.332  17.563  0.00  0.00    +0.000 OA
BRANCH  21  22
ATOM     22  C   UNL     1       8.829  10.352  18.346  0.00  0.00    +0.000 A 
ATOM     23  C   UNL     1       8.809  11.626  17.777  0.00  0.00    +0.000 A 
ATOM     24  C   UNL     1       9.280  12.732  18.496  0.00  0.00    +0.000 A 
ATOM     25  C   UNL     1       9.763  12.576  19.802  0.00  0.00    +0.000 A 
ATOM     26  C   UNL     1       9.751  11.298  20.377  0.00  0.00    +0.000 A 
ATOM     27  C   UNL     1       9.287  10.195  19.656  0.00  0.00    +0.000 A 
BRANCH  25  28
ATOM     28  C   UNL     1      10.286  13.743  20.603  0.00  0.00    +0.000 C 
ATOM     29  F   UNL     1      11.611  13.994  20.410  0.00  0.00    +0.000 F 
ATOM     30  F   UNL     1       9.638  14.905  20.311  0.00  0.00    +0.000 F 
ATOM     31  F   UNL     1      10.134  13.561  21.945  0.00  0.00    +0.000 F 
ENDBRANCH  25  28
ENDBRANCH  21  22
ENDBRANCH  20  21
ENDBRANCH  17  20
ENDBRANCH   1  17
TORSDOF 9
ENDMDL
MODEL 5
REMARK VINA RESULT:      -7.5      1.757      2.138
REMARK  Name = 
REMARK  9 active torsions:
REMARK  status: ('A' for Active; 'I' for Inactive)
REMARK    1  A    between atoms: O_1  and  C_2
REMARK    2  A    between atoms: C_2  and  C_3
REMARK    3  A    between atoms: C_2  and  C_15
REMARK    4  A    between atoms: C_3  and  O_4
REMARK    5  A    between atoms: O_4  and  C_5
REMARK    6  A    between atoms: C_8  and  C_9
REMARK    7  A    between atoms: C_15  and  N_16
REMARK    8  A    between atoms: N_19  and  C_20
REMARK    9  A    between atoms: C_20  and  C_21
REMARK                            x       y       z     vdW  Elec       q    Type
REMARK                         _______ _______ _______ _____ _____    ______ ____
ROOT
ATOM      1  C   UNL     1       7.851   6.580  17.393  0.00  0.00    +0.000 C 
ENDROOT
BRANCH   1   2
ATOM      2  N   UNL     1       7.560   5.406  18.236  0.00  0.00    +0.000 NA
ATOM      3  C   UNL     1       6.414   5.602  19.149  0.00  0.00    +0.000 C 
ATOM      4  C   UNL     1       5.024   5.656  18.467  0.00  0.00    +0.000 C 
ATOM      5  N   UNL     1       4.743   4.604  17.471  0.00  0.00    +0.000 NA
ATOM      6  C   UNL     1       5.918   4.383  16.603  0.00  0.00    +0.000 C 
ATOM      7  C   UNL     1       7.255   4.243  17.373  0.00  0.00    +0.000 C 
BRANCH   5   8
ATOM      8  C   UNL     1       4.323   3.319  18.055  0.00  0.00    +0.000 C 
BRANCH   8   9
ATOM      9  C   UNL     1       3.264   3.336  19.131  0.00  0.00    +0.000 A 
ATOM     10  C   UNL     1       3.584   2.677  20.329  0.00  0.00    +0.000 A 
ATOM     11  F   UNL     1       4.790   2.106  20.471  0.00  0.00    +0.000 F 
ATOM     12  C   UNL     1       2.685   2.565  21.387  0.00  0.00    +0.000 A 
ATOM     13  C   UNL     1       1.419   3.117  21.270  0.00  0.00    +0.000 A 
ATOM     14  C   UNL     1       1.057   3.753  20.083  0.00  0.00    +0.000 A 
ATOM     15  C   UNL     1       1.960   3.839  19.010  0.00  0.00    +0.000 A 
ATOM     16 CL   UNL     1       1.347   4.554  17.561  0.00  0.00    +0.000 Cl
ENDBRANCH   8   9
ENDBRANCH   5   8
ENDBRANCH   1   2
BRANCH   1  17
ATOM     17  C   UNL     1       7.012   7.843  17.651  0.00  0.00    +0.000 C 
BRANCH  17  18
ATOM     18  O   UNL     1       5.962   7.925  16.670  0.00  0.00    +0.000 OA
ATOM     19  H   UNL     1       5.143   7.604  17.086  0.00  0.00    +0.000 HD
ENDBRANCH  17  18
BRANCH  17  20
ATOM     20  C   UNL     1       7.837   9.133  17.652  0.00  0.00    +0.000 C 
BRANCH  20  21
ATOM     21  O   UNL     1       8.795   9.121  18.722  0.00  0.00    +0.000 OA
BRANCH  21  22
ATOM     22  C   UNL     1       9.285  10.357  19.049  0.00  0.00    +0.000 A 
ATOM     23  C   UNL     1       9.261  10.694  20.403  0.00  0.00    +0.000 A 
ATOM     24  C   UNL     1       9.730  11.941  20.834  0.00  0.00    +0.000 A 
ATOM     25  C   UNL     1      10.244  12.862  19.911  0.00  0.00    +0.000 A 
ATOM     26  C   UNL     1      10.292  12.505  18.557  0.00  0.00    +0.000 A 
ATOM     27  C   UNL     1       9.818  11.262  18.129  0.00  0.00    +0.000 A 
BRANCH  25  28
ATOM     28  C   UNL     1      10.749  14.219  20.337  0.00  0.00    +0.000 C 
ATOM     29  F   UNL     1      12.036  14.468  19.967  0.00  0.00    +0.000 F 
ATOM     30  F   UNL     1      10.006  15.236  19.817  0.00  0.00    +0.000 F 
ATOM     31  F   UNL     1      10.710  14.386  21.689  0.00  0.00    +0.000 F 
ENDBRANCH  25  28
ENDBRANCH  21  22
ENDBRANCH  20  21
ENDBRANCH  17  20
ENDBRANCH   1  17
TORSDOF 9
ENDMDL
MODEL 6
REMARK VINA RESULT:      -7.4      2.027      2.519
REMARK  Name = 
REMARK  9 active torsions:
REMARK  status: ('A' for Active; 'I' for Inactive)
REMARK    1  A    between atoms: O_1  and  C_2
REMARK    2  A    between atoms: C_2  and  C_3
REMARK    3  A    between atoms: C_2  and  C_15
REMARK    4  A    between atoms: C_3  and  O_4
REMARK    5  A    between atoms: O_4  and  C_5
REMARK    6  A    between atoms: C_8  and  C_9
REMARK    7  A    between atoms: C_15  and  N_16
REMARK    8  A    between atoms: N_19  and  C_20
REMARK    9  A    between atoms: C_20  and  C_21
REMARK                            x       y       z     vdW  Elec       q    Type
REMARK                         _______ _______ _______ _____ _____    ______ ____
ROOT
ATOM      1  C   UNL     1       7.294   6.195  17.171  0.00  0.00    +0.000 C 
ENDROOT
BRANCH   1   2
ATOM      2  N   UNL     1       5.862   6.540  17.219  0.00  0.00    +0.000 NA
ATOM      3  C   UNL     1       5.118   6.153  16.000  0.00  0.00    +0.000 C 
ATOM      4  C   UNL     1       4.908   4.630  15.808  0.00  0.00    +0.000 C 
ATOM      5  N   UNL     1       4.434   3.881  16.988  0.00  0.00    +0.000 NA
ATOM      6  C   UNL     1       5.149   4.320  18.204  0.00  0.00    +0.000 C 
ATOM      7  C   UNL     1       5.228   5.859  18.369  0.00  0.00    +0.000 C 
BRANCH   5   8
ATOM      8  C   UNL     1       2.982   3.976  17.217  0.00  0.00    +0.000 C 
BRANCH   8   9
ATOM      9  C   UNL     1       2.457   3.686  18.603  0.00  0.00    +0.000 A 
ATOM     10  C   UNL     1       1.887   4.770  19.291  0.00  0.00    +0.000 A 
ATOM     11  F   UNL     1       1.809   5.968  18.694  0.00  0.00    +0.000 F 
ATOM     12  C   UNL     1       1.412   4.663  20.596  0.00  0.00    +0.000 A 
ATOM     13  C   UNL     1       1.499   3.449  21.258  0.00  0.00    +0.000 A 
ATOM     14  C   UNL     1       2.086   2.359  20.616  0.00  0.00    +0.000 A 
ATOM     15  C   UNL     1       2.587   2.481  19.308  0.00  0.00    +0.000 A 
ATOM     16 CL   UNL     1       3.387   1.087  18.672  0.00  0.00    +0.000 Cl
ENDBRANCH   8   9
ENDBRANCH   5   8
ENDBRANCH   1   2
BRANCH   1  17
ATOM     17  C   UNL     1       8.265   7.172  17.856  0.00  0.00    +0.000 C 
BRANCH  17  18
ATOM     18  O   UNL     1       8.312   6.886  19.265  0.00  0.00    +0.000 OA
ATOM     19  H   UNL     1       7.404   6.693  19.559  0.00  0.00    +0.000 HD
ENDBRANCH  17  18
BRANCH  17  20
ATOM     20  C   UNL     1       7.913   8.644  17.625  0.00  0.00    +0.000 C 
BRANCH  20  21
ATOM     21  O   UNL     1       8.226   9.429  18.786  0.00  0.00    +0.000 OA
BRANCH  21  22
ATOM     22  C   UNL     1       8.960  10.554  18.519  0.00  0.00    +0.000 A 
ATOM     23  C   UNL     1       8.313  11.558  17.798  0.00  0.00    +0.000 A 
ATOM     24  C   UNL     1       8.985  12.741  17.467  0.00  0.00    +0.000 A 
ATOM     25  C   UNL     1      10.313  12.938  17.869  0.00  0.00    +0.000 A 
ATOM     26  C   UNL     1      10.946  11.937  18.619  0.00  0.00    +0.000 A 
ATOM     27  C   UNL     1      10.276  10.755  18.942  0.00  0.00    +0.000 A 
BRANCH  25  28
ATOM     28  C   UNL     1      11.072  14.196  17.523  0.00  0.00    +0.000 C 
ATOM     29  F   UNL     1      11.219  14.399  16.184  0.00  0.00    +0.000 F 
ATOM     30  F   UNL     1      10.468  15.316  18.008  0.00  0.00    +0.000 F 
ATOM     31  F   UNL     1      12.333  14.201  18.041  0.00  0.00    +0.000 F 
ENDBRANCH  25  28
ENDBRANCH  21  22
ENDBRANCH  20  21
ENDBRANCH  17  20
ENDBRANCH   1  17
TORSDOF 9
ENDMDL
MODEL 7
REMARK VINA RESULT:      -7.4      1.121      1.816
REMARK  Name = 
REMARK  9 active torsions:
REMARK  status: ('A' for Active; 'I' for Inactive)
REMARK    1  A    between atoms: O_1  and  C_2
REMARK    2  A    between atoms: C_2  and  C_3
REMARK    3  A    between atoms: C_2  and  C_15
REMARK    4  A    between atoms: C_3  and  O_4
REMARK    5  A    between atoms: O_4  and  C_5
REMARK    6  A    between atoms: C_8  and  C_9
REMARK    7  A    between atoms: C_15  and  N_16
REMARK    8  A    between atoms: N_19  and  C_20
REMARK    9  A    between atoms: C_20  and  C_21
REMARK                            x       y       z     vdW  Elec       q    Type
REMARK                         _______ _______ _______ _____ _____    ______ ____
ROOT
ATOM      1  C   UNL     1       7.441   6.398  17.052  0.00  0.00    +0.000 C 
ENDROOT
BRANCH   1   2
ATOM      2  N   UNL     1       5.989   6.638  16.966  0.00  0.00    +0.000 NA
ATOM      3  C   UNL     1       5.367   6.072  15.750  0.00  0.00    +0.000 C 
ATOM      4  C   UNL     1       5.275   4.526  15.709  0.00  0.00    +0.000 C 
ATOM      5  N   UNL     1       4.766   3.869  16.929  0.00  0.00    +0.000 NA
ATOM      6  C   UNL     1       5.357   4.484  18.136  0.00  0.00    +0.000 C 
ATOM      7  C   UNL     1       5.319   6.033  18.139  0.00  0.00    +0.000 C 
BRANCH   5   8
ATOM      8  C   UNL     1       3.298   3.877  17.049  0.00  0.00    +0.000 C 
BRANCH   8   9
ATOM      9  C   UNL     1       2.690   3.595  18.402  0.00  0.00    +0.000 A 
ATOM     10  C   UNL     1       1.969   4.646  18.991  0.00  0.00    +0.000 A 
ATOM     11  F   UNL     1       1.831   5.807  18.334  0.00  0.00    +0.000 F 
ATOM     12  C   UNL     1       1.400   4.548  20.259  0.00  0.00    +0.000 A 
ATOM     13  C   UNL     1       1.543   3.374  20.983  0.00  0.00    +0.000 A 
ATOM     14  C   UNL     1       2.278   2.320  20.440  0.00  0.00    +0.000 A 
ATOM     15  C   UNL     1       2.871   2.436  19.172  0.00  0.00    +0.000 A 
ATOM     16 CL   UNL     1       3.844   1.101  18.667  0.00  0.00    +0.000 Cl
ENDBRANCH   8   9
ENDBRANCH   5   8
ENDBRANCH   1   2
BRANCH   1  17
ATOM     17  C   UNL     1       8.231   7.276  18.039  0.00  0.00    +0.000 C 
BRANCH  17  18
ATOM     18  O   UNL     1       8.265   6.633  19.325  0.00  0.00    +0.000 OA
ATOM     19  H   UNL     1       7.392   6.231  19.479  0.00  0.00    +0.000 HD
ENDBRANCH  17  18
BRANCH  17  20
ATOM     20  C   UNL     1       7.675   8.696  18.171  0.00  0.00    +0.000 C 
BRANCH  20  21
ATOM     21  O   UNL     1       8.530   9.640  17.505  0.00  0.00    +0.000 OA
BRANCH  21  22
ATOM     22  C   UNL     1       8.980  10.651  18.311  0.00  0.00    +0.000 A 
ATOM     23  C   UNL     1       8.980  11.931  17.755  0.00  0.00    +0.000 A 
ATOM     24  C   UNL     1       9.434  13.028  18.497  0.00  0.00    +0.000 A 
ATOM     25  C   UNL     1       9.880  12.857  19.815  0.00  0.00    +0.000 A 
ATOM     26  C   UNL     1       9.849  11.573  20.376  0.00  0.00    +0.000 A 
ATOM     27  C   UNL     1       9.402  10.479  19.631  0.00  0.00    +0.000 A 
BRANCH  25  28
ATOM     28  C   UNL     1      10.385  14.014  20.642  0.00  0.00    +0.000 C 
ATOM     29  F   UNL     1      11.665  14.380  20.354  0.00  0.00    +0.000 F 
ATOM     30  F   UNL     1       9.629  15.136  20.480  0.00  0.00    +0.000 F 
ATOM     31  F   UNL     1      10.366  13.745  21.978  0.00  0.00    +0.000 F 
ENDBRANCH  25  28
ENDBRANCH  21  22
ENDBRANCH  20  21
ENDBRANCH  17  20
ENDBRANCH   1  17
TORSDOF 9
ENDMDL
MODEL 8
REMARK VINA RESULT:      -7.4      1.569      2.118
REMARK  Name = 
REMARK  9 active torsions:
REMARK  status: ('A' for Active; 'I' for Inactive)
REMARK    1  A    between atoms: O_1  and  C_2
REMARK    2  A    between atoms: C_2  and  C_3
REMARK    3  A    between atoms: C_2  and  C_15
REMARK    4  A    between atoms: C_3  and  O_4
REMARK    5  A    between atoms: O_4  and  C_5
REMARK    6  A    between atoms: C_8  and  C_9
REMARK    7  A    between atoms: C_15  and  N_16
REMARK    8  A    between atoms: N_19  and  C_20
REMARK    9  A    between atoms: C_20  and  C_21
REMARK                            x       y       z     vdW  Elec       q    Type
REMARK                         _______ _______ _______ _____ _____    ______ ____
ROOT
ATOM      1  C   UNL     1       7.676   6.649  17.395  0.00  0.00    +0.000 C 
ENDROOT
BRANCH   1   2
ATOM      2  N   UNL     1       7.431   5.484  18.265  0.00  0.00    +0.000 NA
ATOM      3  C   UNL     1       6.277   5.656  19.173  0.00  0.00    +0.000 C 
ATOM      4  C   UNL     1       4.886   5.639  18.490  0.00  0.00    +0.000 C 
ATOM      5  N   UNL     1       4.648   4.555  17.518  0.00  0.00    +0.000 NA
ATOM      6  C   UNL     1       5.832   4.360  16.655  0.00  0.00    +0.000 C 
ATOM      7  C   UNL     1       7.173   4.291  17.429  0.00  0.00    +0.000 C 
BRANCH   5   8
ATOM      8  C   UNL     1       4.278   3.268  18.131  0.00  0.00    +0.000 C 
BRANCH   8   9
ATOM      9  C   UNL     1       3.194   3.263  19.183  0.00  0.00    +0.000 A 
ATOM     10  C   UNL     1       3.510   2.635  20.399  0.00  0.00    +0.000 A 
ATOM     11  F   UNL     1       4.731   2.109  20.576  0.00  0.00    +0.000 F 
ATOM     12  C   UNL     1       2.591   2.506  21.437  0.00  0.00    +0.000 A 
ATOM     13  C   UNL     1       1.310   3.012  21.284  0.00  0.00    +0.000 A 
ATOM     14  C   UNL     1       0.953   3.616  20.078  0.00  0.00    +0.000 A 
ATOM     15  C   UNL     1       1.877   3.719  19.024  0.00  0.00    +0.000 A 
ATOM     16 CL   UNL     1       1.273   4.389  17.551  0.00  0.00    +0.000 Cl
ENDBRANCH   8   9
ENDBRANCH   5   8
ENDBRANCH   1   2
BRANCH   1  17
ATOM     17  C   UNL     1       7.444   8.037  18.015  0.00  0.00    +0.000 C 
BRANCH  17  18
ATOM     18  O   UNL     1       6.848   8.903  17.033  0.00  0.00    +0.000 OA
ATOM     19  H   UNL     1       6.153   8.398  16.576  0.00  0.00    +0.000 HD
ENDBRANCH  17  18
BRANCH  17  20
ATOM     20  C   UNL     1       8.718   8.673  18.578  0.00  0.00    +0.000 C 
BRANCH  20  21
ATOM     21  O   UNL     1       9.021   9.898  17.891  0.00  0.00    +0.000 OA
BRANCH  21  22
ATOM     22  C   UNL     1       9.256  10.962  18.720  0.00  0.00    +0.000 A 
ATOM     23  C   UNL     1       9.296  12.219  18.117  0.00  0.00    +0.000 A 
ATOM     24  C   UNL     1       9.541  13.367  18.880  0.00  0.00    +0.000 A 
ATOM     25  C   UNL     1       9.735  13.269  20.265  0.00  0.00    +0.000 A 
ATOM     26  C   UNL     1       9.662  12.006  20.868  0.00  0.00    +0.000 A 
ATOM     27  C   UNL     1       9.424  10.861  20.103  0.00  0.00    +0.000 A 
BRANCH  25  28
ATOM     28  C   UNL     1      10.010  14.482  21.119  0.00  0.00    +0.000 C 
ATOM     29  F   UNL     1      11.216  15.065  20.874  0.00  0.00    +0.000 F 
ATOM     30  F   UNL     1       9.079  15.461  20.945  0.00  0.00    +0.000 F 
ATOM     31  F   UNL     1      10.000  14.193  22.451  0.00  0.00    +0.000 F 
ENDBRANCH  25  28
ENDBRANCH  21  22
ENDBRANCH  20  21
ENDBRANCH  17  20
ENDBRANCH   1  17
TORSDOF 9
ENDMDL
MODEL 9
REMARK VINA RESULT:      -7.3      7.915     11.263
REMARK  Name = 
REMARK  9 active torsions:
REMARK  status: ('A' for Active; 'I' for Inactive)
REMARK    1  A    between atoms: O_1  and  C_2
REMARK    2  A    between atoms: C_2  and  C_3
REMARK    3  A    between atoms: C_2  and  C_15
REMARK    4  A    between atoms: C_3  and  O_4
REMARK    5  A    between atoms: O_4  and  C_5
REMARK    6  A    between atoms: C_8  and  C_9
REMARK    7  A    between atoms: C_15  and  N_16
REMARK    8  A    between atoms: N_19  and  C_20
REMARK    9  A    between atoms: C_20  and  C_21
REMARK                            x       y       z     vdW  Elec       q    Type
REMARK                         _______ _______ _______ _____ _____    ______ ____
ROOT
ATOM      1  C   UNL     1       0.345  10.487  18.340  0.00  0.00    +0.000 C 
ENDROOT
BRANCH   1   2
ATOM      2  N   UNL     1      -0.047  11.881  18.615  0.00  0.00    +0.000 NA
ATOM      3  C   UNL     1      -1.434  12.198  18.210  0.00  0.00    +0.000 C 
ATOM      4  C   UNL     1      -2.542  11.547  19.075  0.00  0.00    +0.000 C 
ATOM      5  N   UNL     1      -2.373  11.647  20.538  0.00  0.00    +0.000 NA
ATOM      6  C   UNL     1      -0.970  11.383  20.919  0.00  0.00    +0.000 C 
ATOM      7  C   UNL     1       0.072  12.149  20.065  0.00  0.00    +0.000 C 
BRANCH   5   8
ATOM      8  C   UNL     1      -2.794  12.940  21.105  0.00  0.00    +0.000 C 
BRANCH   8   9
ATOM      9  C   UNL     1      -3.914  12.945  22.118  0.00  0.00    +0.000 A 
ATOM     10  C   UNL     1      -3.548  12.701  23.452  0.00  0.00    +0.000 A 
ATOM     11  F   UNL     1      -2.257  12.510  23.761  0.00  0.00    +0.000 F 
ATOM     12  C   UNL     1      -4.480  12.622  24.483  0.00  0.00    +0.000 A 
ATOM     13  C   UNL     1      -5.827  12.786  24.202  0.00  0.00    +0.000 A 
ATOM     14  C   UNL     1      -6.230  13.001  22.883  0.00  0.00    +0.000 A 
ATOM     15  C   UNL     1      -5.285  13.054  21.843  0.00  0.00    +0.000 A 
ATOM     16 CL   UNL     1      -5.927  13.215  20.247  0.00  0.00    +0.000 Cl
ENDBRANCH   8   9
ENDBRANCH   5   8
ENDBRANCH   1   2
BRANCH   1  17
ATOM     17  C   UNL     1       1.848  10.165  18.400  0.00  0.00    +0.000 C 
BRANCH  17  18
ATOM     18  O   UNL     1       2.547  10.979  17.442  0.00  0.00    +0.000 OA
ATOM     19  H   UNL     1       2.299  10.670  16.553  0.00  0.00    +0.000 HD
ENDBRANCH  17  18
BRANCH  17  20
ATOM     20  C   UNL     1       2.164   8.685  18.169  0.00  0.00    +0.000 C 
BRANCH  20  21
ATOM     21  O   UNL     1       2.220   7.977  19.417  0.00  0.00    +0.000 OA
BRANCH  21  22
ATOM     22  C   UNL     1       2.071   6.621  19.299  0.00  0.00    +0.000 A 
ATOM     23  C   UNL     1       2.338   6.077  18.042  0.00  0.00    +0.000 A 
ATOM     24  C   UNL     1       2.203   4.702  17.819  0.00  0.00    +0.000 A 
ATOM     25  C   UNL     1       1.811   3.850  18.861  0.00  0.00    +0.000 A 
ATOM     26  C   UNL     1       1.574   4.400  20.128  0.00  0.00    +0.000 A 
ATOM     27  C   UNL     1       1.703   5.774  20.346  0.00  0.00    +0.000 A 
BRANCH  25  28
ATOM     28  C   UNL     1       1.646   2.364  18.656  0.00  0.00    +0.000 C 
ATOM     29  F   UNL     1       2.224   1.898  17.514  0.00  0.00    +0.000 F 
ATOM     30  F   UNL     1       2.188   1.637  19.673  0.00  0.00    +0.000 F 
ATOM     31  F   UNL     1       0.337   1.991  18.590  0.00  0.00    +0.000 F 
ENDBRANCH  25  28
ENDBRANCH  21  22
ENDBRANCH  20  21
ENDBRANCH  17  20
ENDBRANCH   1  17
TORSDOF 9
ENDMDL
