MODEL 1
REMARK VINA RESULT:      -7.4      0.000      0.000
REMARK  Name = 
REMARK  8 active torsions:
REMARK  status: ('A' for Active; 'I' for Inactive)
REMARK    1  A    between atoms: C_1  and  O_2
REMARK    2  A    between atoms: O_2  and  C_3
REMARK    3  A    between atoms: C_7  and  C_8
REMARK    4  A    between atoms: C_8  and  O_9
REMARK    5  A    between atoms: O_9  and  C_10
REMARK    6  A    between atoms: C_10  and  C_11
REMARK    7  A    between atoms: N_16  and  S_17
REMARK    8  A    between atoms: S_17  and  C_18
REMARK                            x       y       z     vdW  Elec       q    Type
REMARK                         _______ _______ _______ _____ _____    ______ ____
ROOT
ATOM      1  C   UNL     1       5.182   6.449  17.258  0.00  0.00    +0.000 C 
ATOM      2  O   UNL     1       4.570   7.107  16.414  0.00  0.00    +0.000 OA
ATOM      3  N   UNL     1       4.562   5.480  18.041  0.00  0.00    +0.000 N 
ATOM      4  C   UNL     1       3.119   5.281  17.890  0.00  0.00    +0.000 C 
ATOM      5  C   UNL     1       2.720   3.818  18.139  0.00  0.00    +0.000 C 
ATOM      6  N   UNL     1       3.253   3.284  19.433  0.00  0.00    +0.000 NA
ATOM      7  C   UNL     1       4.729   3.492  19.531  0.00  0.00    +0.000 C 
ATOM      8  C   UNL     1       5.130   4.951  19.289  0.00  0.00    +0.000 C 
ENDROOT
BRANCH   6   9
ATOM      9  S   UNL     1       2.374   3.614  20.846  0.00  0.00    +0.000 S 
ATOM     10  C   UNL     1       0.722   3.155  20.365  0.00  0.00    +0.000 C 
ATOM     11  O   UNL     1       2.801   2.683  21.864  0.00  0.00    +0.000 OA
ATOM     12  O   UNL     1       2.408   5.044  21.075  0.00  0.00    +0.000 OA
ENDBRANCH   6   9
BRANCH   1  13
ATOM     13  C   UNL     1       6.703   6.578  17.382  0.00  0.00    +0.000 C 
BRANCH  13  14
ATOM     14  O   UNL     1       7.382   6.000  16.280  0.00  0.00    +0.000 OA
BRANCH  14  15
ATOM     15  C   UNL     1       6.888   4.704  15.970  0.00  0.00    +0.000 C 
BRANCH  15  20
ATOM     16  C   UNL     1       6.173   3.435  12.445  0.00  0.00    +0.000 A 
ATOM     17  C   UNL     1       7.004   4.270  11.695  0.00  0.00    +0.000 A 
ATOM     18  C   UNL     1       7.789   5.239  12.319  0.00  0.00    +0.000 A 
ATOM     19  C   UNL     1       7.746   5.379  13.703  0.00  0.00    +0.000 A 
ATOM     20  C   UNL     1       6.914   4.552  14.473  0.00  0.00    +0.000 A 
ATOM     21  C   UNL     1       6.124   3.584  13.832  0.00  0.00    +0.000 A 
BRANCH  16  23
ATOM     22  C   UNL     1       6.187   1.358  11.281  0.00  0.00    +0.000 C 
ATOM     23  O   UNL     1       5.477   2.513  11.711  0.00  0.00    +0.000 OA
ENDBRANCH  16  23
ENDBRANCH  15  20
ENDBRANCH  14  15
ENDBRANCH  13  14
ENDBRANCH   1  13
TORSDOF 6
ENDMDL
MODEL 2
REMARK VINA RESULT:      -7.1      4.394      6.952
REMARK  Name = 
REMARK  8 active torsions:
REMARK  status: ('A' for Active; 'I' for Inactive)
REMARK    1  A    between atoms: C_1  and  O_2
REMARK    2  A    between atoms: O_2  and  C_3
REMARK    3  A    between atoms: C_7  and  C_8
REMARK    4  A    between atoms: C_8  and  O_9
REMARK    5  A    between atoms: O_9  and  C_10
REMARK    6  A    between atoms: C_10  and  C_11
REMARK    7  A    between atoms: N_16  and  S_17
REMARK    8  A    between atoms: S_17  and  C_18
REMARK                            x       y       z     vdW  Elec       q    Type
REMARK                         _______ _______ _______ _____ _____    ______ ____
ROOT
ATOM      1  C   UNL     1       7.063   6.402  17.200  0.00  0.00    +0.000 C 
ATOM      2  O   UNL     1       7.495   6.371  16.046  0.00  0.00    +0.000 OA
ATOM      3  N   UNL     1       5.937   5.686  17.594  0.00  0.00    +0.000 N 
ATOM      4  C   UNL     1       5.211   4.916  16.582  0.00  0.00    +0.000 C 
ATOM      5  C   UNL     1       4.572   3.654  17.182  0.00  0.00    +0.000 C 
ATOM      6  N   UNL     1       3.749   3.944  18.399  0.00  0.00    +0.000 NA
ATOM      7  C   UNL     1       4.538   4.711  19.409  0.00  0.00    +0.000 C 
ATOM      8  C   UNL     1       5.173   5.974  18.816  0.00  0.00    +0.000 C 
ENDROOT
BRANCH   6   9
ATOM      9  S   UNL     1       2.153   4.468  18.168  0.00  0.00    +0.000 S 
ATOM     10  C   UNL     1       1.430   4.158  19.765  0.00  0.00    +0.000 C 
ATOM     11  O   UNL     1       2.178   5.901  17.977  0.00  0.00    +0.000 OA
ATOM     12  O   UNL     1       1.526   3.593  17.198  0.00  0.00    +0.000 OA
ENDBRANCH   6   9
BRANCH   1  13
ATOM     13  C   UNL     1       7.846   7.132  18.296  0.00  0.00    +0.000 C 
BRANCH  13  14
ATOM     14  O   UNL     1       8.599   8.218  17.785  0.00  0.00    +0.000 OA
BRANCH  14  15
ATOM     15  C   UNL     1       8.014   9.472  18.111  0.00  0.00    +0.000 C 
BRANCH  15  20
ATOM     16  C   UNL     1      11.025  11.811  18.238  0.00  0.00    +0.000 A 
ATOM     17  C   UNL     1      11.154  11.993  19.617  0.00  0.00    +0.000 A 
ATOM     18  C   UNL     1      10.275  11.370  20.502  0.00  0.00    +0.000 A 
ATOM     19  C   UNL     1       9.257  10.558  20.010  0.00  0.00    +0.000 A 
ATOM     20  C   UNL     1       9.109  10.365  18.629  0.00  0.00    +0.000 A 
ATOM     21  C   UNL     1       9.997  11.003  17.747  0.00  0.00    +0.000 A 
BRANCH  16  23
ATOM     22  C   UNL     1      11.858  13.873  17.390  0.00  0.00    +0.000 C 
ATOM     23  O   UNL     1      11.967  12.459  17.485  0.00  0.00    +0.000 OA
ENDBRANCH  16  23
ENDBRANCH  15  20
ENDBRANCH  14  15
ENDBRANCH  13  14
ENDBRANCH   1  13
TORSDOF 6
ENDMDL
MODEL 3
REMARK VINA RESULT:      -6.9      1.614      1.998
REMARK  Name = 
REMARK  8 active torsions:
REMARK  status: ('A' for Active; 'I' for Inactive)
REMARK    1  A    between atoms: C_1  and  O_2
REMARK    2  A    between atoms: O_2  and  C_3
REMARK    3  A    between atoms: C_7  and  C_8
REMARK    4  A    between atoms: C_8  and  O_9
REMARK    5  A    between atoms: O_9  and  C_10
REMARK    6  A    between atoms: C_10  and  C_11
REMARK    7  A    between atoms: N_16  and  S_17
REMARK    8  A    between atoms: S_17  and  C_18
REMARK                            x       y       z     vdW  Elec       q    Type
REMARK                         _______ _______ _______ _____ _____    ______ ____
ROOT
ATOM      1  C   UNL     1       5.409   5.873  18.134  0.00  0.00    +0.000 C 
ATOM      2  O   UNL     1       6.288   6.066  18.977  0.00  0.00    +0.000 OA
ATOM      3  N   UNL     1       4.197   5.265  18.447  0.00  0.00    +0.000 N 
ATOM      4  C   UNL     1       3.988   4.790  19.816  0.00  0.00    +0.000 C 
ATOM      5  C   UNL     1       2.512   4.888  20.230  0.00  0.00    +0.000 C 
ATOM      6  N   UNL     1       1.588   4.247  19.241  0.00  0.00    +0.000 NA
ATOM      7  C   UNL     1       1.826   4.778  17.865  0.00  0.00    +0.000 C 
ATOM      8  C   UNL     1       3.296   4.677  17.445  0.00  0.00    +0.000 C 
ENDROOT
BRANCH   6   9
ATOM      9  S   UNL     1       1.358   2.569  19.347  0.00  0.00    +0.000 S 
ATOM     10  C   UNL     1       2.840   1.948  18.579  0.00  0.00    +0.000 C 
ATOM     11  O   UNL     1       1.408   2.200  20.743  0.00  0.00    +0.000 OA
ATOM     12  O   UNL     1       0.225   2.217  18.517  0.00  0.00    +0.000 OA
ENDBRANCH   6   9
BRANCH   1  13
ATOM     13  C   UNL     1       5.566   6.430  16.716  0.00  0.00    +0.000 C 
BRANCH  13  14
ATOM     14  O   UNL     1       6.845   6.157  16.170  0.00  0.00    +0.000 OA
BRANCH  14  15
ATOM     15  C   UNL     1       7.028   4.772  15.906  0.00  0.00    +0.000 C 
BRANCH  15  20
ATOM     16  C   UNL     1       6.038   3.467  12.461  0.00  0.00    +0.000 A 
ATOM     17  C   UNL     1       6.888   4.218  11.646  0.00  0.00    +0.000 A 
ATOM     18  C   UNL     1       7.772   5.142  12.200  0.00  0.00    +0.000 A 
ATOM     19  C   UNL     1       7.812   5.322  13.580  0.00  0.00    +0.000 A 
ATOM     20  C   UNL     1       6.964   4.580  14.415  0.00  0.00    +0.000 A 
ATOM     21  C   UNL     1       6.073   3.656  13.845  0.00  0.00    +0.000 A 
BRANCH  16  23
ATOM     22  C   UNL     1       4.071   3.102  11.172  0.00  0.00    +0.000 C 
ATOM     23  O   UNL     1       5.239   2.580  11.792  0.00  0.00    +0.000 OA
ENDBRANCH  16  23
ENDBRANCH  15  20
ENDBRANCH  14  15
ENDBRANCH  13  14
ENDBRANCH   1  13
TORSDOF 6
ENDMDL
MODEL 4
REMARK VINA RESULT:      -6.9      4.628      7.333
REMARK  Name = 
REMARK  8 active torsions:
REMARK  status: ('A' for Active; 'I' for Inactive)
REMARK    1  A    between atoms: C_1  and  O_2
REMARK    2  A    between atoms: O_2  and  C_3
REMARK    3  A    between atoms: C_7  and  C_8
REMARK    4  A    between atoms: C_8  and  O_9
REMARK    5  A    between atoms: O_9  and  C_10
REMARK    6  A    between atoms: C_10  and  C_11
REMARK    7  A    between atoms: N_16  and  S_17
REMARK    8  A    between atoms: S_17  and  C_18
REMARK                            x       y       z     vdW  Elec       q    Type
REMARK                         _______ _______ _______ _____ _____    ______ ____
ROOT
ATOM      1  C   UNL     1       7.235   6.330  18.371  0.00  0.00    +0.000 C 
ATOM      2  O   UNL     1       8.055   5.793  19.118  0.00  0.00    +0.000 OA
ATOM      3  N   UNL     1       5.889   5.979  18.366  0.00  0.00    +0.000 N 
ATOM      4  C   UNL     1       5.450   4.890  19.241  0.00  0.00    +0.000 C 
ATOM      5  C   UNL     1       4.010   5.104  19.734  0.00  0.00    +0.000 C 
ATOM      6  N   UNL     1       3.051   5.382  18.618  0.00  0.00    +0.000 NA
ATOM      7  C   UNL     1       3.531   6.511  17.767  0.00  0.00    +0.000 C 
ATOM      8  C   UNL     1       4.965   6.298  17.269  0.00  0.00    +0.000 C 
ENDROOT
BRANCH   6   9
ATOM      9  S   UNL     1       2.412   4.054  17.777  0.00  0.00    +0.000 S 
ATOM     10  C   UNL     1       1.991   2.947  19.106  0.00  0.00    +0.000 C 
ATOM     11  O   UNL     1       1.177   4.473  17.156  0.00  0.00    +0.000 OA
ATOM     12  O   UNL     1       3.479   3.458  16.999  0.00  0.00    +0.000 OA
ENDBRANCH   6   9
BRANCH   1  13
ATOM     13  C   UNL     1       7.648   7.524  17.505  0.00  0.00    +0.000 C 
BRANCH  13  14
ATOM     14  O   UNL     1       7.865   8.696  18.273  0.00  0.00    +0.000 OA
BRANCH  14  15
ATOM     15  C   UNL     1       8.358   9.767  17.481  0.00  0.00    +0.000 C 
BRANCH  15  20
ATOM     16  C   UNL     1      11.083  12.201  18.580  0.00  0.00    +0.000 A 
ATOM     17  C   UNL     1      11.004  12.069  19.969  0.00  0.00    +0.000 A 
ATOM     18  C   UNL     1      10.077  11.204  20.549  0.00  0.00    +0.000 A 
ATOM     19  C   UNL     1       9.219  10.463  19.740  0.00  0.00    +0.000 A 
ATOM     20  C   UNL     1       9.281  10.585  18.344  0.00  0.00    +0.000 A 
ATOM     21  C   UNL     1      10.215  11.464  17.772  0.00  0.00    +0.000 A 
BRANCH  16  23
ATOM     22  C   UNL     1      12.306  14.211  18.942  0.00  0.00    +0.000 C 
ATOM     23  O   UNL     1      12.051  13.063  18.142  0.00  0.00    +0.000 OA
ENDBRANCH  16  23
ENDBRANCH  15  20
ENDBRANCH  14  15
ENDBRANCH  13  14
ENDBRANCH   1  13
TORSDOF 6
ENDMDL
MODEL 5
REMARK VINA RESULT:      -6.9      0.949      1.102
REMARK  Name = 
REMARK  8 active torsions:
REMARK  status: ('A' for Active; 'I' for Inactive)
REMARK    1  A    between atoms: C_1  and  O_2
REMARK    2  A    between atoms: O_2  and  C_3
REMARK    3  A    between atoms: C_7  and  C_8
REMARK    4  A    between atoms: C_8  and  O_9
REMARK    5  A    between atoms: O_9  and  C_10
REMARK    6  A    between atoms: C_10  and  C_11
REMARK    7  A    between atoms: N_16  and  S_17
REMARK    8  A    between atoms: S_17  and  C_18
REMARK                            x       y       z     vdW  Elec       q    Type
REMARK                         _______ _______ _______ _____ _____    ______ ____
ROOT
ATOM      1  C   UNL     1       5.147   6.254  17.573  0.00  0.00    +0.000 C 
ATOM      2  O   UNL     1       4.612   7.069  16.819  0.00  0.00    +0.000 OA
ATOM      3  N   UNL     1       4.430   5.253  18.219  0.00  0.00    +0.000 N 
ATOM      4  C   UNL     1       2.978   5.207  18.037  0.00  0.00    +0.000 C 
ATOM      5  C   UNL     1       2.445   3.767  18.091  0.00  0.00    +0.000 C 
ATOM      6  N   UNL     1       2.906   3.023  19.307  0.00  0.00    +0.000 NA
ATOM      7  C   UNL     1       4.393   3.081  19.437  0.00  0.00    +0.000 C 
ATOM      8  C   UNL     1       4.928   4.517  19.390  0.00  0.00    +0.000 C 
ENDROOT
BRANCH   6   9
ATOM      9  S   UNL     1       2.037   3.246  20.746  0.00  0.00    +0.000 S 
ATOM     10  C   UNL     1       2.038   5.020  20.903  0.00  0.00    +0.000 C 
ATOM     11  O   UNL     1       0.672   2.834  20.511  0.00  0.00    +0.000 OA
ATOM     12  O   UNL     1       2.814   2.686  21.833  0.00  0.00    +0.000 OA
ENDBRANCH   6   9
BRANCH   1  13
ATOM     13  C   UNL     1       6.672   6.227  17.720  0.00  0.00    +0.000 C 
BRANCH  13  14
ATOM     14  O   UNL     1       7.300   5.518  16.666  0.00  0.00    +0.000 OA
BRANCH  14  15
ATOM     15  C   UNL     1       6.481   4.469  16.167  0.00  0.00    +0.000 C 
BRANCH  15  20
ATOM     16  C   UNL     1       6.106   3.476  12.503  0.00  0.00    +0.000 A 
ATOM     17  C   UNL     1       7.030   4.335  11.905  0.00  0.00    +0.000 A 
ATOM     18  C   UNL     1       7.768   5.233  12.676  0.00  0.00    +0.000 A 
ATOM     19  C   UNL     1       7.585   5.276  14.055  0.00  0.00    +0.000 A 
ATOM     20  C   UNL     1       6.659   4.423  14.673  0.00  0.00    +0.000 A 
ATOM     21  C   UNL     1       5.917   3.527  13.886  0.00  0.00    +0.000 A 
BRANCH  16  23
ATOM     22  C   UNL     1       4.159   2.997  11.220  0.00  0.00    +0.000 C 
ATOM     23  O   UNL     1       5.468   2.630  11.636  0.00  0.00    +0.000 OA
ENDBRANCH  16  23
ENDBRANCH  15  20
ENDBRANCH  14  15
ENDBRANCH  13  14
ENDBRANCH   1  13
TORSDOF 6
ENDMDL
MODEL 6
REMARK VINA RESULT:      -6.7      4.734      7.037
REMARK  Name = 
REMARK  8 active torsions:
REMARK  status: ('A' for Active; 'I' for Inactive)
REMARK    1  A    between atoms: C_1  and  O_2
REMARK    2  A    between atoms: O_2  and  C_3
REMARK    3  A    between atoms: C_7  and  C_8
REMARK    4  A    between atoms: C_8  and  O_9
REMARK    5  A    between atoms: O_9  and  C_10
REMARK    6  A    between atoms: C_10  and  C_11
REMARK    7  A    between atoms: N_16  and  S_17
REMARK    8  A    between atoms: S_17  and  C_18
REMARK                            x       y       z     vdW  Elec       q    Type
REMARK                         _______ _______ _______ _____ _____    ______ ____
ROOT
ATOM      1  C   UNL     1       2.101   8.632  18.383  0.00  0.00    +0.000 C 
ATOM      2  O   UNL     1       2.354   9.280  17.365  0.00  0.00    +0.000 OA
ATOM      3  N   UNL     1       1.218   9.088  19.357  0.00  0.00    +0.000 N 
ATOM      4  C   UNL     1       0.615  10.412  19.186  0.00  0.00    +0.000 C 
ATOM      5  C   UNL     1      -0.798  10.472  19.786  0.00  0.00    +0.000 C 
ATOM      6  N   UNL     1      -0.848   9.984  21.201  0.00  0.00    +0.000 NA
ATOM      7  C   UNL     1      -0.241   8.624  21.320  0.00  0.00    +0.000 C 
ATOM      8  C   UNL     1       1.171   8.562  20.728  0.00  0.00    +0.000 C 
ENDROOT
BRANCH   6   9
ATOM      9  S   UNL     1      -0.435  11.079  22.429  0.00  0.00    +0.000 S 
ATOM     10  C   UNL     1      -2.011  11.819  22.804  0.00  0.00    +0.000 C 
ATOM     11  O   UNL     1      -0.031  10.316  23.588  0.00  0.00    +0.000 OA
ATOM     12  O   UNL     1       0.428  12.092  21.859  0.00  0.00    +0.000 OA
ENDBRANCH   6   9
BRANCH   1  13
ATOM     13  C   UNL     1       2.653   7.213  18.550  0.00  0.00    +0.000 C 
BRANCH  13  14
ATOM     14  O   UNL     1       3.561   6.865  17.519  0.00  0.00    +0.000 OA
BRANCH  14  15
ATOM     15  C   UNL     1       4.552   5.951  17.969  0.00  0.00    +0.000 C 
BRANCH  15  20
ATOM     16  C   UNL     1       3.064   2.979  19.841  0.00  0.00    +0.000 A 
ATOM     17  C   UNL     1       2.622   2.195  18.773  0.00  0.00    +0.000 A 
ATOM     18  C   UNL     1       2.799   2.621  17.457  0.00  0.00    +0.000 A 
ATOM     19  C   UNL     1       3.421   3.840  17.201  0.00  0.00    +0.000 A 
ATOM     20  C   UNL     1       3.868   4.643  18.260  0.00  0.00    +0.000 A 
ATOM     21  C   UNL     1       3.679   4.206  19.582  0.00  0.00    +0.000 A 
BRANCH  16  23
ATOM     22  C   UNL     1       1.626   2.756  21.725  0.00  0.00    +0.000 C 
ATOM     23  O   UNL     1       2.850   2.433  21.078  0.00  0.00    +0.000 OA
ENDBRANCH  16  23
ENDBRANCH  15  20
ENDBRANCH  14  15
ENDBRANCH  13  14
ENDBRANCH   1  13
TORSDOF 6
ENDMDL
MODEL 7
REMARK VINA RESULT:      -6.7      3.374      6.938
REMARK  Name = 
REMARK  8 active torsions:
REMARK  status: ('A' for Active; 'I' for Inactive)
REMARK    1  A    between atoms: C_1  and  O_2
REMARK    2  A    between atoms: O_2  and  C_3
REMARK    3  A    between atoms: C_7  and  C_8
REMARK    4  A    between atoms: C_8  and  O_9
REMARK    5  A    between atoms: O_9  and  C_10
REMARK    6  A    between atoms: C_10  and  C_11
REMARK    7  A    between atoms: N_16  and  S_17
REMARK    8  A    between atoms: S_17  and  C_18
REMARK                            x       y       z     vdW  Elec       q    Type
REMARK                         _______ _______ _______ _____ _____    ______ ____
ROOT
ATOM      1  C   UNL     1       4.008   2.175  19.189  0.00  0.00    +0.000 C 
ATOM      2  O   UNL     1       3.684   1.159  18.572  0.00  0.00    +0.000 OA
ATOM      3  N   UNL     1       4.600   3.269  18.565  0.00  0.00    +0.000 N 
ATOM      4  C   UNL     1       4.897   3.179  17.134  0.00  0.00    +0.000 C 
ATOM      5  C   UNL     1       4.783   4.548  16.445  0.00  0.00    +0.000 C 
ATOM      6  N   UNL     1       5.571   5.614  17.140  0.00  0.00    +0.000 NA
ATOM      7  C   UNL     1       5.218   5.681  18.590  0.00  0.00    +0.000 C 
ATOM      8  C   UNL     1       5.337   4.319  19.283  0.00  0.00    +0.000 C 
ENDROOT
BRANCH   6   9
ATOM      9  S   UNL     1       7.225   5.733  16.784  0.00  0.00    +0.000 S 
ATOM     10  C   UNL     1       7.654   7.280  17.554  0.00  0.00    +0.000 C 
ATOM     11  O   UNL     1       7.912   4.687  17.506  0.00  0.00    +0.000 OA
ATOM     12  O   UNL     1       7.369   5.875  15.350  0.00  0.00    +0.000 OA
ENDBRANCH   6   9
BRANCH   1  13
ATOM     13  C   UNL     1       3.638   2.330  20.667  0.00  0.00    +0.000 C 
BRANCH  13  14
ATOM     14  O   UNL     1       2.235   2.347  20.871  0.00  0.00    +0.000 OA
BRANCH  14  15
ATOM     15  C   UNL     1       1.778   3.613  21.326  0.00  0.00    +0.000 C 
BRANCH  15  20
ATOM     16  C   UNL     1       1.986   6.766  19.190  0.00  0.00    +0.000 A 
ATOM     17  C   UNL     1       1.668   6.249  17.932  0.00  0.00    +0.000 A 
ATOM     18  C   UNL     1       1.392   4.892  17.771  0.00  0.00    +0.000 A 
ATOM     19  C   UNL     1       1.432   4.041  18.871  0.00  0.00    +0.000 A 
ATOM     20  C   UNL     1       1.753   4.541  20.142  0.00  0.00    +0.000 A 
ATOM     21  C   UNL     1       2.036   5.909  20.291  0.00  0.00    +0.000 A 
BRANCH  16  23
ATOM     22  C   UNL     1       2.353   8.770  17.958  0.00  0.00    +0.000 C 
ATOM     23  O   UNL     1       2.211   8.116  19.213  0.00  0.00    +0.000 OA
ENDBRANCH  16  23
ENDBRANCH  15  20
ENDBRANCH  14  15
ENDBRANCH  13  14
ENDBRANCH   1  13
TORSDOF 6
ENDMDL
MODEL 8
REMARK VINA RESULT:      -6.7      4.296      7.030
REMARK  Name = 
REMARK  8 active torsions:
REMARK  status: ('A' for Active; 'I' for Inactive)
REMARK    1  A    between atoms: C_1  and  O_2
REMARK    2  A    between atoms: O_2  and  C_3
REMARK    3  A    between atoms: C_7  and  C_8
REMARK    4  A    between atoms: C_8  and  O_9
REMARK    5  A    between atoms: O_9  and  C_10
REMARK    6  A    between atoms: C_10  and  C_11
REMARK    7  A    between atoms: N_16  and  S_17
REMARK    8  A    between atoms: S_17  and  C_18
REMARK                            x       y       z     vdW  Elec       q    Type
REMARK                         _______ _______ _______ _____ _____    ______ ____
ROOT
ATOM      1  C   UNL     1       6.848   5.898  18.255  0.00  0.00    +0.000 C 
ATOM      2  O   UNL     1       7.736   5.313  18.878  0.00  0.00    +0.000 OA
ATOM      3  N   UNL     1       5.508   5.538  18.351  0.00  0.00    +0.000 N 
ATOM      4  C   UNL     1       5.154   4.384  19.180  0.00  0.00    +0.000 C 
ATOM      5  C   UNL     1       3.768   4.551  19.821  0.00  0.00    +0.000 C 
ATOM      6  N   UNL     1       2.707   4.903  18.825  0.00  0.00    +0.000 NA
ATOM      7  C   UNL     1       3.104   6.096  18.019  0.00  0.00    +0.000 C 
ATOM      8  C   UNL     1       4.484   5.931  17.372  0.00  0.00    +0.000 C 
ENDROOT
BRANCH   6   9
ATOM      9  S   UNL     1       1.992   3.637  17.951  0.00  0.00    +0.000 S 
ATOM     10  C   UNL     1       1.251   2.669  19.249  0.00  0.00    +0.000 C 
ATOM     11  O   UNL     1       0.917   4.192  17.160  0.00  0.00    +0.000 OA
ATOM     12  O   UNL     1       3.049   2.858  17.339  0.00  0.00    +0.000 OA
ENDBRANCH   6   9
BRANCH   1  13
ATOM     13  C   UNL     1       7.177   7.156  17.445  0.00  0.00    +0.000 C 
BRANCH  13  14
ATOM     14  O   UNL     1       7.831   8.142  18.225  0.00  0.00    +0.000 OA
BRANCH  14  15
ATOM     15  C   UNL     1       8.391   9.171  17.421  0.00  0.00    +0.000 C 
BRANCH  15  20
ATOM     16  C   UNL     1       9.099  12.669  18.769  0.00  0.00    +0.000 A 
ATOM     17  C   UNL     1       9.581  12.363  20.044  0.00  0.00    +0.000 A 
ATOM     18  C   UNL     1       9.675  11.039  20.470  0.00  0.00    +0.000 A 
ATOM     19  C   UNL     1       9.285  10.008  19.619  0.00  0.00    +0.000 A 
ATOM     20  C   UNL     1       8.795  10.296  18.337  0.00  0.00    +0.000 A 
ATOM     21  C   UNL     1       8.699  11.634  17.921  0.00  0.00    +0.000 A 
BRANCH  16  23
ATOM     22  C   UNL     1       7.855  14.546  17.996  0.00  0.00    +0.000 C 
ATOM     23  O   UNL     1       9.082  14.005  18.470  0.00  0.00    +0.000 OA
ENDBRANCH  16  23
ENDBRANCH  15  20
ENDBRANCH  14  15
ENDBRANCH  13  14
ENDBRANCH   1  13
TORSDOF 6
ENDMDL
MODEL 9
REMARK VINA RESULT:      -6.6      4.689      6.473
REMARK  Name = 
REMARK  8 active torsions:
REMARK  status: ('A' for Active; 'I' for Inactive)
REMARK    1  A    between atoms: C_1  and  O_2
REMARK    2  A    between atoms: O_2  and  C_3
REMARK    3  A    between atoms: C_7  and  C_8
REMARK    4  A    between atoms: C_8  and  O_9
REMARK    5  A    between atoms: O_9  and  C_10
REMARK    6  A    between atoms: C_10  and  C_11
REMARK    7  A    between atoms: N_16  and  S_17
REMARK    8  A    between atoms: S_17  and  C_18
REMARK                            x       y       z     vdW  Elec       q    Type
REMARK                         _______ _______ _______ _____ _____    ______ ____
ROOT
ATOM      1  C   UNL     1       2.330   7.599  18.923  0.00  0.00    +0.000 C 
ATOM      2  O   UNL     1       2.817   7.770  17.804  0.00  0.00    +0.000 OA
ATOM      3  N   UNL     1       1.475   8.524  19.514  0.00  0.00    +0.000 N 
ATOM      4  C   UNL     1       1.194   9.770  18.798  0.00  0.00    +0.000 C 
ATOM      5  C   UNL     1      -0.225  10.283  19.089  0.00  0.00    +0.000 C 
ATOM      6  N   UNL     1      -0.520  10.370  20.555  0.00  0.00    +0.000 NA
ATOM      7  C   UNL     1      -0.238   9.071  21.236  0.00  0.00    +0.000 C 
ATOM      8  C   UNL     1       1.178   8.559  20.953  0.00  0.00    +0.000 C 
ENDROOT
BRANCH   6   9
ATOM      9  S   UNL     1      -0.003  11.757  21.384  0.00  0.00    +0.000 S 
ATOM     10  C   UNL     1      -0.553  13.057  20.299  0.00  0.00    +0.000 C 
ATOM     11  O   UNL     1      -0.771  11.858  22.603  0.00  0.00    +0.000 OA
ATOM     12  O   UNL     1       1.445  11.755  21.406  0.00  0.00    +0.000 OA
ENDBRANCH   6   9
BRANCH   1  13
ATOM     13  C   UNL     1       2.541   6.272  19.659  0.00  0.00    +0.000 C 
BRANCH  13  14
ATOM     14  O   UNL     1       2.089   5.161  18.905  0.00  0.00    +0.000 OA
BRANCH  14  15
ATOM     15  C   UNL     1       2.904   4.014  19.105  0.00  0.00    +0.000 C 
BRANCH  15  20
ATOM     16  C   UNL     1       6.513   4.508  17.973  0.00  0.00    +0.000 A 
ATOM     17  C   UNL     1       6.358   4.464  16.585  0.00  0.00    +0.000 A 
ATOM     18  C   UNL     1       5.099   4.273  16.017  0.00  0.00    +0.000 A 
ATOM     19  C   UNL     1       3.984   4.125  16.835  0.00  0.00    +0.000 A 
ATOM     20  C   UNL     1       4.120   4.162  18.231  0.00  0.00    +0.000 A 
ATOM     21  C   UNL     1       5.394   4.348  18.793  0.00  0.00    +0.000 A 
BRANCH  16  23
ATOM     22  C   UNL     1       8.015   5.843  19.248  0.00  0.00    +0.000 C 
ATOM     23  O   UNL     1       7.796   4.725  18.398  0.00  0.00    +0.000 OA
ENDBRANCH  16  23
ENDBRANCH  15  20
ENDBRANCH  14  15
ENDBRANCH  13  14
ENDBRANCH   1  13
TORSDOF 6
ENDMDL
