MODEL 1
REMARK VINA RESULT:      -7.9      0.000      0.000
REMARK  Name = 
REMARK  7 active torsions:
REMARK  status: ('A' for Active; 'I' for Inactive)
REMARK    1  A    between atoms: C_1  and  O_2
REMARK    2  A    between atoms: O_2  and  C_3
REMARK    3  A    between atoms: C_3  and  C_5
REMARK    4  A    between atoms: C_10  and  C_12
REMARK    5  A    between atoms: C_14  and  C_15
REMARK    6  A    between atoms: C_15  and  O_16
REMARK    7  A    between atoms: O_16  and  C_17
REMARK                            x       y       z     vdW  Elec       q    Type
REMARK                         _______ _______ _______ _____ _____    ______ ____
ROOT
ATOM      1  C   UNL     1       6.964   6.538  17.834  0.00  0.00    +0.000 A 
ATOM      2  C   UNL     1       7.902   7.050  18.783  0.00  0.00    +0.000 A 
ATOM      3  C   UNL     1       8.280   8.280  18.288  0.00  0.00    +0.000 A 
ATOM      4  O   UNL     1       7.685   8.458  17.079  0.00  0.00    +0.000 OA
ATOM      5  N   UNL     1       6.864   7.391  16.800  0.00  0.00    +0.000 NA
ENDROOT
BRANCH   1  11
ATOM      6  C   UNL     1       3.796   4.493  18.521  0.00  0.00    +0.000 C 
ATOM      7  C   UNL     1       2.420   5.011  18.067  0.00  0.00    +0.000 C 
ATOM      8  C   UNL     1       2.534   6.521  18.148  0.00  0.00    +0.000 C 
ATOM      9  C   UNL     1       4.011   6.807  17.924  0.00  0.00    +0.000 C 
ATOM     10  N   UNL     1       4.694   5.521  17.980  0.00  0.00    +0.000 N 
ATOM     11  C   UNL     1       6.083   5.353  17.974  0.00  0.00    +0.000 C 
ATOM     12  O   UNL     1       6.579   4.231  18.089  0.00  0.00    +0.000 OA
BRANCH   6  13
ATOM     13  C   UNL     1       3.817   3.010  18.116  0.00  0.00    +0.000 C 
ATOM     14  O   UNL     1       4.204   2.637  17.010  0.00  0.00    +0.000 OA
BRANCH  13  16
ATOM     15  C   UNL     1       4.499   2.305  20.233  0.00  0.00    +0.000 C 
ATOM     16  O   UNL     1       3.559   2.185  19.166  0.00  0.00    +0.000 OA
ENDBRANCH  13  16
ENDBRANCH   6  13
ENDBRANCH   1  11
BRANCH   3  17
ATOM     17  C   UNL     1       9.055   9.443  18.800  0.00  0.00    +0.000 C 
BRANCH  17  18
ATOM     18  O   UNL     1       8.751  10.576  17.996  0.00  0.00    +0.000 OA
BRANCH  18  19
ATOM     19  C   UNL     1       9.647  11.631  17.990  0.00  0.00    +0.000 A 
ATOM     20  C   UNL     1      11.043  11.484  18.048  0.00  0.00    +0.000 A 
ATOM     21  C   UNL     1      11.875  12.605  18.045  0.00  0.00    +0.000 A 
ATOM     22  C   UNL     1      11.319  13.879  17.988  0.00  0.00    +0.000 A 
ATOM     23  C   UNL     1       9.926  14.038  17.918  0.00  0.00    +0.000 A 
ATOM     24  C   UNL     1       9.357  15.318  17.850  0.00  0.00    +0.000 A 
ATOM     25  C   UNL     1       7.981  15.460  17.747  0.00  0.00    +0.000 A 
ATOM     26  C   UNL     1       7.217  14.312  17.726  0.00  0.00    +0.000 A 
ATOM     27  N   UNL     1       7.727  13.067  17.811  0.00  0.00    +0.000 NA
ATOM     28  C   UNL     1       9.068  12.911  17.908  0.00  0.00    +0.000 A 
ENDBRANCH  18  19
ENDBRANCH  17  18
ENDBRANCH   3  17
TORSDOF 6
ENDMDL
MODEL 2
REMARK VINA RESULT:      -7.9      5.031      8.020
REMARK  Name = 
REMARK  7 active torsions:
REMARK  status: ('A' for Active; 'I' for Inactive)
REMARK    1  A    between atoms: C_1  and  O_2
REMARK    2  A    between atoms: O_2  and  C_3
REMARK    3  A    between atoms: C_3  and  C_5
REMARK    4  A    between atoms: C_10  and  C_12
REMARK    5  A    between atoms: C_14  and  C_15
REMARK    6  A    between atoms: C_15  and  O_16
REMARK    7  A    between atoms: O_16  and  C_17
REMARK                            x       y       z     vdW  Elec       q    Type
REMARK                         _______ _______ _______ _____ _____    ______ ____
ROOT
ATOM      1  C   UNL     1       1.775   5.460  20.584  0.00  0.00    +0.000 A 
ATOM      2  C   UNL     1       3.103   4.931  20.573  0.00  0.00    +0.000 A 
ATOM      3  C   UNL     1       2.950   3.576  20.366  0.00  0.00    +0.000 A 
ATOM      4  O   UNL     1       1.621   3.292  20.348  0.00  0.00    +0.000 OA
ATOM      5  N   UNL     1       0.893   4.452  20.472  0.00  0.00    +0.000 NA
ENDROOT
BRANCH   1  11
ATOM      6  C   UNL     1       1.691   9.142  19.524  0.00  0.00    +0.000 C 
ATOM      7  C   UNL     1       1.839   9.530  18.043  0.00  0.00    +0.000 C 
ATOM      8  C   UNL     1       2.737   8.460  17.455  0.00  0.00    +0.000 C 
ATOM      9  C   UNL     1       2.479   7.228  18.309  0.00  0.00    +0.000 C 
ATOM     10  N   UNL     1       1.687   7.675  19.449  0.00  0.00    +0.000 N 
ATOM     11  C   UNL     1       1.362   6.883  20.555  0.00  0.00    +0.000 C 
ATOM     12  O   UNL     1       0.742   7.361  21.506  0.00  0.00    +0.000 OA
BRANCH   6  13
ATOM     13  C   UNL     1       0.522   9.995  20.045  0.00  0.00    +0.000 C 
ATOM     14  O   UNL     1      -0.606   9.928  19.561  0.00  0.00    +0.000 OA
BRANCH  13  16
ATOM     15  C   UNL     1       0.058  11.829  21.411  0.00  0.00    +0.000 C 
ATOM     16  O   UNL     1       0.835  10.651  21.194  0.00  0.00    +0.000 OA
ENDBRANCH  13  16
ENDBRANCH   6  13
ENDBRANCH   1  11
BRANCH   3  17
ATOM     17  C   UNL     1       3.855   2.436  20.058  0.00  0.00    +0.000 C 
BRANCH  17  18
ATOM     18  O   UNL     1       5.098   2.958  19.606  0.00  0.00    +0.000 OA
BRANCH  18  19
ATOM     19  C   UNL     1       5.106   3.709  18.444  0.00  0.00    +0.000 A 
ATOM     20  C   UNL     1       4.244   3.493  17.355  0.00  0.00    +0.000 A 
ATOM     21  C   UNL     1       4.326   4.296  16.216  0.00  0.00    +0.000 A 
ATOM     22  C   UNL     1       5.272   5.314  16.153  0.00  0.00    +0.000 A 
ATOM     23  C   UNL     1       6.131   5.547  17.238  0.00  0.00    +0.000 A 
ATOM     24  C   UNL     1       7.079   6.578  17.188  0.00  0.00    +0.000 A 
ATOM     25  C   UNL     1       7.900   6.819  18.281  0.00  0.00    +0.000 A 
ATOM     26  C   UNL     1       7.748   6.010  19.388  0.00  0.00    +0.000 A 
ATOM     27  N   UNL     1       6.862   4.996  19.464  0.00  0.00    +0.000 NA
ATOM     28  C   UNL     1       6.052   4.751  18.407  0.00  0.00    +0.000 A 
ENDBRANCH  18  19
ENDBRANCH  17  18
ENDBRANCH   3  17
TORSDOF 6
ENDMDL
MODEL 3
REMARK VINA RESULT:      -7.9      6.167     10.313
REMARK  Name = 
REMARK  7 active torsions:
REMARK  status: ('A' for Active; 'I' for Inactive)
REMARK    1  A    between atoms: C_1  and  O_2
REMARK    2  A    between atoms: O_2  and  C_3
REMARK    3  A    between atoms: C_3  and  C_5
REMARK    4  A    between atoms: C_10  and  C_12
REMARK    5  A    between atoms: C_14  and  C_15
REMARK    6  A    between atoms: C_15  and  O_16
REMARK    7  A    between atoms: O_16  and  C_17
REMARK                            x       y       z     vdW  Elec       q    Type
REMARK                         _______ _______ _______ _____ _____    ______ ____
ROOT
ATOM      1  C   UNL     1       0.970  10.398  19.484  0.00  0.00    +0.000 A 
ATOM      2  C   UNL     1       1.292   9.013  19.342  0.00  0.00    +0.000 A 
ATOM      3  C   UNL     1       2.094   8.942  18.222  0.00  0.00    +0.000 A 
ATOM      4  O   UNL     1       2.174  10.183  17.672  0.00  0.00    +0.000 OA
ATOM      5  N   UNL     1       1.492  11.085  18.452  0.00  0.00    +0.000 NA
ENDROOT
BRANCH   1  11
ATOM      6  C   UNL     1      -1.527  12.572  21.414  0.00  0.00    +0.000 C 
ATOM      7  C   UNL     1      -3.016  12.576  21.029  0.00  0.00    +0.000 C 
ATOM      8  C   UNL     1      -3.026  12.334  19.533  0.00  0.00    +0.000 C 
ATOM      9  C   UNL     1      -1.763  11.529  19.266  0.00  0.00    +0.000 C 
ATOM     10  N   UNL     1      -0.986  11.559  20.499  0.00  0.00    +0.000 N 
ATOM     11  C   UNL     1       0.316  11.067  20.634  0.00  0.00    +0.000 C 
ATOM     12  O   UNL     1       0.925  11.190  21.698  0.00  0.00    +0.000 OA
BRANCH   6  13
ATOM     13  C   UNL     1      -1.512  12.464  22.948  0.00  0.00    +0.000 C 
ATOM     14  O   UNL     1      -2.001  11.505  23.543  0.00  0.00    +0.000 OA
BRANCH  13  16
ATOM     15  C   UNL     1      -1.477  14.553  23.984  0.00  0.00    +0.000 C 
ATOM     16  O   UNL     1      -0.739  13.421  23.525  0.00  0.00    +0.000 OA
ENDBRANCH  13  16
ENDBRANCH   6  13
ENDBRANCH   1  11
BRANCH   3  17
ATOM     17  C   UNL     1       2.940   7.899  17.581  0.00  0.00    +0.000 C 
BRANCH  17  18
ATOM     18  O   UNL     1       3.291   6.936  18.567  0.00  0.00    +0.000 OA
BRANCH  18  19
ATOM     19  C   UNL     1       3.402   5.613  18.175  0.00  0.00    +0.000 A 
ATOM     20  C   UNL     1       4.239   5.160  17.142  0.00  0.00    +0.000 A 
ATOM     21  C   UNL     1       4.282   3.805  16.807  0.00  0.00    +0.000 A 
ATOM     22  C   UNL     1       3.487   2.896  17.497  0.00  0.00    +0.000 A 
ATOM     23  C   UNL     1       2.655   3.334  18.538  0.00  0.00    +0.000 A 
ATOM     24  C   UNL     1       1.858   2.423  19.246  0.00  0.00    +0.000 A 
ATOM     25  C   UNL     1       1.065   2.865  20.295  0.00  0.00    +0.000 A 
ATOM     26  C   UNL     1       1.090   4.211  20.596  0.00  0.00    +0.000 A 
ATOM     27  N   UNL     1       1.826   5.119  19.923  0.00  0.00    +0.000 NA
ATOM     28  C   UNL     1       2.608   4.703  18.900  0.00  0.00    +0.000 A 
ENDBRANCH  18  19
ENDBRANCH  17  18
ENDBRANCH   3  17
TORSDOF 6
ENDMDL
MODEL 4
REMARK VINA RESULT:      -7.9      5.849      9.121
REMARK  Name = 
REMARK  7 active torsions:
REMARK  status: ('A' for Active; 'I' for Inactive)
REMARK    1  A    between atoms: C_1  and  O_2
REMARK    2  A    between atoms: O_2  and  C_3
REMARK    3  A    between atoms: C_3  and  C_5
REMARK    4  A    between atoms: C_10  and  C_12
REMARK    5  A    between atoms: C_14  and  C_15
REMARK    6  A    between atoms: C_15  and  O_16
REMARK    7  A    between atoms: O_16  and  C_17
REMARK                            x       y       z     vdW  Elec       q    Type
REMARK                         _______ _______ _______ _____ _____    ______ ____
ROOT
ATOM      1  C   UNL     1       2.219   7.730  18.939  0.00  0.00    +0.000 A 
ATOM      2  C   UNL     1       1.688   8.671  18.004  0.00  0.00    +0.000 A 
ATOM      3  C   UNL     1       0.999   9.589  18.769  0.00  0.00    +0.000 A 
ATOM      4  O   UNL     1       1.033   9.180  20.065  0.00  0.00    +0.000 OA
ATOM      5  N   UNL     1       1.793   8.040  20.176  0.00  0.00    +0.000 NA
ENDROOT
BRANCH   1  11
ATOM      6  C   UNL     1       4.191   4.482  19.445  0.00  0.00    +0.000 C 
ATOM      7  C   UNL     1       3.481   3.207  19.929  0.00  0.00    +0.000 C 
ATOM      8  C   UNL     1       2.357   3.707  20.815  0.00  0.00    +0.000 C 
ATOM      9  C   UNL     1       2.017   5.084  20.265  0.00  0.00    +0.000 C 
ATOM     10  N   UNL     1       3.066   5.416  19.308  0.00  0.00    +0.000 N 
ATOM     11  C   UNL     1       3.216   6.661  18.687  0.00  0.00    +0.000 C 
ATOM     12  O   UNL     1       4.170   6.877  17.938  0.00  0.00    +0.000 OA
BRANCH   6  13
ATOM     13  C   UNL     1       5.094   4.022  18.288  0.00  0.00    +0.000 C 
ATOM     14  O   UNL     1       4.637   3.640  17.212  0.00  0.00    +0.000 OA
BRANCH  13  16
ATOM     15  C   UNL     1       7.142   4.639  17.357  0.00  0.00    +0.000 C 
ATOM     16  O   UNL     1       6.408   4.277  18.526  0.00  0.00    +0.000 OA
ENDBRANCH  13  16
ENDBRANCH   6  13
ENDBRANCH   1  11
BRANCH   3  17
ATOM     17  C   UNL     1       0.363  10.913  18.529  0.00  0.00    +0.000 C 
BRANCH  17  18
ATOM     18  O   UNL     1      -0.974  10.865  19.013  0.00  0.00    +0.000 OA
BRANCH  18  19
ATOM     19  C   UNL     1      -2.001  10.804  18.087  0.00  0.00    +0.000 A 
ATOM     20  C   UNL     1      -1.924  10.117  16.864  0.00  0.00    +0.000 A 
ATOM     21  C   UNL     1      -3.008  10.114  15.983  0.00  0.00    +0.000 A 
ATOM     22  C   UNL     1      -4.171  10.801  16.315  0.00  0.00    +0.000 A 
ATOM     23  C   UNL     1      -4.263  11.481  17.539  0.00  0.00    +0.000 A 
ATOM     24  C   UNL     1      -5.436  12.166  17.887  0.00  0.00    +0.000 A 
ATOM     25  C   UNL     1      -5.526  12.807  19.114  0.00  0.00    +0.000 A 
ATOM     26  C   UNL     1      -4.432  12.747  19.952  0.00  0.00    +0.000 A 
ATOM     27  N   UNL     1      -3.281  12.116  19.642  0.00  0.00    +0.000 NA
ATOM     28  C   UNL     1      -3.179  11.483  18.450  0.00  0.00    +0.000 A 
ENDBRANCH  18  19
ENDBRANCH  17  18
ENDBRANCH   3  17
TORSDOF 6
ENDMDL
MODEL 5
REMARK VINA RESULT:      -7.8      5.944      8.906
REMARK  Name = 
REMARK  7 active torsions:
REMARK  status: ('A' for Active; 'I' for Inactive)
REMARK    1  A    between atoms: C_1  and  O_2
REMARK    2  A    between atoms: O_2  and  C_3
REMARK    3  A    between atoms: C_3  and  C_5
REMARK    4  A    between atoms: C_10  and  C_12
REMARK    5  A    between atoms: C_14  and  C_15
REMARK    6  A    between atoms: C_15  and  O_16
REMARK    7  A    between atoms: O_16  and  C_17
REMARK                            x       y       z     vdW  Elec       q    Type
REMARK                         _______ _______ _______ _____ _____    ______ ____
ROOT
ATOM      1  C   UNL     1       2.637   7.620  18.345  0.00  0.00    +0.000 A 
ATOM      2  C   UNL     1       2.087   8.757  17.677  0.00  0.00    +0.000 A 
ATOM      3  C   UNL     1       1.372   9.432  18.644  0.00  0.00    +0.000 A 
ATOM      4  O   UNL     1       1.410   8.706  19.792  0.00  0.00    +0.000 OA
ATOM      5  N   UNL     1       2.197   7.593  19.616  0.00  0.00    +0.000 NA
ENDROOT
BRANCH   1  11
ATOM      6  C   UNL     1       4.350   4.282  17.560  0.00  0.00    +0.000 C 
ATOM      7  C   UNL     1       3.522   3.073  17.094  0.00  0.00    +0.000 C 
ATOM      8  C   UNL     1       2.181   3.239  17.781  0.00  0.00    +0.000 C 
ATOM      9  C   UNL     1       2.030   4.740  17.972  0.00  0.00    +0.000 C 
ATOM     10  N   UNL     1       3.323   5.329  17.647  0.00  0.00    +0.000 N 
ATOM     11  C   UNL     1       3.660   6.674  17.839  0.00  0.00    +0.000 C 
ATOM     12  O   UNL     1       4.799   7.075  17.596  0.00  0.00    +0.000 OA
BRANCH   6  13
ATOM     13  C   UNL     1       5.564   4.322  16.617  0.00  0.00    +0.000 C 
ATOM     14  O   UNL     1       6.719   4.353  17.037  0.00  0.00    +0.000 OA
BRANCH  13  16
ATOM     15  C   UNL     1       6.234   4.484  14.389  0.00  0.00    +0.000 C 
ATOM     16  O   UNL     1       5.216   4.118  15.319  0.00  0.00    +0.000 OA
ENDBRANCH  13  16
ENDBRANCH   6  13
ENDBRANCH   1  11
BRANCH   3  17
ATOM     17  C   UNL     1       0.705  10.760  18.745  0.00  0.00    +0.000 C 
BRANCH  17  18
ATOM     18  O   UNL     1      -0.660  10.606  18.377  0.00  0.00    +0.000 OA
BRANCH  18  19
ATOM     19  C   UNL     1      -1.611  11.314  19.091  0.00  0.00    +0.000 A 
ATOM     20  C   UNL     1      -1.390  11.881  20.358  0.00  0.00    +0.000 A 
ATOM     21  C   UNL     1      -2.411  12.573  21.012  0.00  0.00    +0.000 A 
ATOM     22  C   UNL     1      -3.658  12.699  20.409  0.00  0.00    +0.000 A 
ATOM     23  C   UNL     1      -3.888  12.147  19.139  0.00  0.00    +0.000 A 
ATOM     24  C   UNL     1      -5.138  12.280  18.520  0.00  0.00    +0.000 A 
ATOM     25  C   UNL     1      -5.341  11.758  17.250  0.00  0.00    +0.000 A 
ATOM     26  C   UNL     1      -4.283  11.111  16.645  0.00  0.00    +0.000 A 
ATOM     27  N   UNL     1      -3.074  10.946  17.219  0.00  0.00    +0.000 NA
ATOM     28  C   UNL     1      -2.859  11.453  18.456  0.00  0.00    +0.000 A 
ENDBRANCH  18  19
ENDBRANCH  17  18
ENDBRANCH   3  17
TORSDOF 6
ENDMDL
MODEL 6
REMARK VINA RESULT:      -7.8      1.882      2.494
REMARK  Name = 
REMARK  7 active torsions:
REMARK  status: ('A' for Active; 'I' for Inactive)
REMARK    1  A    between atoms: C_1  and  O_2
REMARK    2  A    between atoms: O_2  and  C_3
REMARK    3  A    between atoms: C_3  and  C_5
REMARK    4  A    between atoms: C_10  and  C_12
REMARK    5  A    between atoms: C_14  and  C_15
REMARK    6  A    between atoms: C_15  and  O_16
REMARK    7  A    between atoms: O_16  and  C_17
REMARK                            x       y       z     vdW  Elec       q    Type
REMARK                         _______ _______ _______ _____ _____    ______ ____
ROOT
ATOM      1  C   UNL     1       6.728   6.387  18.044  0.00  0.00    +0.000 A 
ATOM      2  C   UNL     1       7.727   7.193  18.672  0.00  0.00    +0.000 A 
ATOM      3  C   UNL     1       7.836   8.315  17.877  0.00  0.00    +0.000 A 
ATOM      4  O   UNL     1       7.028   8.156  16.796  0.00  0.00    +0.000 OA
ATOM      5  N   UNL     1       6.336   6.973  16.899  0.00  0.00    +0.000 NA
ENDROOT
BRANCH   1  11
ATOM      6  C   UNL     1       4.142   4.246  19.893  0.00  0.00    +0.000 C 
ATOM      7  C   UNL     1       2.645   4.591  19.813  0.00  0.00    +0.000 C 
ATOM      8  C   UNL     1       2.606   6.100  19.672  0.00  0.00    +0.000 C 
ATOM      9  C   UNL     1       3.915   6.455  18.982  0.00  0.00    +0.000 C 
ATOM     10  N   UNL     1       4.725   5.243  18.986  0.00  0.00    +0.000 N 
ATOM     11  C   UNL     1       6.064   5.176  18.584  0.00  0.00    +0.000 C 
ATOM     12  O   UNL     1       6.695   4.123  18.680  0.00  0.00    +0.000 OA
BRANCH   6  13
ATOM     13  C   UNL     1       4.212   2.724  19.684  0.00  0.00    +0.000 C 
ATOM     14  O   UNL     1       5.000   2.013  20.305  0.00  0.00    +0.000 OA
BRANCH  13  16
ATOM     15  C   UNL     1       3.563   2.045  17.549  0.00  0.00    +0.000 C 
ATOM     16  O   UNL     1       3.195   2.262  18.911  0.00  0.00    +0.000 OA
ENDBRANCH  13  16
ENDBRANCH   6  13
ENDBRANCH   1  11
BRANCH   3  17
ATOM     17  C   UNL     1       8.509   9.639  17.988  0.00  0.00    +0.000 C 
BRANCH  17  18
ATOM     18  O   UNL     1       9.425   9.588  19.075  0.00  0.00    +0.000 OA
BRANCH  18  19
ATOM     19  C   UNL     1       9.576  10.723  19.853  0.00  0.00    +0.000 A 
ATOM     20  C   UNL     1       8.940  10.928  21.088  0.00  0.00    +0.000 A 
ATOM     21  C   UNL     1       9.144  12.109  21.804  0.00  0.00    +0.000 A 
ATOM     22  C   UNL     1       9.979  13.095  21.289  0.00  0.00    +0.000 A 
ATOM     23  C   UNL     1      10.629  12.897  20.061  0.00  0.00    +0.000 A 
ATOM     24  C   UNL     1      11.482  13.881  19.539  0.00  0.00    +0.000 A 
ATOM     25  C   UNL     1      12.144  13.659  18.341  0.00  0.00    +0.000 A 
ATOM     26  C   UNL     1      11.923  12.459  17.697  0.00  0.00    +0.000 A 
ATOM     27  N   UNL     1      11.095  11.500  18.158  0.00  0.00    +0.000 NA
ATOM     28  C   UNL     1      10.444  11.699  19.328  0.00  0.00    +0.000 A 
ENDBRANCH  18  19
ENDBRANCH  17  18
ENDBRANCH   3  17
TORSDOF 6
ENDMDL
MODEL 7
REMARK VINA RESULT:      -7.7      5.708      8.993
REMARK  Name = 
REMARK  7 active torsions:
REMARK  status: ('A' for Active; 'I' for Inactive)
REMARK    1  A    between atoms: C_1  and  O_2
REMARK    2  A    between atoms: O_2  and  C_3
REMARK    3  A    between atoms: C_3  and  C_5
REMARK    4  A    between atoms: C_10  and  C_12
REMARK    5  A    between atoms: C_14  and  C_15
REMARK    6  A    between atoms: C_15  and  O_16
REMARK    7  A    between atoms: O_16  and  C_17
REMARK                            x       y       z     vdW  Elec       q    Type
REMARK                         _______ _______ _______ _____ _____    ______ ____
ROOT
ATOM      1  C   UNL     1       2.304   7.965  18.490  0.00  0.00    +0.000 A 
ATOM      2  C   UNL     1       1.498   8.706  19.410  0.00  0.00    +0.000 A 
ATOM      3  C   UNL     1       1.115   9.838  18.722  0.00  0.00    +0.000 A 
ATOM      4  O   UNL     1       1.722   9.828  17.506  0.00  0.00    +0.000 OA
ATOM      5  N   UNL     1       2.447   8.670  17.355  0.00  0.00    +0.000 NA
ENDROOT
BRANCH   1  11
ATOM      6  C   UNL     1       4.122   4.707  17.612  0.00  0.00    +0.000 C 
ATOM      7  C   UNL     1       5.498   4.744  16.926  0.00  0.00    +0.000 C 
ATOM      8  C   UNL     1       5.468   5.998  16.074  0.00  0.00    +0.000 C 
ATOM      9  C   UNL     1       4.510   6.931  16.798  0.00  0.00    +0.000 C 
ATOM     10  N   UNL     1       3.862   6.136  17.834  0.00  0.00    +0.000 N 
ATOM     11  C   UNL     1       2.798   6.574  18.629  0.00  0.00    +0.000 C 
ATOM     12  O   UNL     1       2.266   5.813  19.439  0.00  0.00    +0.000 OA
BRANCH   6  13
ATOM     13  C   UNL     1       4.260   3.659  18.728  0.00  0.00    +0.000 C 
ATOM     14  O   UNL     1       5.173   3.695  19.552  0.00  0.00    +0.000 OA
BRANCH  13  16
ATOM     15  C   UNL     1       2.793   2.530  20.147  0.00  0.00    +0.000 C 
ATOM     16  O   UNL     1       3.175   2.844  18.809  0.00  0.00    +0.000 OA
ENDBRANCH  13  16
ENDBRANCH   6  13
ENDBRANCH   1  11
BRANCH   3  17
ATOM     17  C   UNL     1       0.148  10.947  18.949  0.00  0.00    +0.000 C 
BRANCH  17  18
ATOM     18  O   UNL     1      -1.151  10.388  19.098  0.00  0.00    +0.000 OA
BRANCH  18  19
ATOM     19  C   UNL     1      -2.017  10.455  18.020  0.00  0.00    +0.000 A 
ATOM     20  C   UNL     1      -1.791   9.831  16.782  0.00  0.00    +0.000 A 
ATOM     21  C   UNL     1      -2.716   9.959  15.744  0.00  0.00    +0.000 A 
ATOM     22  C   UNL     1      -3.869  10.714  15.933  0.00  0.00    +0.000 A 
ATOM     23  C   UNL     1      -4.111  11.333  17.169  0.00  0.00    +0.000 A 
ATOM     24  C   UNL     1      -5.276  12.086  17.372  0.00  0.00    +0.000 A 
ATOM     25  C   UNL     1      -5.520  12.665  18.609  0.00  0.00    +0.000 A 
ATOM     26  C   UNL     1      -4.581  12.477  19.603  0.00  0.00    +0.000 A 
ATOM     27  N   UNL     1      -3.440  11.777  19.437  0.00  0.00    +0.000 NA
ATOM     28  C   UNL     1      -3.190  11.203  18.237  0.00  0.00    +0.000 A 
ENDBRANCH  18  19
ENDBRANCH  17  18
ENDBRANCH   3  17
TORSDOF 6
ENDMDL
MODEL 8
REMARK VINA RESULT:      -7.6      6.061      8.911
REMARK  Name = 
REMARK  7 active torsions:
REMARK  status: ('A' for Active; 'I' for Inactive)
REMARK    1  A    between atoms: C_1  and  O_2
REMARK    2  A    between atoms: O_2  and  C_3
REMARK    3  A    between atoms: C_3  and  C_5
REMARK    4  A    between atoms: C_10  and  C_12
REMARK    5  A    between atoms: C_14  and  C_15
REMARK    6  A    between atoms: C_15  and  O_16
REMARK    7  A    between atoms: O_16  and  C_17
REMARK                            x       y       z     vdW  Elec       q    Type
REMARK                         _______ _______ _______ _____ _____    ______ ____
ROOT
ATOM      1  C   UNL     1       1.927   7.502  19.844  0.00  0.00    +0.000 A 
ATOM      2  C   UNL     1       1.611   8.671  19.085  0.00  0.00    +0.000 A 
ATOM      3  C   UNL     1       0.978   9.517  19.972  0.00  0.00    +0.000 A 
ATOM      4  O   UNL     1       0.839   8.869  21.158  0.00  0.00    +0.000 OA
ATOM      5  N   UNL     1       1.431   7.630  21.088  0.00  0.00    +0.000 NA
ENDROOT
BRANCH   1  11
ATOM      6  C   UNL     1       3.358   3.947  19.765  0.00  0.00    +0.000 C 
ATOM      7  C   UNL     1       2.423   2.729  19.858  0.00  0.00    +0.000 C 
ATOM      8  C   UNL     1       1.267   3.199  20.719  0.00  0.00    +0.000 C 
ATOM      9  C   UNL     1       1.193   4.699  20.479  0.00  0.00    +0.000 C 
ATOM     10  N   UNL     1       2.397   5.058  19.739  0.00  0.00    +0.000 N 
ATOM     11  C   UNL     1       2.795   6.367  19.449  0.00  0.00    +0.000 C 
ATOM     12  O   UNL     1       3.862   6.584  18.873  0.00  0.00    +0.000 OA
BRANCH   6  13
ATOM     13  C   UNL     1       4.339   3.611  18.629  0.00  0.00    +0.000 C 
ATOM     14  O   UNL     1       3.957   3.336  17.493  0.00  0.00    +0.000 OA
BRANCH  13  16
ATOM     15  C   UNL     1       6.385   4.509  17.959  0.00  0.00    +0.000 C 
ATOM     16  O   UNL     1       5.631   3.850  18.976  0.00  0.00    +0.000 OA
ENDBRANCH  13  16
ENDBRANCH   6  13
ENDBRANCH   1  11
BRANCH   3  17
ATOM     17  C   UNL     1       0.544  10.941  19.961  0.00  0.00    +0.000 C 
BRANCH  17  18
ATOM     18  O   UNL     1      -0.219  11.170  18.783  0.00  0.00    +0.000 OA
BRANCH  18  19
ATOM     19  C   UNL     1      -1.545  11.540  18.928  0.00  0.00    +0.000 A 
ATOM     20  C   UNL     1      -2.068  12.189  20.059  0.00  0.00    +0.000 A 
ATOM     21  C   UNL     1      -3.423  12.519  20.123  0.00  0.00    +0.000 A 
ATOM     22  C   UNL     1      -4.265  12.199  19.063  0.00  0.00    +0.000 A 
ATOM     23  C   UNL     1      -3.752  11.561  17.924  0.00  0.00    +0.000 A 
ATOM     24  C   UNL     1      -4.591  11.245  16.845  0.00  0.00    +0.000 A 
ATOM     25  C   UNL     1      -4.065  10.644  15.711  0.00  0.00    +0.000 A 
ATOM     26  C   UNL     1      -2.713  10.371  15.697  0.00  0.00    +0.000 A 
ATOM     27  N   UNL     1      -1.880  10.641  16.723  0.00  0.00    +0.000 NA
ATOM     28  C   UNL     1      -2.377  11.231  17.835  0.00  0.00    +0.000 A 
ENDBRANCH  18  19
ENDBRANCH  17  18
ENDBRANCH   3  17
TORSDOF 6
ENDMDL
MODEL 9
REMARK VINA RESULT:      -7.6      5.610      8.678
REMARK  Name = 
REMARK  7 active torsions:
REMARK  status: ('A' for Active; 'I' for Inactive)
REMARK    1  A    between atoms: C_1  and  O_2
REMARK    2  A    between atoms: O_2  and  C_3
REMARK    3  A    between atoms: C_3  and  C_5
REMARK    4  A    between atoms: C_10  and  C_12
REMARK    5  A    between atoms: C_14  and  C_15
REMARK    6  A    between atoms: C_15  and  O_16
REMARK    7  A    between atoms: O_16  and  C_17
REMARK                            x       y       z     vdW  Elec       q    Type
REMARK                         _______ _______ _______ _____ _____    ______ ____
ROOT
ATOM      1  C   UNL     1       2.201   7.671  18.523  0.00  0.00    +0.000 A 
ATOM      2  C   UNL     1       1.783   8.347  19.710  0.00  0.00    +0.000 A 
ATOM      3  C   UNL     1       1.293   9.562  19.279  0.00  0.00    +0.000 A 
ATOM      4  O   UNL     1       1.487   9.651  17.937  0.00  0.00    +0.000 OA
ATOM      5  N   UNL     1       2.037   8.483  17.465  0.00  0.00    +0.000 NA
ENDROOT
BRANCH   1  11
ATOM      6  C   UNL     1       4.081   4.598  17.213  0.00  0.00    +0.000 C 
ATOM      7  C   UNL     1       5.584   4.680  16.898  0.00  0.00    +0.000 C 
ATOM      8  C   UNL     1       5.802   6.111  16.445  0.00  0.00    +0.000 C 
ATOM      9  C   UNL     1       4.724   6.909  17.161  0.00  0.00    +0.000 C 
ATOM     10  N   UNL     1       3.817   5.936  17.758  0.00  0.00    +0.000 N 
ATOM     11  C   UNL     1       2.604   6.251  18.379  0.00  0.00    +0.000 C 
ATOM     12  O   UNL     1       1.866   5.359  18.801  0.00  0.00    +0.000 OA
BRANCH   6  13
ATOM     13  C   UNL     1       3.909   3.284  17.995  0.00  0.00    +0.000 C 
ATOM     14  O   UNL     1       3.209   2.362  17.581  0.00  0.00    +0.000 OA
BRANCH  13  16
ATOM     15  C   UNL     1       4.288   2.346  20.097  0.00  0.00    +0.000 C 
ATOM     16  O   UNL     1       4.757   3.199  19.054  0.00  0.00    +0.000 OA
ENDBRANCH  13  16
ENDBRANCH   6  13
ENDBRANCH   1  11
BRANCH   3  17
ATOM     17  C   UNL     1       0.535  10.686  19.895  0.00  0.00    +0.000 C 
BRANCH  17  18
ATOM     18  O   UNL     1      -0.135  11.396  18.862  0.00  0.00    +0.000 OA
BRANCH  18  19
ATOM     19  C   UNL     1      -1.472  11.704  19.044  0.00  0.00    +0.000 A 
ATOM     20  C   UNL     1      -1.993  12.326  20.191  0.00  0.00    +0.000 A 
ATOM     21  C   UNL     1      -3.360  12.593  20.295  0.00  0.00    +0.000 A 
ATOM     22  C   UNL     1      -4.215  12.235  19.258  0.00  0.00    +0.000 A 
ATOM     23  C   UNL     1      -3.705  11.623  18.102  0.00  0.00    +0.000 A 
ATOM     24  C   UNL     1      -4.559  11.269  17.048  0.00  0.00    +0.000 A 
ATOM     25  C   UNL     1      -4.037  10.695  15.897  0.00  0.00    +0.000 A 
ATOM     26  C   UNL     1      -2.675  10.485  15.845  0.00  0.00    +0.000 A 
ATOM     27  N   UNL     1      -1.827  10.793  16.848  0.00  0.00    +0.000 NA
ATOM     28  C   UNL     1      -2.320  11.357  17.975  0.00  0.00    +0.000 A 
ENDBRANCH  18  19
ENDBRANCH  17  18
ENDBRANCH   3  17
TORSDOF 6
ENDMDL
