MODEL 1
REMARK VINA RESULT:      -8.5      0.000      0.000
REMARK  Name = 
REMARK  9 active torsions:
REMARK  status: ('A' for Active; 'I' for Inactive)
REMARK    1  A    between atoms: C_1  and  C_2
REMARK    2  A    between atoms: C_4  and  N_5
REMARK    3  A    between atoms: N_5  and  C_6
REMARK    4  A    between atoms: N_5  and  C_21
REMARK    5  A    between atoms: C_6  and  C_7
REMARK    6  A    between atoms: C_7  and  C_8
REMARK    7  A    between atoms: C_8  and  N_9
REMARK    8  A    between atoms: N_9  and  C_10
REMARK    9  A    between atoms: C_21  and  C_22
REMARK                            x       y       z     vdW  Elec       q    Type
REMARK                         _______ _______ _______ _____ _____    ______ ____
ROOT
ATOM      1  C   UNL     1       2.848   7.218  18.721  0.00  0.00    +0.000 C 
ENDROOT
BRANCH   1   2
ATOM      2  N   UNL     1       3.351   6.015  18.062  0.00  0.00    +0.000 N 
BRANCH   2   6
ATOM      3  C   UNL     1       6.367   4.093  14.680  0.00  0.00    +0.000 C 
ATOM      4  C   UNL     1       6.060   5.062  15.785  0.00  0.00    +0.000 A 
ATOM      5  C   UNL     1       4.847   5.013  16.447  0.00  0.00    +0.000 A 
ATOM      6  C   UNL     1       4.569   5.979  17.407  0.00  0.00    +0.000 A 
ATOM      7  N   UNL     1       5.496   6.922  17.699  0.00  0.00    +0.000 NA
ATOM      8  C   UNL     1       6.656   6.839  17.046  0.00  0.00    +0.000 A 
ATOM      9 CL   UNL     1       7.861   7.962  17.505  0.00  0.00    +0.000 Cl
ATOM     10  N   UNL     1       7.002   5.966  16.092  0.00  0.00    +0.000 NA
ENDBRANCH   2   6
BRANCH   2  11
ATOM     11  C   UNL     1       2.490   4.822  18.022  0.00  0.00    +0.000 C 
BRANCH  11  12
ATOM     12  C   UNL     1       2.234   4.064  19.304  0.00  0.00    +0.000 A 
ATOM     13  C   UNL     1       2.840   4.177  20.541  0.00  0.00    +0.000 A 
ATOM     14  C   UNL     1       2.239   3.335  21.525  0.00  0.00    +0.000 A 
ATOM     15  C   UNL     1       1.195   2.600  21.011  0.00  0.00    +0.000 A 
ATOM     16  S   UNL     1       0.947   2.921  19.352  0.00  0.00    +0.000 S 
ENDBRANCH  11  12
ENDBRANCH   2  11
ENDBRANCH   1   2
BRANCH   1  17
ATOM     17  C   UNL     1       1.913   8.029  17.813  0.00  0.00    +0.000 C 
BRANCH  17  18
ATOM     18  C   UNL     1       1.747   9.460  18.335  0.00  0.00    +0.000 C 
BRANCH  18  19
ATOM     19  N   UNL     1       0.424   9.619  18.968  0.00  0.00    +0.000 N 
ATOM     20  H   UNL     1      -0.142   8.788  18.793  0.00  0.00    +0.000 HD
BRANCH  19  21
ATOM     21  C   UNL     1       0.460   9.866  20.370  0.00  0.00    +0.000 A 
ATOM     22  C   UNL     1       1.193   9.057  21.234  0.00  0.00    +0.000 A 
ATOM     23  C   UNL     1       1.027   9.217  22.599  0.00  0.00    +0.000 A 
ATOM     24  N   UNL     1       0.130  10.055  23.145  0.00  0.00    +0.000 NA
ATOM     25  C   UNL     1      -0.537  10.869  22.320  0.00  0.00    +0.000 A 
ATOM     26  C   UNL     1      -1.609  11.588  22.813  0.00  0.00    +0.000 A 
ATOM     27  C   UNL     1      -2.347  12.413  21.970  0.00  0.00    +0.000 A 
ATOM     28 CL   UNL     1      -3.993  12.756  22.346  0.00  0.00    +0.000 Cl
ATOM     29  C   UNL     1      -1.860  12.767  20.723  0.00  0.00    +0.000 A 
ATOM     30  C   UNL     1      -0.836  11.998  20.186  0.00  0.00    +0.000 A 
ATOM     31  C   UNL     1      -0.280  10.936  20.933  0.00  0.00    +0.000 A 
ENDBRANCH  19  21
ENDBRANCH  18  19
ENDBRANCH  17  18
ENDBRANCH   1  17
TORSDOF 8
ENDMDL
MODEL 2
REMARK VINA RESULT:      -8.4      2.176      2.864
REMARK  Name = 
REMARK  9 active torsions:
REMARK  status: ('A' for Active; 'I' for Inactive)
REMARK    1  A    between atoms: C_1  and  C_2
REMARK    2  A    between atoms: C_4  and  N_5
REMARK    3  A    between atoms: N_5  and  C_6
REMARK    4  A    between atoms: N_5  and  C_21
REMARK    5  A    between atoms: C_6  and  C_7
REMARK    6  A    between atoms: C_7  and  C_8
REMARK    7  A    between atoms: C_8  and  N_9
REMARK    8  A    between atoms: N_9  and  C_10
REMARK    9  A    between atoms: C_21  and  C_22
REMARK                            x       y       z     vdW  Elec       q    Type
REMARK                         _______ _______ _______ _____ _____    ______ ____
ROOT
ATOM      1  C   UNL     1       2.686   7.158  18.570  0.00  0.00    +0.000 C 
ENDROOT
BRANCH   1   2
ATOM      2  N   UNL     1       3.326   5.987  17.976  0.00  0.00    +0.000 N 
BRANCH   2   6
ATOM      3  C   UNL     1       7.830   7.933  17.586  0.00  0.00    +0.000 C 
ATOM      4  C   UNL     1       6.759   6.974  17.156  0.00  0.00    +0.000 A 
ATOM      5  C   UNL     1       5.510   7.002  17.748  0.00  0.00    +0.000 A 
ATOM      6  C   UNL     1       4.573   6.043  17.379  0.00  0.00    +0.000 A 
ATOM      7  N   UNL     1       4.886   5.128  16.432  0.00  0.00    +0.000 NA
ATOM      8  C   UNL     1       6.096   5.231  15.881  0.00  0.00    +0.000 A 
ATOM      9 CL   UNL     1       6.438   4.144  14.605  0.00  0.00    +0.000 Cl
ATOM     10  N   UNL     1       7.068   6.098  16.189  0.00  0.00    +0.000 NA
ENDBRANCH   2   6
BRANCH   2  11
ATOM     11  C   UNL     1       2.578   4.720  17.935  0.00  0.00    +0.000 C 
BRANCH  11  12
ATOM     12  C   UNL     1       2.275   4.012  19.235  0.00  0.00    +0.000 A 
ATOM     13  C   UNL     1       1.097   3.934  19.954  0.00  0.00    +0.000 A 
ATOM     14  C   UNL     1       1.205   3.079  21.093  0.00  0.00    +0.000 A 
ATOM     15  C   UNL     1       2.462   2.533  21.215  0.00  0.00    +0.000 A 
ATOM     16  S   UNL     1       3.505   3.051  19.966  0.00  0.00    +0.000 S 
ENDBRANCH  11  12
ENDBRANCH   2  11
ENDBRANCH   1   2
BRANCH   1  17
ATOM     17  C   UNL     1       2.173   8.141  17.508  0.00  0.00    +0.000 C 
BRANCH  17  18
ATOM     18  C   UNL     1       1.961   9.535  18.107  0.00  0.00    +0.000 C 
BRANCH  18  19
ATOM     19  N   UNL     1       0.883   9.496  19.113  0.00  0.00    +0.000 N 
ATOM     20  H   UNL     1       1.262   9.193  20.011  0.00  0.00    +0.000 HD
BRANCH  19  21
ATOM     21  C   UNL     1       0.193  10.729  19.296  0.00  0.00    +0.000 A 
ATOM     22  C   UNL     1       0.684  11.720  20.142  0.00  0.00    +0.000 A 
ATOM     23  C   UNL     1      -0.125  12.803  20.440  0.00  0.00    +0.000 A 
ATOM     24  N   UNL     1      -1.398  12.914  20.027  0.00  0.00    +0.000 NA
ATOM     25  C   UNL     1      -1.854  11.991  19.173  0.00  0.00    +0.000 A 
ATOM     26  C   UNL     1      -3.206  11.950  18.893  0.00  0.00    +0.000 A 
ATOM     27  C   UNL     1      -3.717  10.976  18.039  0.00  0.00    +0.000 A 
ATOM     28 CL   UNL     1      -5.358  10.482  18.201  0.00  0.00    +0.000 Cl
ATOM     29  C   UNL     1      -2.873  10.235  17.228  0.00  0.00    +0.000 A 
ATOM     30  C   UNL     1      -1.524  10.207  17.552  0.00  0.00    +0.000 A 
ATOM     31  C   UNL     1      -1.038  10.970  18.637  0.00  0.00    +0.000 A 
ENDBRANCH  19  21
ENDBRANCH  18  19
ENDBRANCH  17  18
ENDBRANCH   1  17
TORSDOF 8
ENDMDL
MODEL 3
REMARK VINA RESULT:      -8.2      1.366      1.683
REMARK  Name = 
REMARK  9 active torsions:
REMARK  status: ('A' for Active; 'I' for Inactive)
REMARK    1  A    between atoms: C_1  and  C_2
REMARK    2  A    between atoms: C_4  and  N_5
REMARK    3  A    between atoms: N_5  and  C_6
REMARK    4  A    between atoms: N_5  and  C_21
REMARK    5  A    between atoms: C_6  and  C_7
REMARK    6  A    between atoms: C_7  and  C_8
REMARK    7  A    between atoms: C_8  and  N_9
REMARK    8  A    between atoms: N_9  and  C_10
REMARK    9  A    between atoms: C_21  and  C_22
REMARK                            x       y       z     vdW  Elec       q    Type
REMARK                         _______ _______ _______ _____ _____    ______ ____
ROOT
ATOM      1  C   UNL     1       3.224   7.718  17.720  0.00  0.00    +0.000 C 
ENDROOT
BRANCH   1   2
ATOM      2  N   UNL     1       3.552   6.294  17.737  0.00  0.00    +0.000 N 
BRANCH   2   6
ATOM      3  C   UNL     1       8.187   5.416  19.140  0.00  0.00    +0.000 C 
ATOM      4  C   UNL     1       7.084   5.393  18.123  0.00  0.00    +0.000 A 
ATOM      5  C   UNL     1       5.845   5.935  18.416  0.00  0.00    +0.000 A 
ATOM      6  C   UNL     1       4.826   5.820  17.478  0.00  0.00    +0.000 A 
ATOM      7  N   UNL     1       5.069   5.216  16.292  0.00  0.00    +0.000 NA
ATOM      8  C   UNL     1       6.315   4.785  16.088  0.00  0.00    +0.000 A 
ATOM      9 CL   UNL     1       6.641   4.128  14.543  0.00  0.00    +0.000 Cl
ATOM     10  N   UNL     1       7.349   4.827  16.936  0.00  0.00    +0.000 NA
ENDBRANCH   2   6
BRANCH   2  11
ATOM     11  C   UNL     1       2.466   5.324  17.953  0.00  0.00    +0.000 C 
BRANCH  11  12
ATOM     12  C   UNL     1       2.432   4.546  19.248  0.00  0.00    +0.000 A 
ATOM     13  C   UNL     1       2.037   4.939  20.513  0.00  0.00    +0.000 A 
ATOM     14  C   UNL     1       2.067   3.866  21.455  0.00  0.00    +0.000 A 
ATOM     15  C   UNL     1       2.489   2.687  20.885  0.00  0.00    +0.000 A 
ATOM     16  S   UNL     1       2.850   2.875  19.226  0.00  0.00    +0.000 S 
ENDBRANCH  11  12
ENDBRANCH   2  11
ENDBRANCH   1   2
BRANCH   1  17
ATOM     17  C   UNL     1       1.809   7.994  18.248  0.00  0.00    +0.000 C 
BRANCH  17  18
ATOM     18  C   UNL     1       1.622   9.481  18.564  0.00  0.00    +0.000 C 
BRANCH  18  19
ATOM     19  N   UNL     1       0.295   9.708  19.170  0.00  0.00    +0.000 N 
ATOM     20  H   UNL     1      -0.313   8.914  18.969  0.00  0.00    +0.000 HD
BRANCH  19  21
ATOM     21  C   UNL     1       0.313   9.933  20.576  0.00  0.00    +0.000 A 
ATOM     22  C   UNL     1       1.039   9.113  21.436  0.00  0.00    +0.000 A 
ATOM     23  C   UNL     1       0.855   9.250  22.801  0.00  0.00    +0.000 A 
ATOM     24  N   UNL     1      -0.053  10.076  23.349  0.00  0.00    +0.000 NA
ATOM     25  C   UNL     1      -0.713  10.901  22.528  0.00  0.00    +0.000 A 
ATOM     26  C   UNL     1      -1.794  11.607  23.019  0.00  0.00    +0.000 A 
ATOM     27  C   UNL     1      -2.525  12.444  22.180  0.00  0.00    +0.000 A 
ATOM     28 CL   UNL     1      -4.176  12.773  22.540  0.00  0.00    +0.000 Cl
ATOM     29  C   UNL     1      -2.022  12.819  20.945  0.00  0.00    +0.000 A 
ATOM     30  C   UNL     1      -0.990  12.063  20.409  0.00  0.00    +0.000 A 
ATOM     31  C   UNL     1      -0.439  10.991  21.146  0.00  0.00    +0.000 A 
ENDBRANCH  19  21
ENDBRANCH  18  19
ENDBRANCH  17  18
ENDBRANCH   1  17
TORSDOF 8
ENDMDL
MODEL 4
REMARK VINA RESULT:      -8.1      1.242      1.974
REMARK  Name = 
REMARK  9 active torsions:
REMARK  status: ('A' for Active; 'I' for Inactive)
REMARK    1  A    between atoms: C_1  and  C_2
REMARK    2  A    between atoms: C_4  and  N_5
REMARK    3  A    between atoms: N_5  and  C_6
REMARK    4  A    between atoms: N_5  and  C_21
REMARK    5  A    between atoms: C_6  and  C_7
REMARK    6  A    between atoms: C_7  and  C_8
REMARK    7  A    between atoms: C_8  and  N_9
REMARK    8  A    between atoms: N_9  and  C_10
REMARK    9  A    between atoms: C_21  and  C_22
REMARK                            x       y       z     vdW  Elec       q    Type
REMARK                         _______ _______ _______ _____ _____    ______ ____
ROOT
ATOM      1  C   UNL     1       3.267   6.720  18.960  0.00  0.00    +0.000 C 
ENDROOT
BRANCH   1   2
ATOM      2  N   UNL     1       3.854   5.638  18.172  0.00  0.00    +0.000 N 
BRANCH   2   6
ATOM      3  C   UNL     1       6.739   4.456  14.364  0.00  0.00    +0.000 C 
ATOM      4  C   UNL     1       6.444   5.240  15.609  0.00  0.00    +0.000 A 
ATOM      5  C   UNL     1       5.294   4.996  16.338  0.00  0.00    +0.000 A 
ATOM      6  C   UNL     1       5.016   5.799  17.438  0.00  0.00    +0.000 A 
ATOM      7  N   UNL     1       5.884   6.775  17.794  0.00  0.00    +0.000 NA
ATOM      8  C   UNL     1       6.992   6.883  17.059  0.00  0.00    +0.000 A 
ATOM      9 CL   UNL     1       8.135   8.040  17.586  0.00  0.00    +0.000 Cl
ATOM     10  N   UNL     1       7.331   6.177  15.974  0.00  0.00    +0.000 NA
ENDBRANCH   2   6
BRANCH   2  11
ATOM     11  C   UNL     1       3.135   4.357  18.090  0.00  0.00    +0.000 C 
BRANCH  11  12
ATOM     12  C   UNL     1       2.700   3.682  19.370  0.00  0.00    +0.000 A 
ATOM     13  C   UNL     1       3.447   3.021  20.326  0.00  0.00    +0.000 A 
ATOM     14  C   UNL     1       2.661   2.603  21.444  0.00  0.00    +0.000 A 
ATOM     15  C   UNL     1       1.337   2.953  21.306  0.00  0.00    +0.000 A 
ATOM     16  S   UNL     1       1.045   3.774  19.838  0.00  0.00    +0.000 S 
ENDBRANCH  11  12
ENDBRANCH   2  11
ENDBRANCH   1   2
BRANCH   1  17
ATOM     17  C   UNL     1       1.994   7.283  18.314  0.00  0.00    +0.000 C 
BRANCH  17  18
ATOM     18  C   UNL     1       1.983   8.815  18.366  0.00  0.00    +0.000 C 
BRANCH  18  19
ATOM     19  N   UNL     1       1.311   9.276  19.596  0.00  0.00    +0.000 N 
ATOM     20  H   UNL     1       1.949   9.859  20.138  0.00  0.00    +0.000 HD
BRANCH  19  21
ATOM     21  C   UNL     1       0.100   9.994  19.380  0.00  0.00    +0.000 A 
ATOM     22  C   UNL     1      -0.413  10.190  18.099  0.00  0.00    +0.000 A 
ATOM     23  C   UNL     1      -1.472  11.065  17.932  0.00  0.00    +0.000 A 
ATOM     24  N   UNL     1      -1.985  11.808  18.927  0.00  0.00    +0.000 NA
ATOM     25  C   UNL     1      -1.530  11.584  20.164  0.00  0.00    +0.000 A 
ATOM     26  C   UNL     1      -1.874  12.463  21.172  0.00  0.00    +0.000 A 
ATOM     27  C   UNL     1      -1.385  12.279  22.462  0.00  0.00    +0.000 A 
ATOM     28 CL   UNL     1      -1.224  13.635  23.510  0.00  0.00    +0.000 Cl
ATOM     29  C   UNL     1      -0.808  11.076  22.833  0.00  0.00    +0.000 A 
ATOM     30  C   UNL     1      -0.385  10.222  21.823  0.00  0.00    +0.000 A 
ATOM     31  C   UNL     1      -0.608  10.559  20.470  0.00  0.00    +0.000 A 
ENDBRANCH  19  21
ENDBRANCH  18  19
ENDBRANCH  17  18
ENDBRANCH   1  17
TORSDOF 8
ENDMDL
MODEL 5
REMARK VINA RESULT:      -8.1      2.330      2.914
REMARK  Name = 
REMARK  9 active torsions:
REMARK  status: ('A' for Active; 'I' for Inactive)
REMARK    1  A    between atoms: C_1  and  C_2
REMARK    2  A    between atoms: C_4  and  N_5
REMARK    3  A    between atoms: N_5  and  C_6
REMARK    4  A    between atoms: N_5  and  C_21
REMARK    5  A    between atoms: C_6  and  C_7
REMARK    6  A    between atoms: C_7  and  C_8
REMARK    7  A    between atoms: C_8  and  N_9
REMARK    8  A    between atoms: N_9  and  C_10
REMARK    9  A    between atoms: C_21  and  C_22
REMARK                            x       y       z     vdW  Elec       q    Type
REMARK                         _______ _______ _______ _____ _____    ______ ____
ROOT
ATOM      1  C   UNL     1       2.599   7.334  18.151  0.00  0.00    +0.000 C 
ENDROOT
BRANCH   1   2
ATOM      2  N   UNL     1       3.184   6.054  17.757  0.00  0.00    +0.000 N 
BRANCH   2   6
ATOM      3  C   UNL     1       6.438   3.949  14.722  0.00  0.00    +0.000 C 
ATOM      4  C   UNL     1       6.067   4.941  15.785  0.00  0.00    +0.000 A 
ATOM      5  C   UNL     1       4.789   4.961  16.313  0.00  0.00    +0.000 A 
ATOM      6  C   UNL     1       4.462   5.948  17.236  0.00  0.00    +0.000 A 
ATOM      7  N   UNL     1       5.401   6.842  17.624  0.00  0.00    +0.000 NA
ATOM      8  C   UNL     1       6.618   6.693  17.099  0.00  0.00    +0.000 A 
ATOM      9 CL   UNL     1       7.826   7.755  17.683  0.00  0.00    +0.000 Cl
ATOM     10  N   UNL     1       7.017   5.796  16.190  0.00  0.00    +0.000 NA
ENDBRANCH   2   6
BRANCH   2  11
ATOM     11  C   UNL     1       2.351   4.844  17.838  0.00  0.00    +0.000 C 
BRANCH  11  12
ATOM     12  C   UNL     1       2.233   4.128  19.163  0.00  0.00    +0.000 A 
ATOM     13  C   UNL     1       1.138   3.954  19.987  0.00  0.00    +0.000 A 
ATOM     14  C   UNL     1       1.426   3.127  21.116  0.00  0.00    +0.000 A 
ATOM     15  C   UNL     1       2.734   2.698  21.125  0.00  0.00    +0.000 A 
ATOM     16  S   UNL     1       3.607   3.293  19.783  0.00  0.00    +0.000 S 
ENDBRANCH  11  12
ENDBRANCH   2  11
ENDBRANCH   1   2
BRANCH   1  17
ATOM     17  C   UNL     1       2.274   7.385  19.650  0.00  0.00    +0.000 C 
BRANCH  17  18
ATOM     18  C   UNL     1       1.397   8.598  19.980  0.00  0.00    +0.000 C 
BRANCH  18  19
ATOM     19  N   UNL     1       1.552   9.633  18.940  0.00  0.00    +0.000 N 
ATOM     20  H   UNL     1       1.777   9.192  18.048  0.00  0.00    +0.000 HD
BRANCH  19  21
ATOM     21  C   UNL     1       0.418  10.477  18.766  0.00  0.00    +0.000 A 
ATOM     22  C   UNL     1      -0.754  10.010  18.177  0.00  0.00    +0.000 A 
ATOM     23  C   UNL     1      -1.743  10.920  17.846  0.00  0.00    +0.000 A 
ATOM     24  N   UNL     1      -1.603  12.250  17.982  0.00  0.00    +0.000 NA
ATOM     25  C   UNL     1      -0.501  12.697  18.594  0.00  0.00    +0.000 A 
ATOM     26  C   UNL     1      -0.222  14.049  18.565  0.00  0.00    +0.000 A 
ATOM     27  C   UNL     1       0.937  14.540  19.159  0.00  0.00    +0.000 A 
ATOM     28 CL   UNL     1       1.631  16.006  18.582  0.00  0.00    +0.000 Cl
ATOM     29  C   UNL     1       1.667  13.755  20.036  0.00  0.00    +0.000 A 
ATOM     30  C   UNL     1       1.449  12.385  20.013  0.00  0.00    +0.000 A 
ATOM     31  C   UNL     1       0.463  11.836  19.164  0.00  0.00    +0.000 A 
ENDBRANCH  19  21
ENDBRANCH  18  19
ENDBRANCH  17  18
ENDBRANCH   1  17
TORSDOF 8
ENDMDL
MODEL 6
REMARK VINA RESULT:      -8.1      2.012      2.493
REMARK  Name = 
REMARK  9 active torsions:
REMARK  status: ('A' for Active; 'I' for Inactive)
REMARK    1  A    between atoms: C_1  and  C_2
REMARK    2  A    between atoms: C_4  and  N_5
REMARK    3  A    between atoms: N_5  and  C_6
REMARK    4  A    between atoms: N_5  and  C_21
REMARK    5  A    between atoms: C_6  and  C_7
REMARK    6  A    between atoms: C_7  and  C_8
REMARK    7  A    between atoms: C_8  and  N_9
REMARK    8  A    between atoms: N_9  and  C_10
REMARK    9  A    between atoms: C_21  and  C_22
REMARK                            x       y       z     vdW  Elec       q    Type
REMARK                         _______ _______ _______ _____ _____    ______ ____
ROOT
ATOM      1  C   UNL     1       3.040   7.337  18.556  0.00  0.00    +0.000 C 
ENDROOT
BRANCH   1   2
ATOM      2  N   UNL     1       3.402   5.994  18.107  0.00  0.00    +0.000 N 
BRANCH   2   6
ATOM      3  C   UNL     1       6.566   4.421  14.680  0.00  0.00    +0.000 C 
ATOM      4  C   UNL     1       6.242   4.893  16.068  0.00  0.00    +0.000 A 
ATOM      5  C   UNL     1       4.933   5.150  16.435  0.00  0.00    +0.000 A 
ATOM      6  C   UNL     1       4.684   5.665  17.703  0.00  0.00    +0.000 A 
ATOM      7  N   UNL     1       5.712   5.871  18.558  0.00  0.00    +0.000 NA
ATOM      8  C   UNL     1       6.926   5.530  18.124  0.00  0.00    +0.000 A 
ATOM      9 CL   UNL     1       8.201   5.686  19.252  0.00  0.00    +0.000 Cl
ATOM     10  N   UNL     1       7.265   5.056  16.919  0.00  0.00    +0.000 NA
ENDBRANCH   2   6
BRANCH   2  11
ATOM     11  C   UNL     1       2.343   4.978  18.001  0.00  0.00    +0.000 C 
BRANCH  11  12
ATOM     12  C   UNL     1       2.068   4.085  19.188  0.00  0.00    +0.000 A 
ATOM     13  C   UNL     1       1.194   4.252  20.245  0.00  0.00    +0.000 A 
ATOM     14  C   UNL     1       1.166   3.123  21.119  0.00  0.00    +0.000 A 
ATOM     15  C   UNL     1       2.024   2.128  20.708  0.00  0.00    +0.000 A 
ATOM     16  S   UNL     1       2.858   2.557  19.281  0.00  0.00    +0.000 S 
ENDBRANCH  11  12
ENDBRANCH   2  11
ENDBRANCH   1   2
BRANCH   1  17
ATOM     17  C   UNL     1       2.404   8.171  17.436  0.00  0.00    +0.000 C 
BRANCH  17  18
ATOM     18  C   UNL     1       2.036   9.572  17.936  0.00  0.00    +0.000 C 
BRANCH  18  19
ATOM     19  N   UNL     1       0.974   9.483  18.957  0.00  0.00    +0.000 N 
ATOM     20  H   UNL     1       1.372   9.159  19.839  0.00  0.00    +0.000 HD
BRANCH  19  21
ATOM     21  C   UNL     1       0.266  10.696  19.187  0.00  0.00    +0.000 A 
ATOM     22  C   UNL     1       0.755  11.673  20.052  0.00  0.00    +0.000 A 
ATOM     23  C   UNL     1      -0.068  12.731  20.396  0.00  0.00    +0.000 A 
ATOM     24  N   UNL     1      -1.351  12.830  20.011  0.00  0.00    +0.000 NA
ATOM     25  C   UNL     1      -1.807  11.922  19.140  0.00  0.00    +0.000 A 
ATOM     26  C   UNL     1      -3.164  11.863  18.886  0.00  0.00    +0.000 A 
ATOM     27  C   UNL     1      -3.673  10.904  18.015  0.00  0.00    +0.000 A 
ATOM     28 CL   UNL     1      -5.301  10.373  18.195  0.00  0.00    +0.000 Cl
ATOM     29  C   UNL     1      -2.831  10.202  17.167  0.00  0.00    +0.000 A 
ATOM     30  C   UNL     1      -1.476  10.191  17.464  0.00  0.00    +0.000 A 
ATOM     31  C   UNL     1      -0.983  10.932  18.560  0.00  0.00    +0.000 A 
ENDBRANCH  19  21
ENDBRANCH  18  19
ENDBRANCH  17  18
ENDBRANCH   1  17
TORSDOF 8
ENDMDL
MODEL 7
REMARK VINA RESULT:      -8.0      1.940      2.397
REMARK  Name = 
REMARK  9 active torsions:
REMARK  status: ('A' for Active; 'I' for Inactive)
REMARK    1  A    between atoms: C_1  and  C_2
REMARK    2  A    between atoms: C_4  and  N_5
REMARK    3  A    between atoms: N_5  and  C_6
REMARK    4  A    between atoms: N_5  and  C_21
REMARK    5  A    between atoms: C_6  and  C_7
REMARK    6  A    between atoms: C_7  and  C_8
REMARK    7  A    between atoms: C_8  and  N_9
REMARK    8  A    between atoms: N_9  and  C_10
REMARK    9  A    between atoms: C_21  and  C_22
REMARK                            x       y       z     vdW  Elec       q    Type
REMARK                         _______ _______ _______ _____ _____    ______ ____
ROOT
ATOM      1  C   UNL     1       2.843   6.990  18.633  0.00  0.00    +0.000 C 
ENDROOT
BRANCH   1   2
ATOM      2  N   UNL     1       3.451   5.814  18.014  0.00  0.00    +0.000 N 
BRANCH   2   6
ATOM      3  C   UNL     1       6.494   4.386  14.419  0.00  0.00    +0.000 C 
ATOM      4  C   UNL     1       6.183   5.177  15.656  0.00  0.00    +0.000 A 
ATOM      5  C   UNL     1       4.958   5.048  16.285  0.00  0.00    +0.000 A 
ATOM      6  C   UNL     1       4.679   5.859  17.379  0.00  0.00    +0.000 A 
ATOM      7  N   UNL     1       5.614   6.729  17.826  0.00  0.00    +0.000 NA
ATOM      8  C   UNL     1       6.784   6.727  17.185  0.00  0.00    +0.000 A 
ATOM      9 CL   UNL     1       7.998   7.745  17.830  0.00  0.00    +0.000 Cl
ATOM     10  N   UNL     1       7.133   6.007  16.113  0.00  0.00    +0.000 NA
ENDBRANCH   2   6
BRANCH   2  11
ATOM     11  C   UNL     1       2.687   4.556  17.993  0.00  0.00    +0.000 C 
BRANCH  11  12
ATOM     12  C   UNL     1       2.512   3.789  19.282  0.00  0.00    +0.000 A 
ATOM     13  C   UNL     1       3.406   2.994  19.975  0.00  0.00    +0.000 A 
ATOM     14  C   UNL     1       2.874   2.519  21.212  0.00  0.00    +0.000 A 
ATOM     15  C   UNL     1       1.588   2.960  21.427  0.00  0.00    +0.000 A 
ATOM     16  S   UNL     1       1.027   3.936  20.143  0.00  0.00    +0.000 S 
ENDBRANCH  11  12
ENDBRANCH   2  11
ENDBRANCH   1   2
BRANCH   1  17
ATOM     17  C   UNL     1       2.910   8.225  17.722  0.00  0.00    +0.000 C 
BRANCH  17  18
ATOM     18  C   UNL     1       1.538   8.898  17.609  0.00  0.00    +0.000 C 
BRANCH  18  19
ATOM     19  N   UNL     1       1.016   9.215  18.952  0.00  0.00    +0.000 N 
ATOM     20  H   UNL     1       1.766   9.134  19.639  0.00  0.00    +0.000 HD
BRANCH  19  21
ATOM     21  C   UNL     1       0.419  10.502  19.071  0.00  0.00    +0.000 A 
ATOM     22  C   UNL     1       1.014  11.516  19.818  0.00  0.00    +0.000 A 
ATOM     23  C   UNL     1       0.293  12.671  20.069  0.00  0.00    +0.000 A 
ATOM     24  N   UNL     1      -0.989  12.840  19.703  0.00  0.00    +0.000 NA
ATOM     25  C   UNL     1      -1.545  11.891  18.941  0.00  0.00    +0.000 A 
ATOM     26  C   UNL     1      -2.909  11.923  18.723  0.00  0.00    +0.000 A 
ATOM     27  C   UNL     1      -3.522  10.928  17.968  0.00  0.00    +0.000 A 
ATOM     28 CL   UNL     1      -5.183  10.561  18.237  0.00  0.00    +0.000 Cl
ATOM     29  C   UNL     1      -2.768  10.074  17.180  0.00  0.00    +0.000 A 
ATOM     30  C   UNL     1      -1.410   9.976  17.447  0.00  0.00    +0.000 A 
ATOM     31  C   UNL     1      -0.824  10.780  18.449  0.00  0.00    +0.000 A 
ENDBRANCH  19  21
ENDBRANCH  18  19
ENDBRANCH  17  18
ENDBRANCH   1  17
TORSDOF 8
ENDMDL
MODEL 8
REMARK VINA RESULT:      -8.0      2.262      2.787
REMARK  Name = 
REMARK  9 active torsions:
REMARK  status: ('A' for Active; 'I' for Inactive)
REMARK    1  A    between atoms: C_1  and  C_2
REMARK    2  A    between atoms: C_4  and  N_5
REMARK    3  A    between atoms: N_5  and  C_6
REMARK    4  A    between atoms: N_5  and  C_21
REMARK    5  A    between atoms: C_6  and  C_7
REMARK    6  A    between atoms: C_7  and  C_8
REMARK    7  A    between atoms: C_8  and  N_9
REMARK    8  A    between atoms: N_9  and  C_10
REMARK    9  A    between atoms: C_21  and  C_22
REMARK                            x       y       z     vdW  Elec       q    Type
REMARK                         _______ _______ _______ _____ _____    ______ ____
ROOT
ATOM      1  C   UNL     1       2.754   6.969  18.436  0.00  0.00    +0.000 C 
ENDROOT
BRANCH   1   2
ATOM      2  N   UNL     1       3.404   5.775  17.900  0.00  0.00    +0.000 N 
BRANCH   2   6
ATOM      3  C   UNL     1       6.548   4.334  14.398  0.00  0.00    +0.000 C 
ATOM      4  C   UNL     1       6.205   5.123  15.628  0.00  0.00    +0.000 A 
ATOM      5  C   UNL     1       4.959   5.002  16.216  0.00  0.00    +0.000 A 
ATOM      6  C   UNL     1       4.652   5.812  17.304  0.00  0.00    +0.000 A 
ATOM      7  N   UNL     1       5.580   6.672  17.784  0.00  0.00    +0.000 NA
ATOM      8  C   UNL     1       6.769   6.663  17.181  0.00  0.00    +0.000 A 
ATOM      9 CL   UNL     1       7.971   7.668  17.868  0.00  0.00    +0.000 Cl
ATOM     10  N   UNL     1       7.146   5.943  16.118  0.00  0.00    +0.000 NA
ENDBRANCH   2   6
BRANCH   2  11
ATOM     11  C   UNL     1       2.665   4.503  17.918  0.00  0.00    +0.000 C 
BRANCH  11  12
ATOM     12  C   UNL     1       2.514   3.767  19.229  0.00  0.00    +0.000 A 
ATOM     13  C   UNL     1       3.440   3.041  19.955  0.00  0.00    +0.000 A 
ATOM     14  C   UNL     1       2.919   2.577  21.201  0.00  0.00    +0.000 A 
ATOM     15  C   UNL     1       1.610   2.957  21.389  0.00  0.00    +0.000 A 
ATOM     16  S   UNL     1       1.014   3.862  20.070  0.00  0.00    +0.000 S 
ENDBRANCH  11  12
ENDBRANCH   2  11
ENDBRANCH   1   2
BRANCH   1  17
ATOM     17  C   UNL     1       2.539   8.044  17.362  0.00  0.00    +0.000 C 
BRANCH  17  18
ATOM     18  C   UNL     1       2.254   9.408  18.000  0.00  0.00    +0.000 C 
BRANCH  18  19
ATOM     19  N   UNL     1       1.103   9.308  18.919  0.00  0.00    +0.000 N 
ATOM     20  H   UNL     1       1.421   9.424  19.881  0.00  0.00    +0.000 HD
BRANCH  19  21
ATOM     21  C   UNL     1       0.054  10.236  18.663  0.00  0.00    +0.000 A 
ATOM     22  C   UNL     1      -1.064   9.884  17.910  0.00  0.00    +0.000 A 
ATOM     23  C   UNL     1      -1.946  10.877  17.521  0.00  0.00    +0.000 A 
ATOM     24  N   UNL     1      -1.742  12.185  17.757  0.00  0.00    +0.000 NA
ATOM     25  C   UNL     1      -0.698  12.520  18.523  0.00  0.00    +0.000 A 
ATOM     26  C   UNL     1      -0.335  13.850  18.613  0.00  0.00    +0.000 A 
ATOM     27  C   UNL     1       0.770  14.226  19.371  0.00  0.00    +0.000 A 
ATOM     28 CL   UNL     1       1.619  15.670  18.975  0.00  0.00    +0.000 Cl
ATOM     29  C   UNL     1       1.336  13.345  20.278  0.00  0.00    +0.000 A 
ATOM     30  C   UNL     1       1.039  11.997  20.144  0.00  0.00    +0.000 A 
ATOM     31  C   UNL     1       0.133  11.565  19.149  0.00  0.00    +0.000 A 
ENDBRANCH  19  21
ENDBRANCH  18  19
ENDBRANCH  17  18
ENDBRANCH   1  17
TORSDOF 8
ENDMDL
MODEL 9
REMARK VINA RESULT:      -8.0      2.321      2.882
REMARK  Name = 
REMARK  9 active torsions:
REMARK  status: ('A' for Active; 'I' for Inactive)
REMARK    1  A    between atoms: C_1  and  C_2
REMARK    2  A    between atoms: C_4  and  N_5
REMARK    3  A    between atoms: N_5  and  C_6
REMARK    4  A    between atoms: N_5  and  C_21
REMARK    5  A    between atoms: C_6  and  C_7
REMARK    6  A    between atoms: C_7  and  C_8
REMARK    7  A    between atoms: C_8  and  N_9
REMARK    8  A    between atoms: N_9  and  C_10
REMARK    9  A    between atoms: C_21  and  C_22
REMARK                            x       y       z     vdW  Elec       q    Type
REMARK                         _______ _______ _______ _____ _____    ______ ____
ROOT
ATOM      1  C   UNL     1       2.701   7.020  18.529  0.00  0.00    +0.000 C 
ENDROOT
BRANCH   1   2
ATOM      2  N   UNL     1       3.360   5.844  17.965  0.00  0.00    +0.000 N 
BRANCH   2   6
ATOM      3  C   UNL     1       7.891   7.738  17.630  0.00  0.00    +0.000 C 
ATOM      4  C   UNL     1       6.804   6.812  17.168  0.00  0.00    +0.000 A 
ATOM      5  C   UNL     1       5.558   6.835  17.766  0.00  0.00    +0.000 A 
ATOM      6  C   UNL     1       4.605   5.905  17.365  0.00  0.00    +0.000 A 
ATOM      7  N   UNL     1       4.900   5.023  16.382  0.00  0.00    +0.000 NA
ATOM      8  C   UNL     1       6.110   5.129  15.830  0.00  0.00    +0.000 A 
ATOM      9 CL   UNL     1       6.431   4.088  14.511  0.00  0.00    +0.000 Cl
ATOM     10  N   UNL     1       7.096   5.969  16.166  0.00  0.00    +0.000 NA
ENDBRANCH   2   6
BRANCH   2  11
ATOM     11  C   UNL     1       2.634   4.565  17.960  0.00  0.00    +0.000 C 
BRANCH  11  12
ATOM     12  C   UNL     1       2.314   3.904  19.281  0.00  0.00    +0.000 A 
ATOM     13  C   UNL     1       1.126   3.850  19.985  0.00  0.00    +0.000 A 
ATOM     14  C   UNL     1       1.219   3.038  21.157  0.00  0.00    +0.000 A 
ATOM     15  C   UNL     1       2.475   2.499  21.316  0.00  0.00    +0.000 A 
ATOM     16  S   UNL     1       3.535   2.974  20.064  0.00  0.00    +0.000 S 
ENDBRANCH  11  12
ENDBRANCH   2  11
ENDBRANCH   1   2
BRANCH   1  17
ATOM     17  C   UNL     1       2.654   8.190  17.536  0.00  0.00    +0.000 C 
BRANCH  17  18
ATOM     18  C   UNL     1       1.397   9.041  17.750  0.00  0.00    +0.000 C 
BRANCH  18  19
ATOM     19  N   UNL     1       1.773  10.443  18.016  0.00  0.00    +0.000 N 
ATOM     20  H   UNL     1       1.599  11.008  17.184  0.00  0.00    +0.000 HD
BRANCH  19  21
ATOM     21  C   UNL     1       1.109  11.037  19.126  0.00  0.00    +0.000 A 
ATOM     22  C   UNL     1       0.401  10.270  20.048  0.00  0.00    +0.000 A 
ATOM     23  C   UNL     1      -0.392  10.913  20.982  0.00  0.00    +0.000 A 
ATOM     24  N   UNL     1      -0.589  12.242  21.000  0.00  0.00    +0.000 NA
ATOM     25  C   UNL     1       0.129  12.985  20.150  0.00  0.00    +0.000 A 
ATOM     26  C   UNL     1      -0.194  14.318  19.990  0.00  0.00    +0.000 A 
ATOM     27  C   UNL     1       0.509  15.107  19.084  0.00  0.00    +0.000 A 
ATOM     28 CL   UNL     1      -0.255  16.484  18.387  0.00  0.00    +0.000 Cl
ATOM     29  C   UNL     1       1.715  14.674  18.558  0.00  0.00    +0.000 A 
ATOM     30  C   UNL     1       2.009  13.321  18.643  0.00  0.00    +0.000 A 
ATOM     31  C   UNL     1       1.126  12.443  19.308  0.00  0.00    +0.000 A 
ENDBRANCH  19  21
ENDBRANCH  18  19
ENDBRANCH  17  18
ENDBRANCH   1  17
TORSDOF 8
ENDMDL
