MODEL 1
REMARK VINA RESULT:      -7.2      0.000      0.000
REMARK  Name = 
REMARK  2 active torsions:
REMARK  status: ('A' for Active; 'I' for Inactive)
REMARK    1  A    between atoms: C_1  and  N_2
REMARK    2  A    between atoms: C_3  and  C_4
REMARK                            x       y       z     vdW  Elec       q    Type
REMARK                         _______ _______ _______ _____ _____    ______ ____
ROOT
ATOM      1  C   UNL     1       5.571   4.104  17.869  0.00  0.00    +0.000 A 
ATOM      2  N   UNL     1       6.594   4.623  18.630  0.00  0.00    +0.000 NA
ATOM      3  C   UNL     1       6.973   5.895  18.366  0.00  0.00    +0.000 A 
ATOM      4  C   UNL     1       6.504   6.668  17.313  0.00  0.00    +0.000 A 
ATOM      5  C   UNL     1       6.012   5.860  16.301  0.00  0.00    +0.000 A 
ATOM      6  N   UNL     1       6.066   5.998  14.937  0.00  0.00    +0.000 N 
ATOM      7  C   UNL     1       6.413   4.750  14.489  0.00  0.00    +0.000 A 
ATOM      8  N   UNL     1       7.242   4.619  13.443  0.00  0.00    +0.000 N 
ATOM      9  N   UNL     1       5.974   3.829  15.335  0.00  0.00    +0.000 NA
ATOM     10  C   UNL     1       5.646   4.528  16.507  0.00  0.00    +0.000 A 
ATOM     11  H   UNL     1       6.324   6.842  14.457  0.00  0.00    +0.000 HD
ATOM     12  H   UNL     1       7.815   5.417  13.152  0.00  0.00    +0.000 HD
ATOM     13  H   UNL     1       7.809   3.772  13.458  0.00  0.00    +0.000 HD
ENDROOT
BRANCH   1  16
ATOM     14  C   UNL     1       4.086   1.964  19.611  0.00  0.00    +0.000 C 
ATOM     15  N   UNL     1       3.713   3.358  19.482  0.00  0.00    +0.000 N 
ATOM     16  C   UNL     1       4.296   4.322  18.647  0.00  0.00    +0.000 A 
ATOM     17  C   UNL     1       3.590   5.496  18.882  0.00  0.00    +0.000 A 
ATOM     18  C   UNL     1       2.670   5.263  19.933  0.00  0.00    +0.000 A 
ATOM     19 BR   UNL     1       1.621   6.611  20.724  0.00  0.00    +0.000 Br
ATOM     20  C   UNL     1       2.753   3.944  20.283  0.00  0.00    +0.000 A 
ATOM     21 BR   UNL     1       1.800   3.104  21.665  0.00  0.00    +0.000 Br
ENDBRANCH   1  16
TORSDOF 1
ENDMDL
MODEL 2
REMARK VINA RESULT:      -6.8      1.911      2.564
REMARK  Name = 
REMARK  2 active torsions:
REMARK  status: ('A' for Active; 'I' for Inactive)
REMARK    1  A    between atoms: C_1  and  N_2
REMARK    2  A    between atoms: C_3  and  C_4
REMARK                            x       y       z     vdW  Elec       q    Type
REMARK                         _______ _______ _______ _____ _____    ______ ____
ROOT
ATOM      1  C   UNL     1       4.242   5.211  17.871  0.00  0.00    +0.000 A 
ATOM      2  N   UNL     1       5.253   5.247  18.805  0.00  0.00    +0.000 NA
ATOM      3  C   UNL     1       6.355   5.966  18.492  0.00  0.00    +0.000 A 
ATOM      4  C   UNL     1       6.600   6.561  17.262  0.00  0.00    +0.000 A 
ATOM      5  C   UNL     1       5.866   5.935  16.267  0.00  0.00    +0.000 A 
ATOM      6  N   UNL     1       6.181   5.657  14.961  0.00  0.00    +0.000 N 
ATOM      7  C   UNL     1       5.762   4.363  14.786  0.00  0.00    +0.000 A 
ATOM      8  N   UNL     1       6.479   3.523  14.025  0.00  0.00    +0.000 N 
ATOM      9  N   UNL     1       4.745   4.106  15.594  0.00  0.00    +0.000 NA
ATOM     10  C   UNL     1       4.746   5.146  16.536  0.00  0.00    +0.000 A 
ATOM     11  H   UNL     1       6.960   6.050  14.464  0.00  0.00    +0.000 HD
ATOM     12  H   UNL     1       7.451   3.754  13.798  0.00  0.00    +0.000 HD
ATOM     13  H   UNL     1       6.411   2.543  14.299  0.00  0.00    +0.000 HD
ENDROOT
BRANCH   1  16
ATOM     14  C   UNL     1       2.487   5.300  20.465  0.00  0.00    +0.000 C 
ATOM     15  N   UNL     1       2.563   6.339  19.458  0.00  0.00    +0.000 N 
ATOM     16  C   UNL     1       3.265   6.299  18.245  0.00  0.00    +0.000 A 
ATOM     17  C   UNL     1       3.026   7.525  17.635  0.00  0.00    +0.000 A 
ATOM     18  C   UNL     1       2.283   8.334  18.530  0.00  0.00    +0.000 A 
ATOM     19 BR   UNL     1       1.881  10.145  18.215  0.00  0.00    +0.000 Br
ATOM     20  C   UNL     1       2.001   7.587  19.640  0.00  0.00    +0.000 A 
ATOM     21 BR   UNL     1       1.093   8.182  21.171  0.00  0.00    +0.000 Br
ENDBRANCH   1  16
TORSDOF 1
ENDMDL
MODEL 3
REMARK VINA RESULT:      -6.8      3.665      5.378
REMARK  Name = 
REMARK  2 active torsions:
REMARK  status: ('A' for Active; 'I' for Inactive)
REMARK    1  A    between atoms: C_1  and  N_2
REMARK    2  A    between atoms: C_3  and  C_4
REMARK                            x       y       z     vdW  Elec       q    Type
REMARK                         _______ _______ _______ _____ _____    ______ ____
ROOT
ATOM      1  C   UNL     1       3.041   5.396  18.794  0.00  0.00    +0.000 A 
ATOM      2  N   UNL     1       2.103   4.961  17.884  0.00  0.00    +0.000 NA
ATOM      3  C   UNL     1       1.226   4.022  18.306  0.00  0.00    +0.000 A 
ATOM      4  C   UNL     1       1.276   3.373  19.532  0.00  0.00    +0.000 A 
ATOM      5  C   UNL     1       2.560   3.413  20.049  0.00  0.00    +0.000 A 
ATOM      6  N   UNL     1       3.269   2.482  20.765  0.00  0.00    +0.000 N 
ATOM      7  C   UNL     1       4.509   2.485  20.180  0.00  0.00    +0.000 A 
ATOM      8  N   UNL     1       5.190   1.338  20.044  0.00  0.00    +0.000 N 
ATOM      9  N   UNL     1       4.760   3.679  19.663  0.00  0.00    +0.000 NA
ATOM     10  C   UNL     1       3.520   4.334  19.620  0.00  0.00    +0.000 A 
ATOM     11  H   UNL     1       2.871   1.666  21.195  0.00  0.00    +0.000 HD
ATOM     12  H   UNL     1       4.694   0.446  20.125  0.00  0.00    +0.000 HD
ATOM     13  H   UNL     1       5.817   1.313  19.241  0.00  0.00    +0.000 HD
ENDROOT
BRANCH   1  16
ATOM     14  C   UNL     1       2.943   8.248  17.500  0.00  0.00    +0.000 C 
ATOM     15  N   UNL     1       2.381   7.881  18.784  0.00  0.00    +0.000 N 
ATOM     16  C   UNL     1       2.482   6.643  19.434  0.00  0.00    +0.000 A 
ATOM     17  C   UNL     1       1.784   6.790  20.628  0.00  0.00    +0.000 A 
ATOM     18  C   UNL     1       1.175   8.070  20.635  0.00  0.00    +0.000 A 
ATOM     19 BR   UNL     1      -0.023   8.650  21.965  0.00  0.00    +0.000 Br
ATOM     20  C   UNL     1       1.560   8.728  19.500  0.00  0.00    +0.000 A 
ATOM     21 BR   UNL     1       0.997  10.438  18.969  0.00  0.00    +0.000 Br
ENDBRANCH   1  16
TORSDOF 1
ENDMDL
MODEL 4
REMARK VINA RESULT:      -6.7      3.175      6.042
REMARK  Name = 
REMARK  2 active torsions:
REMARK  status: ('A' for Active; 'I' for Inactive)
REMARK    1  A    between atoms: C_1  and  N_2
REMARK    2  A    between atoms: C_3  and  C_4
REMARK                            x       y       z     vdW  Elec       q    Type
REMARK                         _______ _______ _______ _____ _____    ______ ____
ROOT
ATOM      1  C   UNL     1       4.046   2.803  18.575  0.00  0.00    +0.000 A 
ATOM      2  N   UNL     1       3.409   1.924  17.727  0.00  0.00    +0.000 NA
ATOM      3  C   UNL     1       2.112   2.177  17.441  0.00  0.00    +0.000 A 
ATOM      4  C   UNL     1       1.341   3.170  18.029  0.00  0.00    +0.000 A 
ATOM      5  C   UNL     1       1.868   3.529  19.258  0.00  0.00    +0.000 A 
ATOM      6  N   UNL     1       1.250   3.884  20.431  0.00  0.00    +0.000 N 
ATOM      7  C   UNL     1       1.932   3.183  21.392  0.00  0.00    +0.000 A 
ATOM      8  N   UNL     1       1.274   2.667  22.440  0.00  0.00    +0.000 N 
ATOM      9  N   UNL     1       3.181   2.979  21.000  0.00  0.00    +0.000 NA
ATOM     10  C   UNL     1       3.189   3.255  19.624  0.00  0.00    +0.000 A 
ATOM     11  H   UNL     1       0.279   4.122  20.516  0.00  0.00    +0.000 HD
ATOM     12  H   UNL     1       0.256   2.563  22.394  0.00  0.00    +0.000 HD
ATOM     13  H   UNL     1       1.691   1.820  22.825  0.00  0.00    +0.000 HD
ENDROOT
BRANCH   1  16
ATOM     14  C   UNL     1       5.404   5.452  19.554  0.00  0.00    +0.000 C 
ATOM     15  N   UNL     1       5.420   4.943  18.197  0.00  0.00    +0.000 N 
ATOM     16  C   UNL     1       4.752   3.813  17.704  0.00  0.00    +0.000 A 
ATOM     17  C   UNL     1       5.079   3.747  16.354  0.00  0.00    +0.000 A 
ATOM     18  C   UNL     1       6.025   4.762  16.072  0.00  0.00    +0.000 A 
ATOM     19 BR   UNL     1       6.899   4.946  14.415  0.00  0.00    +0.000 Br
ATOM     20  C   UNL     1       6.217   5.491  17.212  0.00  0.00    +0.000 A 
ATOM     21 BR   UNL     1       7.414   6.921  17.422  0.00  0.00    +0.000 Br
ENDBRANCH   1  16
TORSDOF 1
ENDMDL
MODEL 5
REMARK VINA RESULT:      -6.3      3.007      5.826
REMARK  Name = 
REMARK  2 active torsions:
REMARK  status: ('A' for Active; 'I' for Inactive)
REMARK    1  A    between atoms: C_1  and  N_2
REMARK    2  A    between atoms: C_3  and  C_4
REMARK                            x       y       z     vdW  Elec       q    Type
REMARK                         _______ _______ _______ _____ _____    ______ ____
ROOT
ATOM      1  C   UNL     1       3.873   3.594  18.284  0.00  0.00    +0.000 A 
ATOM      2  N   UNL     1       2.848   3.979  17.449  0.00  0.00    +0.000 NA
ATOM      3  C   UNL     1       2.067   5.002  17.866  0.00  0.00    +0.000 A 
ATOM      4  C   UNL     1       2.135   5.604  19.115  0.00  0.00    +0.000 A 
ATOM      5  C   UNL     1       2.714   4.746  20.035  0.00  0.00    +0.000 A 
ATOM      6  N   UNL     1       2.443   4.540  21.365  0.00  0.00    +0.000 N 
ATOM      7  C   UNL     1       2.440   3.176  21.497  0.00  0.00    +0.000 A 
ATOM      8  N   UNL     1       1.562   2.583  22.320  0.00  0.00    +0.000 N 
ATOM      9  N   UNL     1       3.246   2.634  20.596  0.00  0.00    +0.000 NA
ATOM     10  C   UNL     1       3.495   3.650  19.660  0.00  0.00    +0.000 A 
ATOM     11  H   UNL     1       1.879   5.145  21.933  0.00  0.00    +0.000 HD
ATOM     12  H   UNL     1       0.739   3.105  22.637  0.00  0.00    +0.000 HD
ATOM     13  H   UNL     1       1.289   1.643  22.038  0.00  0.00    +0.000 HD
ENDROOT
BRANCH   1  16
ATOM     14  C   UNL     1       5.396   3.119  15.587  0.00  0.00    +0.000 C 
ATOM     15  N   UNL     1       5.709   4.139  16.568  0.00  0.00    +0.000 N 
ATOM     16  C   UNL     1       5.110   4.325  17.822  0.00  0.00    +0.000 A 
ATOM     17  C   UNL     1       5.753   5.423  18.383  0.00  0.00    +0.000 A 
ATOM     18  C   UNL     1       6.648   5.957  17.424  0.00  0.00    +0.000 A 
ATOM     19 BR   UNL     1       7.606   7.558  17.664  0.00  0.00    +0.000 Br
ATOM     20  C   UNL     1       6.613   5.151  16.319  0.00  0.00    +0.000 A 
ATOM     21 BR   UNL     1       7.558   5.426  14.720  0.00  0.00    +0.000 Br
ENDBRANCH   1  16
TORSDOF 1
ENDMDL
MODEL 6
REMARK VINA RESULT:      -6.3      2.570      4.150
REMARK  Name = 
REMARK  2 active torsions:
REMARK  status: ('A' for Active; 'I' for Inactive)
REMARK    1  A    between atoms: C_1  and  N_2
REMARK    2  A    between atoms: C_3  and  C_4
REMARK                            x       y       z     vdW  Elec       q    Type
REMARK                         _______ _______ _______ _____ _____    ______ ____
ROOT
ATOM      1  C   UNL     1       4.236   5.181  18.955  0.00  0.00    +0.000 A 
ATOM      2  N   UNL     1       5.204   5.538  18.043  0.00  0.00    +0.000 NA
ATOM      3  C   UNL     1       5.080   5.043  16.790  0.00  0.00    +0.000 A 
ATOM      4  C   UNL     1       4.136   4.109  16.388  0.00  0.00    +0.000 A 
ATOM      5  C   UNL     1       3.679   3.382  17.475  0.00  0.00    +0.000 A 
ATOM      6  N   UNL     1       3.332   2.059  17.588  0.00  0.00    +0.000 N 
ATOM      7  C   UNL     1       3.928   1.657  18.756  0.00  0.00    +0.000 A 
ATOM      8  N   UNL     1       4.455   0.428  18.852  0.00  0.00    +0.000 N 
ATOM      9  N   UNL     1       4.036   2.686  19.584  0.00  0.00    +0.000 NA
ATOM     10  C   UNL     1       3.819   3.825  18.793  0.00  0.00    +0.000 A 
ATOM     11  H   UNL     1       3.178   1.440  16.813  0.00  0.00    +0.000 HD
ATOM     12  H   UNL     1       4.651  -0.103  17.998  0.00  0.00    +0.000 HD
ATOM     13  H   UNL     1       5.244   0.357  19.493  0.00  0.00    +0.000 HD
ENDROOT
BRANCH   1  16
ATOM     14  C   UNL     1       2.015   5.638  21.118  0.00  0.00    +0.000 C 
ATOM     15  N   UNL     1       2.283   6.499  19.984  0.00  0.00    +0.000 N 
ATOM     16  C   UNL     1       3.205   6.283  18.950  0.00  0.00    +0.000 A 
ATOM     17  C   UNL     1       3.087   7.384  18.109  0.00  0.00    +0.000 A 
ATOM     18  C   UNL     1       2.186   8.303  18.698  0.00  0.00    +0.000 A 
ATOM     19 BR   UNL     1       1.850  10.024  18.014  0.00  0.00    +0.000 Br
ATOM     20  C   UNL     1       1.696   7.740  19.844  0.00  0.00    +0.000 A 
ATOM     21 BR   UNL     1       0.509   8.549  21.053  0.00  0.00    +0.000 Br
ENDBRANCH   1  16
TORSDOF 1
ENDMDL
MODEL 7
REMARK VINA RESULT:      -6.3      1.274      1.673
REMARK  Name = 
REMARK  2 active torsions:
REMARK  status: ('A' for Active; 'I' for Inactive)
REMARK    1  A    between atoms: C_1  and  N_2
REMARK    2  A    between atoms: C_3  and  C_4
REMARK                            x       y       z     vdW  Elec       q    Type
REMARK                         _______ _______ _______ _____ _____    ______ ____
ROOT
ATOM      1  C   UNL     1       5.800   3.956  17.887  0.00  0.00    +0.000 A 
ATOM      2  N   UNL     1       6.673   4.615  18.723  0.00  0.00    +0.000 NA
ATOM      3  C   UNL     1       6.786   5.954  18.562  0.00  0.00    +0.000 A 
ATOM      4  C   UNL     1       6.195   6.690  17.545  0.00  0.00    +0.000 A 
ATOM      5  C   UNL     1       5.908   5.877  16.461  0.00  0.00    +0.000 A 
ATOM      6  N   UNL     1       5.968   6.125  15.112  0.00  0.00    +0.000 N 
ATOM      7  C   UNL     1       6.579   5.011  14.596  0.00  0.00    +0.000 A 
ATOM      8  N   UNL     1       7.445   5.132  13.579  0.00  0.00    +0.000 N 
ATOM      9  N   UNL     1       6.319   3.960  15.359  0.00  0.00    +0.000 NA
ATOM     10  C   UNL     1       5.821   4.486  16.561  0.00  0.00    +0.000 A 
ATOM     11  H   UNL     1       6.058   7.037  14.702  0.00  0.00    +0.000 HD
ATOM     12  H   UNL     1       7.847   6.049  13.367  0.00  0.00    +0.000 HD
ATOM     13  H   UNL     1       8.175   4.421  13.560  0.00  0.00    +0.000 HD
ENDROOT
BRANCH   1  16
ATOM     14  C   UNL     1       3.020   3.269  16.613  0.00  0.00    +0.000 C 
ATOM     15  N   UNL     1       3.282   3.455  18.026  0.00  0.00    +0.000 N 
ATOM     16  C   UNL     1       4.487   3.849  18.624  0.00  0.00    +0.000 A 
ATOM     17  C   UNL     1       4.232   3.884  19.990  0.00  0.00    +0.000 A 
ATOM     18  C   UNL     1       2.918   3.404  20.213  0.00  0.00    +0.000 A 
ATOM     19 BR   UNL     1       2.192   3.097  21.922  0.00  0.00    +0.000 Br
ATOM     20  C   UNL     1       2.347   3.153  18.996  0.00  0.00    +0.000 A 
ATOM     21 BR   UNL     1       0.635   2.441  18.703  0.00  0.00    +0.000 Br
ENDBRANCH   1  16
TORSDOF 1
ENDMDL
MODEL 8
REMARK VINA RESULT:      -6.2      2.878      4.770
REMARK  Name = 
REMARK  2 active torsions:
REMARK  status: ('A' for Active; 'I' for Inactive)
REMARK    1  A    between atoms: C_1  and  N_2
REMARK    2  A    between atoms: C_3  and  C_4
REMARK                            x       y       z     vdW  Elec       q    Type
REMARK                         _______ _______ _______ _____ _____    ______ ____
ROOT
ATOM      1  C   UNL     1       2.744   6.321  18.355  0.00  0.00    +0.000 A 
ATOM      2  N   UNL     1       1.884   5.250  18.448  0.00  0.00    +0.000 NA
ATOM      3  C   UNL     1       2.200   4.284  19.341  0.00  0.00    +0.000 A 
ATOM      4  C   UNL     1       3.378   4.224  20.072  0.00  0.00    +0.000 A 
ATOM      5  C   UNL     1       4.378   4.948  19.442  0.00  0.00    +0.000 A 
ATOM      6  N   UNL     1       5.724   4.709  19.329  0.00  0.00    +0.000 N 
ATOM      7  C   UNL     1       5.998   4.965  18.010  0.00  0.00    +0.000 A 
ATOM      8  N   UNL     1       6.888   4.209  17.351  0.00  0.00    +0.000 N 
ATOM      9  N   UNL     1       5.150   5.868  17.541  0.00  0.00    +0.000 NA
ATOM     10  C   UNL     1       4.110   5.927  18.482  0.00  0.00    +0.000 A 
ATOM     11  H   UNL     1       6.232   4.034  19.871  0.00  0.00    +0.000 HD
ATOM     12  H   UNL     1       7.158   3.299  17.736  0.00  0.00    +0.000 HD
ATOM     13  H   UNL     1       6.710   4.123  16.351  0.00  0.00    +0.000 HD
ENDROOT
BRANCH   1  16
ATOM     14  C   UNL     1       2.187   9.296  17.543  0.00  0.00    +0.000 C 
ATOM     15  N   UNL     1       1.881   8.697  18.826  0.00  0.00    +0.000 N 
ATOM     16  C   UNL     1       2.194   7.400  19.256  0.00  0.00    +0.000 A 
ATOM     17  C   UNL     1       1.695   7.305  20.551  0.00  0.00    +0.000 A 
ATOM     18  C   UNL     1       0.988   8.497  20.847  0.00  0.00    +0.000 A 
ATOM     19 BR   UNL     1      -0.017   8.754  22.416  0.00  0.00    +0.000 Br
ATOM     20  C   UNL     1       1.120   9.343  19.780  0.00  0.00    +0.000 A 
ATOM     21 BR   UNL     1       0.332  11.038  19.610  0.00  0.00    +0.000 Br
ENDBRANCH   1  16
TORSDOF 1
ENDMDL
MODEL 9
REMARK VINA RESULT:      -6.1      3.308      5.983
REMARK  Name = 
REMARK  2 active torsions:
REMARK  status: ('A' for Active; 'I' for Inactive)
REMARK    1  A    between atoms: C_1  and  N_2
REMARK    2  A    between atoms: C_3  and  C_4
REMARK                            x       y       z     vdW  Elec       q    Type
REMARK                         _______ _______ _______ _____ _____    ______ ____
ROOT
ATOM      1  C   UNL     1       4.001   3.346  19.016  0.00  0.00    +0.000 A 
ATOM      2  N   UNL     1       3.721   2.375  18.080  0.00  0.00    +0.000 NA
ATOM      3  C   UNL     1       2.443   2.289  17.647  0.00  0.00    +0.000 A 
ATOM      4  C   UNL     1       1.373   3.009  18.161  0.00  0.00    +0.000 A 
ATOM      5  C   UNL     1       1.648   3.430  19.452  0.00  0.00    +0.000 A 
ATOM      6  N   UNL     1       0.833   3.545  20.550  0.00  0.00    +0.000 N 
ATOM      7  C   UNL     1       1.571   3.001  21.570  0.00  0.00    +0.000 A 
ATOM      8  N   UNL     1       0.967   2.275  22.522  0.00  0.00    +0.000 N 
ATOM      9  N   UNL     1       2.863   3.157  21.324  0.00  0.00    +0.000 NA
ATOM     10  C   UNL     1       2.945   3.497  19.965  0.00  0.00    +0.000 A 
ATOM     11  H   UNL     1      -0.170   3.512  20.524  0.00  0.00    +0.000 HD
ATOM     12  H   UNL     1       0.026   1.907  22.352  0.00  0.00    +0.000 HD
ATOM     13  H   UNL     1       1.553   1.551  22.935  0.00  0.00    +0.000 HD
ENDROOT
BRANCH   1  16
ATOM     14  C   UNL     1       6.437   5.150  19.811  0.00  0.00    +0.000 C 
ATOM     15  N   UNL     1       5.646   5.279  18.604  0.00  0.00    +0.000 N 
ATOM     16  C   UNL     1       4.498   4.552  18.257  0.00  0.00    +0.000 A 
ATOM     17  C   UNL     1       4.108   5.041  17.015  0.00  0.00    +0.000 A 
ATOM     18  C   UNL     1       5.081   5.971  16.574  0.00  0.00    +0.000 A 
ATOM     19 BR   UNL     1       5.077   6.760  14.865  0.00  0.00    +0.000 Br
ATOM     20  C   UNL     1       6.013   6.111  17.565  0.00  0.00    +0.000 A 
ATOM     21 BR   UNL     1       7.559   7.173  17.489  0.00  0.00    +0.000 Br
ENDBRANCH   1  16
TORSDOF 1
ENDMDL
