MODEL 1
REMARK VINA RESULT:      -9.7      0.000      0.000
REMARK  Name = 
REMARK  3 active torsions:
REMARK  status: ('A' for Active; 'I' for Inactive)
REMARK    1  A    between atoms: C_2  and  C_29
REMARK    2  A    between atoms: C_10  and  C_11
REMARK    3  A    between atoms: C_14  and  C_15
REMARK                            x       y       z     vdW  Elec       q    Type
REMARK                         _______ _______ _______ _____ _____    ______ ____
ROOT
ATOM      1  O   UNL     1       5.758   5.588  16.289  0.00  0.00    +0.000 OA
ATOM      2  C   UNL     1       5.784   4.399  16.004  0.00  0.00    +0.000 C 
ATOM      3  N   UNL     1       5.177   3.371  16.684  0.00  0.00    +0.000 N 
ATOM      4  C   UNL     1       4.364   3.563  17.764  0.00  0.00    +0.000 A 
ATOM      5  N   UNL     1       4.085   2.503  18.581  0.00  0.00    +0.000 NA
ATOM      6  C   UNL     1       3.375   3.047  19.543  0.00  0.00    +0.000 A 
ATOM      7  C   UNL     1       2.846   2.535  20.761  0.00  0.00    +0.000 A 
ATOM      8  C   UNL     1       2.140   3.345  21.574  0.00  0.00    +0.000 A 
ATOM      9  C   UNL     1       1.872   4.734  21.226  0.00  0.00    +0.000 A 
ATOM     10  C   UNL     1       2.376   5.234  20.078  0.00  0.00    +0.000 A 
ATOM     11  N   UNL     1       3.146   4.398  19.256  0.00  0.00    +0.000 N 
ATOM     12  N   UNL     1       3.791   4.707  18.114  0.00  0.00    +0.000 NA
ATOM     13  H   UNL     1       5.414   2.411  16.500  0.00  0.00    +0.000 HD
ENDROOT
BRANCH  10  14
ATOM     14  C   UNL     1       2.135   6.631  19.690  0.00  0.00    +0.000 A 
ATOM     15  C   UNL     1       2.267   7.013  18.350  0.00  0.00    +0.000 A 
ATOM     16  C   UNL     1       1.987   8.324  17.963  0.00  0.00    +0.000 A 
ATOM     17  C   UNL     1       1.656   9.290  18.920  0.00  0.00    +0.000 A 
ATOM     18  C   UNL     1       1.460   8.895  20.248  0.00  0.00    +0.000 A 
ATOM     19  C   UNL     1       1.696   7.570  20.631  0.00  0.00    +0.000 A 
BRANCH  17  20
ATOM     20  C   UNL     1       1.482  10.724  18.567  0.00  0.00    +0.000 C 
ATOM     21  O   UNL     1       2.369  11.264  17.906  0.00  0.00    +0.000 OA
ATOM     22  N   UNL     1       0.317  11.409  18.955  0.00  0.00    +0.000 N 
ATOM     23  C   UNL     1       0.158  12.820  18.579  0.00  0.00    +0.000 C 
ATOM     24  C   UNL     1      -0.112  13.720  19.771  0.00  0.00    +0.000 C 
ATOM     25  S   UNL     1      -1.463  13.121  20.754  0.00  0.00    +0.000 S 
ATOM     26  O   UNL     1      -1.368  13.729  22.069  0.00  0.00    +0.000 OA
ATOM     27  O   UNL     1      -2.685  13.237  19.981  0.00  0.00    +0.000 OA
ATOM     28  C   UNL     1      -1.097  11.390  20.934  0.00  0.00    +0.000 C 
ATOM     29  C   UNL     1      -0.876  10.803  19.558  0.00  0.00    +0.000 C 
ENDBRANCH  17  20
ENDBRANCH  10  14
BRANCH   2  30
ATOM     30  C   UNL     1       6.622   4.006  14.832  0.00  0.00    +0.000 C 
ATOM     31  C   UNL     1       6.008   3.882  13.457  0.00  0.00    +0.000 C 
ATOM     32  C   UNL     1       7.057   4.927  13.721  0.00  0.00    +0.000 C 
ENDBRANCH   2  30
TORSDOF 3
ENDMDL
MODEL 2
REMARK VINA RESULT:      -9.6      1.594      2.088
REMARK  Name = 
REMARK  3 active torsions:
REMARK  status: ('A' for Active; 'I' for Inactive)
REMARK    1  A    between atoms: C_2  and  C_29
REMARK    2  A    between atoms: C_10  and  C_11
REMARK    3  A    between atoms: C_14  and  C_15
REMARK                            x       y       z     vdW  Elec       q    Type
REMARK                         _______ _______ _______ _____ _____    ______ ____
ROOT
ATOM      1  O   UNL     1       5.093   6.419  15.994  0.00  0.00    +0.000 OA
ATOM      2  C   UNL     1       5.192   5.282  15.555  0.00  0.00    +0.000 C 
ATOM      3  N   UNL     1       4.803   4.118  16.173  0.00  0.00    +0.000 N 
ATOM      4  C   UNL     1       4.152   4.088  17.372  0.00  0.00    +0.000 A 
ATOM      5  N   UNL     1       4.111   2.914  18.075  0.00  0.00    +0.000 NA
ATOM      6  C   UNL     1       3.508   3.256  19.190  0.00  0.00    +0.000 A 
ATOM      7  C   UNL     1       3.228   2.549  20.393  0.00  0.00    +0.000 A 
ATOM      8  C   UNL     1       2.581   3.171  21.398  0.00  0.00    +0.000 A 
ATOM      9  C   UNL     1       2.125   4.549  21.277  0.00  0.00    +0.000 A 
ATOM     10  C   UNL     1       2.392   5.235  20.145  0.00  0.00    +0.000 A 
ATOM     11  N   UNL     1       3.105   4.595  19.119  0.00  0.00    +0.000 N 
ATOM     12  N   UNL     1       3.530   5.107  17.948  0.00  0.00    +0.000 NA
ATOM     13  H   UNL     1       5.102   3.221  15.832  0.00  0.00    +0.000 HD
ENDROOT
BRANCH  10  14
ATOM     14  C   UNL     1       1.957   6.628  19.982  0.00  0.00    +0.000 A 
ATOM     15  C   UNL     1       1.264   7.266  21.016  0.00  0.00    +0.000 A 
ATOM     16  C   UNL     1       0.895   8.606  20.892  0.00  0.00    +0.000 A 
ATOM     17  C   UNL     1       1.136   9.301  19.702  0.00  0.00    +0.000 A 
ATOM     18  C   UNL     1       1.885   8.685  18.693  0.00  0.00    +0.000 A 
ATOM     19  C   UNL     1       2.297   7.355  18.833  0.00  0.00    +0.000 A 
BRANCH  17  20
ATOM     20  C   UNL     1       0.641  10.686  19.481  0.00  0.00    +0.000 C 
ATOM     21  O   UNL     1       1.222  11.602  20.063  0.00  0.00    +0.000 OA
ATOM     22  N   UNL     1      -0.433  10.919  18.605  0.00  0.00    +0.000 N 
ATOM     23  C   UNL     1      -0.894  12.296  18.388  0.00  0.00    +0.000 C 
ATOM     24  C   UNL     1      -2.376  12.472  18.663  0.00  0.00    +0.000 C 
ATOM     25  S   UNL     1      -3.353  11.281  17.780  0.00  0.00    +0.000 S 
ATOM     26  O   UNL     1      -4.654  11.200  18.422  0.00  0.00    +0.000 OA
ATOM     27  O   UNL     1      -3.254  11.562  16.361  0.00  0.00    +0.000 OA
ATOM     28  C   UNL     1      -2.504   9.750  18.091  0.00  0.00    +0.000 C 
ATOM     29  C   UNL     1      -1.050   9.925  17.717  0.00  0.00    +0.000 C 
ENDBRANCH  17  20
ENDBRANCH  10  14
BRANCH   2  30
ATOM     30  C   UNL     1       5.872   5.128  14.235  0.00  0.00    +0.000 C 
ATOM     31  C   UNL     1       7.324   4.716  14.164  0.00  0.00    +0.000 C 
ATOM     32  C   UNL     1       6.260   3.817  13.599  0.00  0.00    +0.000 C 
ENDBRANCH   2  30
TORSDOF 3
ENDMDL
MODEL 3
REMARK VINA RESULT:      -9.0      3.443      8.881
REMARK  Name = 
REMARK  3 active torsions:
REMARK  status: ('A' for Active; 'I' for Inactive)
REMARK    1  A    between atoms: C_2  and  C_29
REMARK    2  A    between atoms: C_10  and  C_11
REMARK    3  A    between atoms: C_14  and  C_15
REMARK                            x       y       z     vdW  Elec       q    Type
REMARK                         _______ _______ _______ _____ _____    ______ ____
ROOT
ATOM      1  O   UNL     1       3.036  12.796  17.665  0.00  0.00    +0.000 OA
ATOM      2  C   UNL     1       3.167  13.781  18.378  0.00  0.00    +0.000 C 
ATOM      3  N   UNL     1       2.598  13.994  19.609  0.00  0.00    +0.000 N 
ATOM      4  C   UNL     1       1.848  13.058  20.261  0.00  0.00    +0.000 A 
ATOM      5  N   UNL     1       1.044  13.454  21.294  0.00  0.00    +0.000 NA
ATOM      6  C   UNL     1       0.412  12.350  21.620  0.00  0.00    +0.000 A 
ATOM      7  C   UNL     1      -0.633  12.072  22.544  0.00  0.00    +0.000 A 
ATOM      8  C   UNL     1      -1.098  10.813  22.668  0.00  0.00    +0.000 A 
ATOM      9  C   UNL     1      -0.535   9.711  21.901  0.00  0.00    +0.000 A 
ATOM     10  C   UNL     1       0.452   9.962  21.013  0.00  0.00    +0.000 A 
ATOM     11  N   UNL     1       0.901  11.282  20.857  0.00  0.00    +0.000 N 
ATOM     12  N   UNL     1       1.817  11.760  19.993  0.00  0.00    +0.000 NA
ATOM     13  H   UNL     1       2.595  14.906  20.033  0.00  0.00    +0.000 HD
ENDROOT
BRANCH  10  14
ATOM     14  C   UNL     1       1.045   8.883  20.213  0.00  0.00    +0.000 A 
ATOM     15  C   UNL     1       1.221   9.053  18.836  0.00  0.00    +0.000 A 
ATOM     16  C   UNL     1       1.834   8.055  18.078  0.00  0.00    +0.000 A 
ATOM     17  C   UNL     1       2.201   6.840  18.668  0.00  0.00    +0.000 A 
ATOM     18  C   UNL     1       2.085   6.694  20.055  0.00  0.00    +0.000 A 
ATOM     19  C   UNL     1       1.512   7.712  20.825  0.00  0.00    +0.000 A 
BRANCH  17  20
ATOM     20  C   UNL     1       2.733   5.703  17.870  0.00  0.00    +0.000 C 
ATOM     21  O   UNL     1       1.980   4.754  17.652  0.00  0.00    +0.000 OA
ATOM     22  N   UNL     1       4.043   5.751  17.363  0.00  0.00    +0.000 N 
ATOM     23  C   UNL     1       4.541   4.624  16.562  0.00  0.00    +0.000 C 
ATOM     24  C   UNL     1       5.835   4.045  17.103  0.00  0.00    +0.000 C 
ATOM     25  S   UNL     1       7.065   5.300  17.351  0.00  0.00    +0.000 S 
ATOM     26  O   UNL     1       8.062   4.780  18.270  0.00  0.00    +0.000 OA
ATOM     27  O   UNL     1       7.463   5.819  16.057  0.00  0.00    +0.000 OA
ATOM     28  C   UNL     1       6.171   6.582  18.199  0.00  0.00    +0.000 C 
ATOM     29  C   UNL     1       4.935   6.916  17.394  0.00  0.00    +0.000 C 
ENDBRANCH  17  20
ENDBRANCH  10  14
BRANCH   2  30
ATOM     30  C   UNL     1       3.975  14.909  17.825  0.00  0.00    +0.000 C 
ATOM     31  C   UNL     1       3.300  16.072  17.137  0.00  0.00    +0.000 C 
ATOM     32  C   UNL     1       4.062  16.293  18.415  0.00  0.00    +0.000 C 
ENDBRANCH   2  30
TORSDOF 3
ENDMDL
MODEL 4
REMARK VINA RESULT:      -9.0      0.932      1.089
REMARK  Name = 
REMARK  3 active torsions:
REMARK  status: ('A' for Active; 'I' for Inactive)
REMARK    1  A    between atoms: C_2  and  C_29
REMARK    2  A    between atoms: C_10  and  C_11
REMARK    3  A    between atoms: C_14  and  C_15
REMARK                            x       y       z     vdW  Elec       q    Type
REMARK                         _______ _______ _______ _____ _____    ______ ____
ROOT
ATOM      1  O   UNL     1       5.244   6.529  15.864  0.00  0.00    +0.000 OA
ATOM      2  C   UNL     1       5.263   5.386  15.428  0.00  0.00    +0.000 C 
ATOM      3  N   UNL     1       4.762   4.260  16.034  0.00  0.00    +0.000 N 
ATOM      4  C   UNL     1       4.076   4.285  17.213  0.00  0.00    +0.000 A 
ATOM      5  N   UNL     1       3.918   3.121  17.914  0.00  0.00    +0.000 NA
ATOM      6  C   UNL     1       3.312   3.513  19.011  0.00  0.00    +0.000 A 
ATOM      7  C   UNL     1       2.939   2.835  20.205  0.00  0.00    +0.000 A 
ATOM      8  C   UNL     1       2.315   3.510  21.189  0.00  0.00    +0.000 A 
ATOM      9  C   UNL     1       1.977   4.920  21.055  0.00  0.00    +0.000 A 
ATOM     10  C   UNL     1       2.333   5.579  19.931  0.00  0.00    +0.000 A 
ATOM     11  N   UNL     1       3.021   4.881  18.928  0.00  0.00    +0.000 N 
ATOM     12  N   UNL     1       3.522   5.354  17.770  0.00  0.00    +0.000 NA
ATOM     13  H   UNL     1       4.997   3.340  15.702  0.00  0.00    +0.000 HD
ENDROOT
BRANCH  10  14
ATOM     14  C   UNL     1       2.018   7.002  19.755  0.00  0.00    +0.000 A 
ATOM     15  C   UNL     1       2.114   7.585  18.487  0.00  0.00    +0.000 A 
ATOM     16  C   UNL     1       1.764   8.922  18.300  0.00  0.00    +0.000 A 
ATOM     17  C   UNL     1       1.396   9.718  19.390  0.00  0.00    +0.000 A 
ATOM     18  C   UNL     1       1.236   9.122  20.646  0.00  0.00    +0.000 A 
ATOM     19  C   UNL     1       1.543   7.769  20.828  0.00  0.00    +0.000 A 
BRANCH  17  20
ATOM     20  C   UNL     1       1.145  11.178  19.254  0.00  0.00    +0.000 C 
ATOM     21  O   UNL     1       1.846  11.809  18.462  0.00  0.00    +0.000 OA
ATOM     22  N   UNL     1       0.113  11.787  19.988  0.00  0.00    +0.000 N 
ATOM     23  C   UNL     1      -0.128  13.227  19.824  0.00  0.00    +0.000 C 
ATOM     24  C   UNL     1      -0.095  13.983  21.139  0.00  0.00    +0.000 C 
ATOM     25  S   UNL     1      -1.167  13.247  22.347  0.00  0.00    +0.000 S 
ATOM     26  O   UNL     1      -0.752  13.708  23.660  0.00  0.00    +0.000 OA
ATOM     27  O   UNL     1      -2.541  13.418  21.913  0.00  0.00    +0.000 OA
ATOM     28  C   UNL     1      -0.774  11.516  22.237  0.00  0.00    +0.000 C 
ATOM     29  C   UNL     1      -0.898  11.089  20.792  0.00  0.00    +0.000 C 
ENDBRANCH  17  20
ENDBRANCH  10  14
BRANCH   2  30
ATOM     30  C   UNL     1       5.968   5.174  14.128  0.00  0.00    +0.000 C 
ATOM     31  C   UNL     1       7.406   4.711  14.103  0.00  0.00    +0.000 C 
ATOM     32  C   UNL     1       6.324   3.834  13.536  0.00  0.00    +0.000 C 
ENDBRANCH   2  30
TORSDOF 3
ENDMDL
MODEL 5
REMARK VINA RESULT:      -8.7      3.436      8.982
REMARK  Name = 
REMARK  3 active torsions:
REMARK  status: ('A' for Active; 'I' for Inactive)
REMARK    1  A    between atoms: C_2  and  C_29
REMARK    2  A    between atoms: C_10  and  C_11
REMARK    3  A    between atoms: C_14  and  C_15
REMARK                            x       y       z     vdW  Elec       q    Type
REMARK                         _______ _______ _______ _____ _____    ______ ____
ROOT
ATOM      1  O   UNL     1      -2.039   9.622  16.974  0.00  0.00    +0.000 OA
ATOM      2  C   UNL     1      -2.322  10.782  17.233  0.00  0.00    +0.000 C 
ATOM      3  N   UNL     1      -2.043  11.464  18.392  0.00  0.00    +0.000 N 
ATOM      4  C   UNL     1      -1.307  10.936  19.414  0.00  0.00    +0.000 A 
ATOM      5  N   UNL     1      -1.366  11.526  20.647  0.00  0.00    +0.000 NA
ATOM      6  C   UNL     1      -0.635  10.729  21.393  0.00  0.00    +0.000 A 
ATOM      7  C   UNL     1      -0.355  10.699  22.787  0.00  0.00    +0.000 A 
ATOM      8  C   UNL     1       0.447   9.738  23.287  0.00  0.00    +0.000 A 
ATOM      9  C   UNL     1       1.070   8.739  22.429  0.00  0.00    +0.000 A 
ATOM     10  C   UNL     1       0.806   8.751  21.105  0.00  0.00    +0.000 A 
ATOM     11  N   UNL     1      -0.065   9.727  20.598  0.00  0.00    +0.000 N 
ATOM     12  N   UNL     1      -0.512   9.878  19.336  0.00  0.00    +0.000 NA
ATOM     13  H   UNL     1      -2.484  12.343  18.601  0.00  0.00    +0.000 HD
ENDROOT
BRANCH  10  14
ATOM     14  C   UNL     1       1.407   7.759  20.203  0.00  0.00    +0.000 A 
ATOM     15  C   UNL     1       1.891   8.159  18.953  0.00  0.00    +0.000 A 
ATOM     16  C   UNL     1       2.513   7.235  18.113  0.00  0.00    +0.000 A 
ATOM     17  C   UNL     1       2.583   5.884  18.473  0.00  0.00    +0.000 A 
ATOM     18  C   UNL     1       2.159   5.495  19.748  0.00  0.00    +0.000 A 
ATOM     19  C   UNL     1       1.575   6.430  20.612  0.00  0.00    +0.000 A 
BRANCH  17  20
ATOM     20  C   UNL     1       3.117   4.848  17.549  0.00  0.00    +0.000 C 
ATOM     21  O   UNL     1       2.405   3.872  17.308  0.00  0.00    +0.000 OA
ATOM     22  N   UNL     1       4.380   5.016  16.956  0.00  0.00    +0.000 N 
ATOM     23  C   UNL     1       4.879   3.988  16.033  0.00  0.00    +0.000 C 
ATOM     24  C   UNL     1       6.241   3.449  16.432  0.00  0.00    +0.000 C 
ATOM     25  S   UNL     1       7.413   4.756  16.693  0.00  0.00    +0.000 S 
ATOM     26  O   UNL     1       8.505   4.230  17.494  0.00  0.00    +0.000 OA
ATOM     27  O   UNL     1       7.682   5.398  15.421  0.00  0.00    +0.000 OA
ATOM     28  C   UNL     1       6.514   5.911  17.705  0.00  0.00    +0.000 C 
ATOM     29  C   UNL     1       5.205   6.228  17.018  0.00  0.00    +0.000 C 
ENDBRANCH  17  20
ENDBRANCH  10  14
BRANCH   2  30
ATOM     30  C   UNL     1      -3.121  11.525  16.213  0.00  0.00    +0.000 C 
ATOM     31  C   UNL     1      -3.825  10.782  15.101  0.00  0.00    +0.000 C 
ATOM     32  C   UNL     1      -4.626  11.540  16.123  0.00  0.00    +0.000 C 
ENDBRANCH   2  30
TORSDOF 3
ENDMDL
MODEL 6
REMARK VINA RESULT:      -8.6      3.558      9.690
REMARK  Name = 
REMARK  3 active torsions:
REMARK  status: ('A' for Active; 'I' for Inactive)
REMARK    1  A    between atoms: C_2  and  C_29
REMARK    2  A    between atoms: C_10  and  C_11
REMARK    3  A    between atoms: C_14  and  C_15
REMARK                            x       y       z     vdW  Elec       q    Type
REMARK                         _______ _______ _______ _____ _____    ______ ____
ROOT
ATOM      1  O   UNL     1      -3.393   9.728  18.170  0.00  0.00    +0.000 OA
ATOM      2  C   UNL     1      -3.868  10.834  17.957  0.00  0.00    +0.000 C 
ATOM      3  N   UNL     1      -3.313  12.050  18.273  0.00  0.00    +0.000 N 
ATOM      4  C   UNL     1      -2.067  12.187  18.814  0.00  0.00    +0.000 A 
ATOM      5  N   UNL     1      -1.731  13.370  19.412  0.00  0.00    +0.000 NA
ATOM      6  C   UNL     1      -0.533  13.130  19.894  0.00  0.00    +0.000 A 
ATOM      7  C   UNL     1       0.351  13.891  20.708  0.00  0.00    +0.000 A 
ATOM      8  C   UNL     1       1.546  13.377  21.059  0.00  0.00    +0.000 A 
ATOM      9  C   UNL     1       1.979  12.065  20.598  0.00  0.00    +0.000 A 
ATOM     10  C   UNL     1       1.146  11.328  19.832  0.00  0.00    +0.000 A 
ATOM     11  N   UNL     1      -0.115  11.851  19.507  0.00  0.00    +0.000 N 
ATOM     12  N   UNL     1      -1.114  11.265  18.819  0.00  0.00    +0.000 NA
ATOM     13  H   UNL     1      -3.856  12.896  18.246  0.00  0.00    +0.000 HD
ENDROOT
BRANCH  10  14
ATOM     14  C   UNL     1       1.538   9.997  19.350  0.00  0.00    +0.000 A 
ATOM     15  C   UNL     1       1.941   9.829  18.021  0.00  0.00    +0.000 A 
ATOM     16  C   UNL     1       2.367   8.580  17.568  0.00  0.00    +0.000 A 
ATOM     17  C   UNL     1       2.315   7.465  18.412  0.00  0.00    +0.000 A 
ATOM     18  C   UNL     1       1.975   7.643  19.758  0.00  0.00    +0.000 A 
ATOM     19  C   UNL     1       1.591   8.905  20.226  0.00  0.00    +0.000 A 
BRANCH  17  20
ATOM     20  C   UNL     1       2.634   6.094  17.930  0.00  0.00    +0.000 C 
ATOM     21  O   UNL     1       1.747   5.242  17.998  0.00  0.00    +0.000 OA
ATOM     22  N   UNL     1       3.899   5.815  17.387  0.00  0.00    +0.000 N 
ATOM     23  C   UNL     1       4.185   4.458  16.900  0.00  0.00    +0.000 C 
ATOM     24  C   UNL     1       5.424   3.855  17.534  0.00  0.00    +0.000 C 
ATOM     25  S   UNL     1       6.825   4.935  17.399  0.00  0.00    +0.000 S 
ATOM     26  O   UNL     1       7.806   4.530  18.390  0.00  0.00    +0.000 OA
ATOM     27  O   UNL     1       7.198   5.037  16.000  0.00  0.00    +0.000 OA
ATOM     28  C   UNL     1       6.173   6.511  17.902  0.00  0.00    +0.000 C 
ATOM     29  C   UNL     1       4.940   6.803  17.077  0.00  0.00    +0.000 C 
ENDBRANCH  17  20
ENDBRANCH  10  14
BRANCH   2  30
ATOM     30  C   UNL     1      -5.233  10.874  17.350  0.00  0.00    +0.000 C 
ATOM     31  C   UNL     1      -6.461  10.920  18.228  0.00  0.00    +0.000 C 
ATOM     32  C   UNL     1      -6.141  12.077  17.322  0.00  0.00    +0.000 C 
ENDBRANCH   2  30
TORSDOF 3
ENDMDL
MODEL 7
REMARK VINA RESULT:      -8.6      3.542      9.167
REMARK  Name = 
REMARK  3 active torsions:
REMARK  status: ('A' for Active; 'I' for Inactive)
REMARK    1  A    between atoms: C_2  and  C_29
REMARK    2  A    between atoms: C_10  and  C_11
REMARK    3  A    between atoms: C_14  and  C_15
REMARK                            x       y       z     vdW  Elec       q    Type
REMARK                         _______ _______ _______ _____ _____    ______ ____
ROOT
ATOM      1  O   UNL     1       2.081  14.015  18.331  0.00  0.00    +0.000 OA
ATOM      2  C   UNL     1       2.086  15.003  19.052  0.00  0.00    +0.000 C 
ATOM      3  N   UNL     1       1.493  15.133  20.284  0.00  0.00    +0.000 N 
ATOM      4  C   UNL     1       0.865  14.105  20.926  0.00  0.00    +0.000 A 
ATOM      5  N   UNL     1       0.016  14.389  21.960  0.00  0.00    +0.000 NA
ATOM      6  C   UNL     1      -0.473  13.212  22.275  0.00  0.00    +0.000 A 
ATOM      7  C   UNL     1      -1.476  12.797  23.195  0.00  0.00    +0.000 A 
ATOM      8  C   UNL     1      -1.779  11.489  23.308  0.00  0.00    +0.000 A 
ATOM      9  C   UNL     1      -1.081  10.472  22.533  0.00  0.00    +0.000 A 
ATOM     10  C   UNL     1      -0.132  10.853  21.650  0.00  0.00    +0.000 A 
ATOM     11  N   UNL     1       0.148  12.220  21.506  0.00  0.00    +0.000 N 
ATOM     12  N   UNL     1       0.998  12.816  20.648  0.00  0.00    +0.000 NA
ATOM     13  H   UNL     1       1.374  16.034  20.714  0.00  0.00    +0.000 HD
ENDROOT
BRANCH  10  14
ATOM     14  C   UNL     1       0.594   9.862  20.844  0.00  0.00    +0.000 A 
ATOM     15  C   UNL     1       0.739  10.058  19.467  0.00  0.00    +0.000 A 
ATOM     16  C   UNL     1       1.474   9.152  18.702  0.00  0.00    +0.000 A 
ATOM     17  C   UNL     1       2.000   7.994  19.286  0.00  0.00    +0.000 A 
ATOM     18  C   UNL     1       1.911   7.830  20.673  0.00  0.00    +0.000 A 
ATOM     19  C   UNL     1       1.214   8.762  21.450  0.00  0.00    +0.000 A 
BRANCH  17  20
ATOM     20  C   UNL     1       2.672   6.939  18.482  0.00  0.00    +0.000 C 
ATOM     21  O   UNL     1       3.307   7.293  17.488  0.00  0.00    +0.000 OA
ATOM     22  N   UNL     1       2.602   5.594  18.884  0.00  0.00    +0.000 N 
ATOM     23  C   UNL     1       3.290   4.572  18.085  0.00  0.00    +0.000 C 
ATOM     24  C   UNL     1       2.367   3.452  17.641  0.00  0.00    +0.000 C 
ATOM     25  S   UNL     1       1.471   2.759  19.008  0.00  0.00    +0.000 S 
ATOM     26  O   UNL     1       0.316   2.054  18.480  0.00  0.00    +0.000 OA
ATOM     27  O   UNL     1       2.409   2.075  19.877  0.00  0.00    +0.000 OA
ATOM     28  C   UNL     1       0.876   4.194  19.873  0.00  0.00    +0.000 C 
ATOM     29  C   UNL     1       2.050   5.104  20.153  0.00  0.00    +0.000 C 
ENDBRANCH  17  20
ENDBRANCH  10  14
BRANCH   2  30
ATOM     30  C   UNL     1       2.747  16.228  18.510  0.00  0.00    +0.000 C 
ATOM     31  C   UNL     1       4.247  16.278  18.339  0.00  0.00    +0.000 C 
ATOM     32  C   UNL     1       3.350  16.359  17.135  0.00  0.00    +0.000 C 
ENDBRANCH   2  30
TORSDOF 3
ENDMDL
MODEL 8
REMARK VINA RESULT:      -8.5      3.815      8.989
REMARK  Name = 
REMARK  3 active torsions:
REMARK  status: ('A' for Active; 'I' for Inactive)
REMARK    1  A    between atoms: C_2  and  C_29
REMARK    2  A    between atoms: C_10  and  C_11
REMARK    3  A    between atoms: C_14  and  C_15
REMARK                            x       y       z     vdW  Elec       q    Type
REMARK                         _______ _______ _______ _____ _____    ______ ____
ROOT
ATOM      1  O   UNL     1      -2.389   9.287  15.746  0.00  0.00    +0.000 OA
ATOM      2  C   UNL     1      -3.010  10.337  15.656  0.00  0.00    +0.000 C 
ATOM      3  N   UNL     1      -3.079  11.342  16.589  0.00  0.00    +0.000 N 
ATOM      4  C   UNL     1      -2.365  11.334  17.753  0.00  0.00    +0.000 A 
ATOM      5  N   UNL     1      -2.740  12.173  18.766  0.00  0.00    +0.000 NA
ATOM      6  C   UNL     1      -1.922  11.847  19.740  0.00  0.00    +0.000 A 
ATOM      7  C   UNL     1      -1.826  12.257  21.100  0.00  0.00    +0.000 A 
ATOM      8  C   UNL     1      -0.863  11.740  21.887  0.00  0.00    +0.000 A 
ATOM      9  C   UNL     1       0.114  10.788  21.375  0.00  0.00    +0.000 A 
ATOM     10  C   UNL     1       0.029  10.384  20.090  0.00  0.00    +0.000 A 
ATOM     11  N   UNL     1      -1.003  10.893  19.288  0.00  0.00    +0.000 N 
ATOM     12  N   UNL     1      -1.307  10.579  18.013  0.00  0.00    +0.000 NA
ATOM     13  H   UNL     1      -3.767  12.072  16.522  0.00  0.00    +0.000 HD
ENDROOT
BRANCH  10  14
ATOM     14  C   UNL     1       0.989   9.422  19.533  0.00  0.00    +0.000 A 
ATOM     15  C   UNL     1       1.386   8.315  20.292  0.00  0.00    +0.000 A 
ATOM     16  C   UNL     1       2.254   7.367  19.751  0.00  0.00    +0.000 A 
ATOM     17  C   UNL     1       2.806   7.555  18.479  0.00  0.00    +0.000 A 
ATOM     18  C   UNL     1       2.361   8.625  17.694  0.00  0.00    +0.000 A 
ATOM     19  C   UNL     1       1.454   9.553  18.218  0.00  0.00    +0.000 A 
BRANCH  17  20
ATOM     20  C   UNL     1       3.836   6.639  17.922  0.00  0.00    +0.000 C 
ATOM     21  O   UNL     1       4.449   7.007  16.919  0.00  0.00    +0.000 OA
ATOM     22  N   UNL     1       4.108   5.415  18.556  0.00  0.00    +0.000 N 
ATOM     23  C   UNL     1       5.143   4.534  17.998  0.00  0.00    +0.000 C 
ATOM     24  C   UNL     1       4.632   3.134  17.712  0.00  0.00    +0.000 C 
ATOM     25  S   UNL     1       3.826   2.426  19.125  0.00  0.00    +0.000 S 
ATOM     26  O   UNL     1       2.985   1.334  18.666  0.00  0.00    +0.000 OA
ATOM     27  O   UNL     1       4.818   2.200  20.159  0.00  0.00    +0.000 OA
ATOM     28  C   UNL     1       2.754   3.733  19.678  0.00  0.00    +0.000 C 
ATOM     29  C   UNL     1       3.583   4.985  19.858  0.00  0.00    +0.000 C 
ENDBRANCH  17  20
ENDBRANCH  10  14
BRANCH   2  30
ATOM     30  C   UNL     1      -3.844  10.522  14.430  0.00  0.00    +0.000 C 
ATOM     31  C   UNL     1      -3.371   9.997  13.095  0.00  0.00    +0.000 C 
ATOM     32  C   UNL     1      -4.615   9.435  13.725  0.00  0.00    +0.000 C 
ENDBRANCH   2  30
TORSDOF 3
ENDMDL
MODEL 9
REMARK VINA RESULT:      -8.5      3.493      8.803
REMARK  Name = 
REMARK  3 active torsions:
REMARK  status: ('A' for Active; 'I' for Inactive)
REMARK    1  A    between atoms: C_2  and  C_29
REMARK    2  A    between atoms: C_10  and  C_11
REMARK    3  A    between atoms: C_14  and  C_15
REMARK                            x       y       z     vdW  Elec       q    Type
REMARK                         _______ _______ _______ _____ _____    ______ ____
ROOT
ATOM      1  O   UNL     1      -2.292   9.259  16.360  0.00  0.00    +0.000 OA
ATOM      2  C   UNL     1      -2.659  10.411  16.173  0.00  0.00    +0.000 C 
ATOM      3  N   UNL     1      -2.584  11.458  17.059  0.00  0.00    +0.000 N 
ATOM      4  C   UNL     1      -1.988  11.364  18.283  0.00  0.00    +0.000 A 
ATOM      5  N   UNL     1      -2.253  12.319  19.225  0.00  0.00    +0.000 NA
ATOM      6  C   UNL     1      -1.609  11.881  20.283  0.00  0.00    +0.000 A 
ATOM      7  C   UNL     1      -1.539  12.336  21.629  0.00  0.00    +0.000 A 
ATOM      8  C   UNL     1      -0.780  11.670  22.521  0.00  0.00    +0.000 A 
ATOM      9  C   UNL     1       0.004  10.504  22.138  0.00  0.00    +0.000 A 
ATOM     10  C   UNL     1      -0.060  10.056  20.866  0.00  0.00    +0.000 A 
ATOM     11  N   UNL     1      -0.886  10.728  19.953  0.00  0.00    +0.000 N 
ATOM     12  N   UNL     1      -1.145  10.415  18.668  0.00  0.00    +0.000 NA
ATOM     13  H   UNL     1      -3.088  12.314  16.900  0.00  0.00    +0.000 HD
ENDROOT
BRANCH  10  14
ATOM     14  C   UNL     1       0.710   8.880  20.437  0.00  0.00    +0.000 A 
ATOM     15  C   UNL     1       1.458   8.932  19.256  0.00  0.00    +0.000 A 
ATOM     16  C   UNL     1       2.236   7.840  18.869  0.00  0.00    +0.000 A 
ATOM     17  C   UNL     1       2.209   6.653  19.609  0.00  0.00    +0.000 A 
ATOM     18  C   UNL     1       1.514   6.622  20.823  0.00  0.00    +0.000 A 
ATOM     19  C   UNL     1       0.769   7.733  21.237  0.00  0.00    +0.000 A 
BRANCH  17  20
ATOM     20  C   UNL     1       2.918   5.425  19.159  0.00  0.00    +0.000 C 
ATOM     21  O   UNL     1       2.682   4.375  19.757  0.00  0.00    +0.000 OA
ATOM     22  N   UNL     1       3.794   5.480  18.062  0.00  0.00    +0.000 N 
ATOM     23  C   UNL     1       4.469   4.251  17.623  0.00  0.00    +0.000 C 
ATOM     24  C   UNL     1       5.978   4.396  17.567  0.00  0.00    +0.000 C 
ATOM     25  S   UNL     1       6.467   5.815  16.620  0.00  0.00    +0.000 S 
ATOM     26  O   UNL     1       7.833   6.152  16.984  0.00  0.00    +0.000 OA
ATOM     27  O   UNL     1       6.115   5.590  15.232  0.00  0.00    +0.000 OA
ATOM     28  C   UNL     1       5.412   7.103  17.246  0.00  0.00    +0.000 C 
ATOM     29  C   UNL     1       3.979   6.628  17.165  0.00  0.00    +0.000 C 
ENDBRANCH  17  20
ENDBRANCH  10  14
BRANCH   2  30
ATOM     30  C   UNL     1      -3.328  10.701  14.869  0.00  0.00    +0.000 C 
ATOM     31  C   UNL     1      -2.878  10.006  13.606  0.00  0.00    +0.000 C 
ATOM     32  C   UNL     1      -4.263   9.770  14.141  0.00  0.00    +0.000 C 
ENDBRANCH   2  30
TORSDOF 3
ENDMDL
