MODEL 1
REMARK VINA RESULT:      -8.2      0.000      0.000
REMARK  Name = 
REMARK  2 active torsions:
REMARK  status: ('A' for Active; 'I' for Inactive)
REMARK    1  A    between atoms: C_2  and  C_11
REMARK    2  A    between atoms: N_3  and  C_4
REMARK                            x       y       z     vdW  Elec       q    Type
REMARK                         _______ _______ _______ _____ _____    ______ ____
ROOT
ATOM      1  O   UNL     1       6.022   4.070  18.828  0.00  0.00    +0.000 OA
ATOM      2  C   UNL     1       5.304   4.311  17.862  0.00  0.00    +0.000 C 
ATOM      3  N   UNL     1       3.929   4.186  17.829  0.00  0.00    +0.000 N 
ATOM      4  H   UNL     1       3.464   4.217  16.932  0.00  0.00    +0.000 HD
ENDROOT
BRANCH   2   5
ATOM      5  C   UNL     1       5.969   4.718  16.576  0.00  0.00    +0.000 A 
ATOM      6  C   UNL     1       7.003   5.564  16.504  0.00  0.00    +0.000 A 
ATOM      7  O   UNL     1       7.677   5.857  15.303  0.00  0.00    +0.000 OA
ATOM      8  C   UNL     1       7.341   5.226  14.126  0.00  0.00    +0.000 A 
ATOM      9  O   UNL     1       7.963   5.449  13.093  0.00  0.00    +0.000 OA
ATOM     10  C   UNL     1       6.190   4.283  14.186  0.00  0.00    +0.000 A 
ATOM     11 BR   UNL     1       5.672   3.399  12.624  0.00  0.00    +0.000 Br
ATOM     12  C   UNL     1       5.555   4.074  15.348  0.00  0.00    +0.000 A 
ENDBRANCH   2   5
BRANCH   3  13
ATOM     13  C   UNL     1       3.113   3.849  18.937  0.00  0.00    +0.000 A 
ATOM     14  C   UNL     1       2.927   4.696  20.037  0.00  0.00    +0.000 A 
ATOM     15  C   UNL     1       2.158   4.292  21.129  0.00  0.00    +0.000 A 
ATOM     16  C   UNL     1       1.559   3.042  21.117  0.00  0.00    +0.000 A 
ATOM     17  F   UNL     1       0.840   2.643  22.174  0.00  0.00    +0.000 F 
ATOM     18  C   UNL     1       1.696   2.199  20.020  0.00  0.00    +0.000 A 
ATOM     19  C   UNL     1       2.464   2.606  18.924  0.00  0.00    +0.000 A 
ENDBRANCH   3  13
TORSDOF 2
ENDMDL
MODEL 2
REMARK VINA RESULT:      -7.9      0.249      1.162
REMARK  Name = 
REMARK  2 active torsions:
REMARK  status: ('A' for Active; 'I' for Inactive)
REMARK    1  A    between atoms: C_2  and  C_11
REMARK    2  A    between atoms: N_3  and  C_4
REMARK                            x       y       z     vdW  Elec       q    Type
REMARK                         _______ _______ _______ _____ _____    ______ ____
ROOT
ATOM      1  O   UNL     1       6.115   4.168  18.652  0.00  0.00    +0.000 OA
ATOM      2  C   UNL     1       5.399   4.296  17.663  0.00  0.00    +0.000 C 
ATOM      3  N   UNL     1       4.043   4.044  17.612  0.00  0.00    +0.000 N 
ATOM      4  H   UNL     1       3.597   3.989  16.706  0.00  0.00    +0.000 HD
ENDROOT
BRANCH   2   5
ATOM      5  C   UNL     1       6.054   4.701  16.371  0.00  0.00    +0.000 A 
ATOM      6  C   UNL     1       7.078   5.557  16.288  0.00  0.00    +0.000 A 
ATOM      7  O   UNL     1       7.743   5.849  15.081  0.00  0.00    +0.000 OA
ATOM      8  C   UNL     1       7.408   5.206  13.911  0.00  0.00    +0.000 A 
ATOM      9  O   UNL     1       8.022   5.428  12.872  0.00  0.00    +0.000 OA
ATOM     10  C   UNL     1       6.268   4.250  13.984  0.00  0.00    +0.000 A 
ATOM     11 BR   UNL     1       5.751   3.349  12.430  0.00  0.00    +0.000 Br
ATOM     12  C   UNL     1       5.640   4.044  15.149  0.00  0.00    +0.000 A 
ENDBRANCH   2   5
BRANCH   3  13
ATOM     13  C   UNL     1       3.236   3.687  18.720  0.00  0.00    +0.000 A 
ATOM     14  C   UNL     1       2.610   2.441  18.842  0.00  0.00    +0.000 A 
ATOM     15  C   UNL     1       1.778   2.160  19.927  0.00  0.00    +0.000 A 
ATOM     16  C   UNL     1       1.583   3.124  20.904  0.00  0.00    +0.000 A 
ATOM     17  F   UNL     1       0.768   2.865  21.934  0.00  0.00    +0.000 F 
ATOM     18  C   UNL     1       2.224   4.355  20.826  0.00  0.00    +0.000 A 
ATOM     19  C   UNL     1       3.060   4.634  19.739  0.00  0.00    +0.000 A 
ENDBRANCH   3  13
TORSDOF 2
ENDMDL
MODEL 3
REMARK VINA RESULT:      -7.8      1.210      1.435
REMARK  Name = 
REMARK  2 active torsions:
REMARK  status: ('A' for Active; 'I' for Inactive)
REMARK    1  A    between atoms: C_2  and  C_11
REMARK    2  A    between atoms: N_3  and  C_4
REMARK                            x       y       z     vdW  Elec       q    Type
REMARK                         _______ _______ _______ _____ _____    ______ ____
ROOT
ATOM      1  O   UNL     1       3.257   3.362  16.668  0.00  0.00    +0.000 OA
ATOM      2  C   UNL     1       4.194   3.986  17.156  0.00  0.00    +0.000 C 
ATOM      3  N   UNL     1       4.344   4.299  18.493  0.00  0.00    +0.000 N 
ATOM      4  H   UNL     1       5.042   4.982  18.752  0.00  0.00    +0.000 HD
ENDROOT
BRANCH   2   5
ATOM      5  C   UNL     1       5.246   4.519  16.223  0.00  0.00    +0.000 A 
ATOM      6  C   UNL     1       6.202   5.381  16.588  0.00  0.00    +0.000 A 
ATOM      7  O   UNL     1       7.238   5.792  15.727  0.00  0.00    +0.000 OA
ATOM      8  C   UNL     1       7.361   5.268  14.460  0.00  0.00    +0.000 A 
ATOM      9  O   UNL     1       8.293   5.593  13.732  0.00  0.00    +0.000 OA
ATOM     10  C   UNL     1       6.304   4.307  14.036  0.00  0.00    +0.000 A 
ATOM     11 BR   UNL     1       6.402   3.563  12.325  0.00  0.00    +0.000 Br
ATOM     12  C   UNL     1       5.315   3.985  14.880  0.00  0.00    +0.000 A 
ENDBRANCH   2   5
BRANCH   3  13
ATOM     13  C   UNL     1       3.486   3.866  19.534  0.00  0.00    +0.000 A 
ATOM     14  C   UNL     1       3.779   2.777  20.365  0.00  0.00    +0.000 A 
ATOM     15  C   UNL     1       2.872   2.356  21.340  0.00  0.00    +0.000 A 
ATOM     16  C   UNL     1       1.674   3.035  21.495  0.00  0.00    +0.000 A 
ATOM     17  F   UNL     1       0.793   2.619  22.413  0.00  0.00    +0.000 F 
ATOM     18  C   UNL     1       1.376   4.142  20.709  0.00  0.00    +0.000 A 
ATOM     19  C   UNL     1       2.288   4.565  19.734  0.00  0.00    +0.000 A 
ENDBRANCH   3  13
TORSDOF 2
ENDMDL
MODEL 4
REMARK VINA RESULT:      -7.7      1.267      1.306
REMARK  Name = 
REMARK  2 active torsions:
REMARK  status: ('A' for Active; 'I' for Inactive)
REMARK    1  A    between atoms: C_2  and  C_11
REMARK    2  A    between atoms: N_3  and  C_4
REMARK                            x       y       z     vdW  Elec       q    Type
REMARK                         _______ _______ _______ _____ _____    ______ ____
ROOT
ATOM      1  O   UNL     1       3.127   3.371  16.545  0.00  0.00    +0.000 OA
ATOM      2  C   UNL     1       4.054   3.974  17.078  0.00  0.00    +0.000 C 
ATOM      3  N   UNL     1       4.159   4.263  18.424  0.00  0.00    +0.000 N 
ATOM      4  H   UNL     1       4.857   4.933  18.720  0.00  0.00    +0.000 HD
ENDROOT
BRANCH   2   5
ATOM      5  C   UNL     1       5.147   4.507  16.192  0.00  0.00    +0.000 A 
ATOM      6  C   UNL     1       6.096   5.354  16.604  0.00  0.00    +0.000 A 
ATOM      7  O   UNL     1       7.169   5.765  15.789  0.00  0.00    +0.000 OA
ATOM      8  C   UNL     1       7.336   5.254  14.521  0.00  0.00    +0.000 A 
ATOM      9  O   UNL     1       8.298   5.577  13.833  0.00  0.00    +0.000 OA
ATOM     10  C   UNL     1       6.287   4.309  14.045  0.00  0.00    +0.000 A 
ATOM     11 BR   UNL     1       6.443   3.585  12.330  0.00  0.00    +0.000 Br
ATOM     12  C   UNL     1       5.262   3.988  14.846  0.00  0.00    +0.000 A 
ENDBRANCH   2   5
BRANCH   3  13
ATOM     13  C   UNL     1       3.258   3.826  19.425  0.00  0.00    +0.000 A 
ATOM     14  C   UNL     1       1.971   4.354  19.582  0.00  0.00    +0.000 A 
ATOM     15  C   UNL     1       1.143   3.928  20.622  0.00  0.00    +0.000 A 
ATOM     16  C   UNL     1       1.598   2.959  21.502  0.00  0.00    +0.000 A 
ATOM     17  F   UNL     1       0.815   2.566  22.514  0.00  0.00    +0.000 F 
ATOM     18  C   UNL     1       2.857   2.391  21.346  0.00  0.00    +0.000 A 
ATOM     19  C   UNL     1       3.684   2.816  20.300  0.00  0.00    +0.000 A 
ENDBRANCH   3  13
TORSDOF 2
ENDMDL
MODEL 5
REMARK VINA RESULT:      -6.8      4.137      4.896
REMARK  Name = 
REMARK  2 active torsions:
REMARK  status: ('A' for Active; 'I' for Inactive)
REMARK    1  A    between atoms: C_2  and  C_11
REMARK    2  A    between atoms: N_3  and  C_4
REMARK                            x       y       z     vdW  Elec       q    Type
REMARK                         _______ _______ _______ _____ _____    ______ ____
ROOT
ATOM      1  O   UNL     1       2.272   5.707  18.217  0.00  0.00    +0.000 OA
ATOM      2  C   UNL     1       3.217   6.490  18.241  0.00  0.00    +0.000 C 
ATOM      3  N   UNL     1       3.127   7.854  18.439  0.00  0.00    +0.000 N 
ATOM      4  H   UNL     1       3.939   8.423  18.241  0.00  0.00    +0.000 HD
ENDROOT
BRANCH   2   5
ATOM      5  C   UNL     1       4.591   5.942  17.971  0.00  0.00    +0.000 A 
ATOM      6  C   UNL     1       5.439   5.546  18.927  0.00  0.00    +0.000 A 
ATOM      7  O   UNL     1       6.682   4.943  18.653  0.00  0.00    +0.000 OA
ATOM      8  C   UNL     1       7.069   4.666  17.361  0.00  0.00    +0.000 A 
ATOM      9  O   UNL     1       8.131   4.097  17.131  0.00  0.00    +0.000 OA
ATOM     10  C   UNL     1       6.138   5.101  16.283  0.00  0.00    +0.000 A 
ATOM     11 BR   UNL     1       6.604   4.766  14.505  0.00  0.00    +0.000 Br
ATOM     12  C   UNL     1       4.987   5.712  16.598  0.00  0.00    +0.000 A 
ENDBRANCH   2   5
BRANCH   3  13
ATOM     13  C   UNL     1       1.937   8.559  18.741  0.00  0.00    +0.000 A 
ATOM     14  C   UNL     1       1.186   9.244  17.777  0.00  0.00    +0.000 A 
ATOM     15  C   UNL     1       0.051   9.971  18.138  0.00  0.00    +0.000 A 
ATOM     16  C   UNL     1      -0.346  10.003  19.466  0.00  0.00    +0.000 A 
ATOM     17  F   UNL     1      -1.421  10.719  19.818  0.00  0.00    +0.000 F 
ATOM     18  C   UNL     1       0.360   9.300  20.436  0.00  0.00    +0.000 A 
ATOM     19  C   UNL     1       1.496   8.568  20.072  0.00  0.00    +0.000 A 
ENDBRANCH   3  13
TORSDOF 2
ENDMDL
MODEL 6
REMARK VINA RESULT:      -6.7      5.356      6.913
REMARK  Name = 
REMARK  2 active torsions:
REMARK  status: ('A' for Active; 'I' for Inactive)
REMARK    1  A    between atoms: C_2  and  C_11
REMARK    2  A    between atoms: N_3  and  C_4
REMARK                            x       y       z     vdW  Elec       q    Type
REMARK                         _______ _______ _______ _____ _____    ______ ____
ROOT
ATOM      1  O   UNL     1       3.597   6.978  17.976  0.00  0.00    +0.000 OA
ATOM      2  C   UNL     1       2.619   6.898  18.714  0.00  0.00    +0.000 C 
ATOM      3  N   UNL     1       2.034   5.726  19.150  0.00  0.00    +0.000 N 
ATOM      4  H   UNL     1       1.122   5.777  19.586  0.00  0.00    +0.000 HD
ENDROOT
BRANCH   2   5
ATOM      5  C   UNL     1       1.953   8.177  19.138  0.00  0.00    +0.000 A 
ATOM      6  C   UNL     1       1.661   9.181  18.303  0.00  0.00    +0.000 A 
ATOM      7  O   UNL     1       0.948  10.329  18.698  0.00  0.00    +0.000 OA
ATOM      8  C   UNL     1       0.447  10.452  19.975  0.00  0.00    +0.000 A 
ATOM      9  O   UNL     1      -0.215  11.432  20.300  0.00  0.00    +0.000 OA
ATOM     10  C   UNL     1       0.764   9.344  20.919  0.00  0.00    +0.000 A 
ATOM     11 BR   UNL     1       0.125   9.450  22.672  0.00  0.00    +0.000 Br
ATOM     12  C   UNL     1       1.485   8.295  20.503  0.00  0.00    +0.000 A 
ENDBRANCH   2   5
BRANCH   3  13
ATOM     13  C   UNL     1       2.524   4.423  18.892  0.00  0.00    +0.000 A 
ATOM     14  C   UNL     1       1.989   3.583  17.907  0.00  0.00    +0.000 A 
ATOM     15  C   UNL     1       2.472   2.285  17.732  0.00  0.00    +0.000 A 
ATOM     16  C   UNL     1       3.505   1.828  18.536  0.00  0.00    +0.000 A 
ATOM     17  F   UNL     1       3.954   0.576  18.385  0.00  0.00    +0.000 F 
ATOM     18  C   UNL     1       4.080   2.655  19.494  0.00  0.00    +0.000 A 
ATOM     19  C   UNL     1       3.596   3.957  19.666  0.00  0.00    +0.000 A 
ENDBRANCH   3  13
TORSDOF 2
ENDMDL
MODEL 7
REMARK VINA RESULT:      -6.6      5.351      6.732
REMARK  Name = 
REMARK  2 active torsions:
REMARK  status: ('A' for Active; 'I' for Inactive)
REMARK    1  A    between atoms: C_2  and  C_11
REMARK    2  A    between atoms: N_3  and  C_4
REMARK                            x       y       z     vdW  Elec       q    Type
REMARK                         _______ _______ _______ _____ _____    ______ ____
ROOT
ATOM      1  O   UNL     1       3.528   6.901  17.646  0.00  0.00    +0.000 OA
ATOM      2  C   UNL     1       2.665   6.909  18.520  0.00  0.00    +0.000 C 
ATOM      3  N   UNL     1       2.158   5.796  19.160  0.00  0.00    +0.000 N 
ATOM      4  H   UNL     1       1.317   5.900  19.713  0.00  0.00    +0.000 HD
ENDROOT
BRANCH   2   5
ATOM      5  C   UNL     1       2.054   8.231  18.892  0.00  0.00    +0.000 A 
ATOM      6  C   UNL     1       1.895   9.248  18.038  0.00  0.00    +0.000 A 
ATOM      7  O   UNL     1       1.232  10.443  18.377  0.00  0.00    +0.000 OA
ATOM      8  C   UNL     1       0.643  10.604  19.611  0.00  0.00    +0.000 A 
ATOM      9  O   UNL     1       0.024  11.628  19.884  0.00  0.00    +0.000 OA
ATOM     10  C   UNL     1       0.811   9.483  20.576  0.00  0.00    +0.000 A 
ATOM     11 BR   UNL     1       0.046   9.638  22.274  0.00  0.00    +0.000 Br
ATOM     12  C   UNL     1       1.491   8.386  20.217  0.00  0.00    +0.000 A 
ENDBRANCH   2   5
BRANCH   3  13
ATOM     13  C   UNL     1       2.618   4.469  18.980  0.00  0.00    +0.000 A 
ATOM     14  C   UNL     1       3.697   3.928  19.691  0.00  0.00    +0.000 A 
ATOM     15  C   UNL     1       4.147   2.632  19.434  0.00  0.00    +0.000 A 
ATOM     16  C   UNL     1       3.507   1.866  18.472  0.00  0.00    +0.000 A 
ATOM     17  F   UNL     1       3.952   0.631  18.207  0.00  0.00    +0.000 F 
ATOM     18  C   UNL     1       2.410   2.365  17.780  0.00  0.00    +0.000 A 
ATOM     19  C   UNL     1       1.958   3.663  18.041  0.00  0.00    +0.000 A 
ENDBRANCH   3  13
TORSDOF 2
ENDMDL
MODEL 8
REMARK VINA RESULT:      -6.5      4.220      7.326
REMARK  Name = 
REMARK  2 active torsions:
REMARK  status: ('A' for Active; 'I' for Inactive)
REMARK    1  A    between atoms: C_2  and  C_11
REMARK    2  A    between atoms: N_3  and  C_4
REMARK                            x       y       z     vdW  Elec       q    Type
REMARK                         _______ _______ _______ _____ _____    ______ ____
ROOT
ATOM      1  O   UNL     1       4.565   5.513  16.399  0.00  0.00    +0.000 OA
ATOM      2  C   UNL     1       4.937   4.372  16.658  0.00  0.00    +0.000 C 
ATOM      3  N   UNL     1       5.701   3.569  15.835  0.00  0.00    +0.000 N 
ATOM      4  H   UNL     1       5.779   2.585  16.059  0.00  0.00    +0.000 HD
ENDROOT
BRANCH   2   5
ATOM      5  C   UNL     1       4.475   3.759  17.951  0.00  0.00    +0.000 A 
ATOM      6  C   UNL     1       5.259   3.594  19.022  0.00  0.00    +0.000 A 
ATOM      7  O   UNL     1       4.785   3.110  20.257  0.00  0.00    +0.000 OA
ATOM      8  C   UNL     1       3.450   2.835  20.448  0.00  0.00    +0.000 A 
ATOM      9  O   UNL     1       3.034   2.460  21.540  0.00  0.00    +0.000 OA
ATOM     10  C   UNL     1       2.562   3.011  19.266  0.00  0.00    +0.000 A 
ATOM     11 BR   UNL     1       0.738   2.647  19.450  0.00  0.00    +0.000 Br
ATOM     12  C   UNL     1       3.073   3.432  18.101  0.00  0.00    +0.000 A 
ENDBRANCH   2   5
BRANCH   3  13
ATOM     13  C   UNL     1       6.262   3.967  14.597  0.00  0.00    +0.000 A 
ATOM     14  C   UNL     1       7.284   4.918  14.489  0.00  0.00    +0.000 A 
ATOM     15  C   UNL     1       7.763   5.317  13.240  0.00  0.00    +0.000 A 
ATOM     16  C   UNL     1       7.228   4.751  12.093  0.00  0.00    +0.000 A 
ATOM     17  F   UNL     1       7.669   5.149  10.893  0.00  0.00    +0.000 F 
ATOM     18  C   UNL     1       6.240   3.776  12.174  0.00  0.00    +0.000 A 
ATOM     19  C   UNL     1       5.764   3.375  13.428  0.00  0.00    +0.000 A 
ENDBRANCH   3  13
TORSDOF 2
ENDMDL
MODEL 9
REMARK VINA RESULT:      -6.5      4.456      5.183
REMARK  Name = 
REMARK  2 active torsions:
REMARK  status: ('A' for Active; 'I' for Inactive)
REMARK    1  A    between atoms: C_2  and  C_11
REMARK    2  A    between atoms: N_3  and  C_4
REMARK                            x       y       z     vdW  Elec       q    Type
REMARK                         _______ _______ _______ _____ _____    ______ ____
ROOT
ATOM      1  O   UNL     1       1.975   5.592  18.002  0.00  0.00    +0.000 OA
ATOM      2  C   UNL     1       2.999   6.264  18.095  0.00  0.00    +0.000 C 
ATOM      3  N   UNL     1       3.055   7.603  18.424  0.00  0.00    +0.000 N 
ATOM      4  H   UNL     1       3.924   8.099  18.276  0.00  0.00    +0.000 HD
ENDROOT
BRANCH   2   5
ATOM      5  C   UNL     1       4.307   5.600  17.763  0.00  0.00    +0.000 A 
ATOM      6  C   UNL     1       4.532   4.913  16.638  0.00  0.00    +0.000 A 
ATOM      7  O   UNL     1       5.792   4.383  16.298  0.00  0.00    +0.000 OA
ATOM      8  C   UNL     1       6.895   4.605  17.091  0.00  0.00    +0.000 A 
ATOM      9  O   UNL     1       8.000   4.183  16.766  0.00  0.00    +0.000 OA
ATOM     10  C   UNL     1       6.663   5.368  18.349  0.00  0.00    +0.000 A 
ATOM     11 BR   UNL     1       8.114   5.698  19.479  0.00  0.00    +0.000 Br
ATOM     12  C   UNL     1       5.434   5.811  18.647  0.00  0.00    +0.000 A 
ENDBRANCH   2   5
BRANCH   3  13
ATOM     13  C   UNL     1       1.946   8.399  18.802  0.00  0.00    +0.000 A 
ATOM     14  C   UNL     1       1.245   9.213  17.904  0.00  0.00    +0.000 A 
ATOM     15  C   UNL     1       0.195  10.022  18.340  0.00  0.00    +0.000 A 
ATOM     16  C   UNL     1      -0.168  10.006  19.678  0.00  0.00    +0.000 A 
ATOM     17  F   UNL     1      -1.160  10.799  20.102  0.00  0.00    +0.000 F 
ATOM     18  C   UNL     1       0.487   9.179  20.582  0.00  0.00    +0.000 A 
ATOM     19  C   UNL     1       1.537   8.366  20.143  0.00  0.00    +0.000 A 
ENDBRANCH   3  13
TORSDOF 2
ENDMDL
