MODEL 1
REMARK VINA RESULT:      -7.6      0.000      0.000
REMARK  Name = 
REMARK  14 active torsions:
REMARK  status: ('A' for Active; 'I' for Inactive)
REMARK    1  A    between atoms: C_1  and  O_2
REMARK    2  A    between atoms: O_2  and  C_3
REMARK    3  A    between atoms: C_6  and  C_7
REMARK    4  A    between atoms: C_8  and  C_9
REMARK    5  A    between atoms: C_9  and  O_11
REMARK    6  A    between atoms: O_11  and  C_12
REMARK    7  A    between atoms: C_12  and  C_13
REMARK    8  A    between atoms: N_15  and  C_16
REMARK    9  A    between atoms: N_15  and  C_17
REMARK   10  A    between atoms: C_18  and  N_19
REMARK   11  A    between atoms: N_20  and  C_21
REMARK   12  A    between atoms: C_21  and  C_22
REMARK   13  A    between atoms: C_34  and  O_35
REMARK   14  A    between atoms: O_35  and  C_36
REMARK                            x       y       z     vdW  Elec       q    Type
REMARK                         _______ _______ _______ _____ _____    ______ ____
ROOT
ATOM      1  C   UNL     1       0.421  12.192  20.350  0.00  0.00    +0.000 C 
ATOM      2  O   UNL     1       1.309  12.441  21.170  0.00  0.00    +0.000 OA
ATOM      3  N   UNL     1       0.185  13.010  19.241  0.00  0.00    +0.000 N 
ATOM      4  C   UNL     1      -0.804  12.726  18.194  0.00  0.00    +0.000 C 
ENDROOT
BRANCH   3   5
ATOM      5  C   UNL     1       1.042  14.126  19.037  0.00  0.00    +0.000 A 
ATOM      6  C   UNL     1       2.237  14.066  18.378  0.00  0.00    +0.000 A 
ATOM      7  N   UNL     1       2.935  15.245  18.084  0.00  0.00    +0.000 N 
ATOM      8  C   UNL     1       2.425  16.507  18.350  0.00  0.00    +0.000 A 
ATOM      9  O   UNL     1       2.965  17.564  18.032  0.00  0.00    +0.000 OA
ATOM     10  N   UNL     1       1.263  16.547  19.049  0.00  0.00    +0.000 N 
ATOM     11  C   UNL     1       0.601  15.470  19.541  0.00  0.00    +0.000 A 
ATOM     12  O   UNL     1      -0.324  15.636  20.331  0.00  0.00    +0.000 OA
ATOM     13  H   UNL     1       0.943  17.458  19.338  0.00  0.00    +0.000 HD
BRANCH   6  14
ATOM     14  N   UNL     1       2.773  12.833  17.993  0.00  0.00    +0.000 N 
ATOM     15  H   UNL     1       2.393  12.552  17.091  0.00  0.00    +0.000 HD
ATOM     16  H   UNL     1       3.783  12.863  17.894  0.00  0.00    +0.000 HD
ENDBRANCH   6  14
BRANCH   7  17
ATOM     17  C   UNL     1       4.239  15.223  17.413  0.00  0.00    +0.000 C 
BRANCH  17  18
ATOM     18  C   UNL     1       5.438  14.978  18.315  0.00  0.00    +0.000 A 
ATOM     19  C   UNL     1       6.650  14.572  17.728  0.00  0.00    +0.000 A 
ATOM     20  C   UNL     1       7.796  14.382  18.509  0.00  0.00    +0.000 A 
ATOM     21  C   UNL     1       7.752  14.609  19.880  0.00  0.00    +0.000 A 
ATOM     22  C   UNL     1       6.563  15.019  20.476  0.00  0.00    +0.000 A 
ATOM     23  C   UNL     1       5.414  15.201  19.698  0.00  0.00    +0.000 A 
ENDBRANCH  17  18
ENDBRANCH   7  17
ENDBRANCH   3   5
BRANCH   1  24
ATOM     24  C   UNL     1      -0.463  10.958  20.609  0.00  0.00    +0.000 C 
BRANCH  24  25
ATOM     25  O   UNL     1      -0.647  10.792  22.021  0.00  0.00    +0.000 OA
BRANCH  25  26
ATOM     26  C   UNL     1       0.005   9.743  22.575  0.00  0.00    +0.000 C 
ATOM     27  O   UNL     1       0.325   9.618  23.746  0.00  0.00    +0.000 OA
BRANCH  26  29
ATOM     28  C   UNL     1       1.470   8.275  21.306  0.00  0.00    +0.000 C 
ATOM     29  C   UNL     1       0.226   8.729  21.524  0.00  0.00    +0.000 C 
BRANCH  28  33
ATOM     30  C   UNL     1       2.695   5.372  18.384  0.00  0.00    +0.000 A 
ATOM     31  C   UNL     1       2.686   6.749  18.099  0.00  0.00    +0.000 A 
ATOM     32  C   UNL     1       2.284   7.686  19.055  0.00  0.00    +0.000 A 
ATOM     33  C   UNL     1       1.817   7.262  20.299  0.00  0.00    +0.000 A 
ATOM     34  C   UNL     1       1.754   5.891  20.552  0.00  0.00    +0.000 A 
ATOM     35  C   UNL     1       2.173   4.935  19.611  0.00  0.00    +0.000 A 
BRANCH  30  37
ATOM     36  C   UNL     1       4.591   4.182  17.629  0.00  0.00    +0.000 C 
ATOM     37  O   UNL     1       3.197   4.468  17.485  0.00  0.00    +0.000 OA
ENDBRANCH  30  37
BRANCH  35  38
ATOM     38  O   UNL     1       2.017   3.664  20.091  0.00  0.00    +0.000 OA
ATOM     39  C   UNL     1       0.882   2.900  19.724  0.00  0.00    +0.000 C 
ENDBRANCH  35  38
ENDBRANCH  28  33
ENDBRANCH  26  29
ENDBRANCH  25  26
ENDBRANCH  24  25
ENDBRANCH   1  24
TORSDOF 11
ENDMDL
MODEL 2
REMARK VINA RESULT:      -7.5      6.159     11.263
REMARK  Name = 
REMARK  14 active torsions:
REMARK  status: ('A' for Active; 'I' for Inactive)
REMARK    1  A    between atoms: C_1  and  O_2
REMARK    2  A    between atoms: O_2  and  C_3
REMARK    3  A    between atoms: C_6  and  C_7
REMARK    4  A    between atoms: C_8  and  C_9
REMARK    5  A    between atoms: C_9  and  O_11
REMARK    6  A    between atoms: O_11  and  C_12
REMARK    7  A    between atoms: C_12  and  C_13
REMARK    8  A    between atoms: N_15  and  C_16
REMARK    9  A    between atoms: N_15  and  C_17
REMARK   10  A    between atoms: C_18  and  N_19
REMARK   11  A    between atoms: N_20  and  C_21
REMARK   12  A    between atoms: C_21  and  C_22
REMARK   13  A    between atoms: C_34  and  O_35
REMARK   14  A    between atoms: O_35  and  C_36
REMARK                            x       y       z     vdW  Elec       q    Type
REMARK                         _______ _______ _______ _____ _____    ______ ____
ROOT
ATOM      1  C   UNL     1       7.759   7.567  17.982  0.00  0.00    +0.000 C 
ATOM      2  O   UNL     1       7.257   7.908  16.907  0.00  0.00    +0.000 OA
ATOM      3  N   UNL     1       7.401   6.376  18.622  0.00  0.00    +0.000 N 
ATOM      4  C   UNL     1       8.016   5.882  19.860  0.00  0.00    +0.000 C 
ENDROOT
BRANCH   3   5
ATOM      5  C   UNL     1       6.473   5.518  17.971  0.00  0.00    +0.000 A 
ATOM      6  C   UNL     1       5.117   5.605  18.112  0.00  0.00    +0.000 A 
ATOM      7  N   UNL     1       4.278   4.824  17.307  0.00  0.00    +0.000 N 
ATOM      8  C   UNL     1       4.754   4.016  16.285  0.00  0.00    +0.000 A 
ATOM      9  O   UNL     1       4.048   3.382  15.503  0.00  0.00    +0.000 OA
ATOM     10  N   UNL     1       6.103   3.902  16.192  0.00  0.00    +0.000 N 
ATOM     11  C   UNL     1       7.002   4.469  17.035  0.00  0.00    +0.000 A 
ATOM     12  O   UNL     1       8.182   4.132  16.979  0.00  0.00    +0.000 OA
ATOM     13  H   UNL     1       6.453   3.235  15.523  0.00  0.00    +0.000 HD
BRANCH   6  14
ATOM     14  N   UNL     1       4.558   6.469  19.059  0.00  0.00    +0.000 N 
ATOM     15  H   UNL     1       4.489   6.002  19.962  0.00  0.00    +0.000 HD
ATOM     16  H   UNL     1       5.116   7.305  19.199  0.00  0.00    +0.000 HD
ENDBRANCH   6  14
BRANCH   7  17
ATOM     17  C   UNL     1       2.819   4.858  17.452  0.00  0.00    +0.000 C 
BRANCH  17  18
ATOM     18  C   UNL     1       2.260   4.091  18.641  0.00  0.00    +0.000 A 
ATOM     19  C   UNL     1       2.220   2.687  18.576  0.00  0.00    +0.000 A 
ATOM     20  C   UNL     1       1.761   1.933  19.663  0.00  0.00    +0.000 A 
ATOM     21  C   UNL     1       1.350   2.568  20.831  0.00  0.00    +0.000 A 
ATOM     22  C   UNL     1       1.391   3.957  20.913  0.00  0.00    +0.000 A 
ATOM     23  C   UNL     1       1.840   4.712  19.825  0.00  0.00    +0.000 A 
ENDBRANCH  17  18
ENDBRANCH   7  17
ENDBRANCH   3   5
BRANCH   1  24
ATOM     24  C   UNL     1       8.775   8.524  18.630  0.00  0.00    +0.000 C 
BRANCH  24  25
ATOM     25  O   UNL     1       8.646   9.826  18.042  0.00  0.00    +0.000 OA
BRANCH  25  26
ATOM     26  C   UNL     1       9.548  10.746  18.456  0.00  0.00    +0.000 C 
ATOM     27  O   UNL     1      10.385  11.308  17.771  0.00  0.00    +0.000 OA
BRANCH  26  29
ATOM     28  C   UNL     1       9.176  12.271  20.312  0.00  0.00    +0.000 C 
ATOM     29  C   UNL     1       9.317  11.005  19.892  0.00  0.00    +0.000 C 
BRANCH  28  33
ATOM     30  C   UNL     1       8.312  13.542  24.326  0.00  0.00    +0.000 A 
ATOM     31  C   UNL     1       9.018  14.361  23.427  0.00  0.00    +0.000 A 
ATOM     32  C   UNL     1       9.296  13.940  22.124  0.00  0.00    +0.000 A 
ATOM     33  C   UNL     1       8.933  12.658  21.710  0.00  0.00    +0.000 A 
ATOM     34  C   UNL     1       8.300  11.818  22.628  0.00  0.00    +0.000 A 
ATOM     35  C   UNL     1       7.995  12.232  23.935  0.00  0.00    +0.000 A 
BRANCH  30  37
ATOM     36  C   UNL     1       9.007  14.103  26.513  0.00  0.00    +0.000 C 
ATOM     37  O   UNL     1       7.943  14.003  25.562  0.00  0.00    +0.000 OA
ENDBRANCH  30  37
BRANCH  35  38
ATOM     38  O   UNL     1       7.376  11.236  24.640  0.00  0.00    +0.000 OA
ATOM     39  C   UNL     1       5.976  11.277  24.849  0.00  0.00    +0.000 C 
ENDBRANCH  35  38
ENDBRANCH  28  33
ENDBRANCH  26  29
ENDBRANCH  25  26
ENDBRANCH  24  25
ENDBRANCH   1  24
TORSDOF 11
ENDMDL
MODEL 3
REMARK VINA RESULT:      -7.3      1.749      2.384
REMARK  Name = 
REMARK  14 active torsions:
REMARK  status: ('A' for Active; 'I' for Inactive)
REMARK    1  A    between atoms: C_1  and  O_2
REMARK    2  A    between atoms: O_2  and  C_3
REMARK    3  A    between atoms: C_6  and  C_7
REMARK    4  A    between atoms: C_8  and  C_9
REMARK    5  A    between atoms: C_9  and  O_11
REMARK    6  A    between atoms: O_11  and  C_12
REMARK    7  A    between atoms: C_12  and  C_13
REMARK    8  A    between atoms: N_15  and  C_16
REMARK    9  A    between atoms: N_15  and  C_17
REMARK   10  A    between atoms: C_18  and  N_19
REMARK   11  A    between atoms: N_20  and  C_21
REMARK   12  A    between atoms: C_21  and  C_22
REMARK   13  A    between atoms: C_34  and  O_35
REMARK   14  A    between atoms: O_35  and  C_36
REMARK                            x       y       z     vdW  Elec       q    Type
REMARK                         _______ _______ _______ _____ _____    ______ ____
ROOT
ATOM      1  C   UNL     1       0.796  11.935  20.329  0.00  0.00    +0.000 C 
ATOM      2  O   UNL     1       1.833  12.135  20.968  0.00  0.00    +0.000 OA
ATOM      3  N   UNL     1       0.214  12.926  19.532  0.00  0.00    +0.000 N 
ATOM      4  C   UNL     1      -0.974  12.724  18.693  0.00  0.00    +0.000 C 
ENDROOT
BRANCH   3   5
ATOM      5  C   UNL     1       0.883  14.174  19.420  0.00  0.00    +0.000 A 
ATOM      6  C   UNL     1       1.925  14.414  18.569  0.00  0.00    +0.000 A 
ATOM      7  N   UNL     1       2.414  15.717  18.410  0.00  0.00    +0.000 N 
ATOM      8  C   UNL     1       1.827  16.820  19.013  0.00  0.00    +0.000 A 
ATOM      9  O   UNL     1       2.171  17.986  18.833  0.00  0.00    +0.000 OA
ATOM     10  N   UNL     1       0.828  16.558  19.894  0.00  0.00    +0.000 N 
ATOM     11  C   UNL     1       0.401  15.323  20.258  0.00  0.00    +0.000 A 
ATOM     12  O   UNL     1      -0.364  15.203  21.211  0.00  0.00    +0.000 OA
ATOM     13  H   UNL     1       0.470  17.344  20.414  0.00  0.00    +0.000 HD
BRANCH   6  14
ATOM     14  N   UNL     1       2.510  13.366  17.853  0.00  0.00    +0.000 N 
ATOM     15  H   UNL     1       3.306  12.991  18.367  0.00  0.00    +0.000 HD
ATOM     16  H   UNL     1       1.867  12.595  17.698  0.00  0.00    +0.000 HD
ENDBRANCH   6  14
BRANCH   7  17
ATOM     17  C   UNL     1       3.554  16.013  17.537  0.00  0.00    +0.000 C 
BRANCH  17  18
ATOM     18  C   UNL     1       4.925  15.895  18.185  0.00  0.00    +0.000 A 
ATOM     19  C   UNL     1       5.745  14.809  17.831  0.00  0.00    +0.000 A 
ATOM     20  C   UNL     1       7.035  14.683  18.361  0.00  0.00    +0.000 A 
ATOM     21  C   UNL     1       7.527  15.644  19.237  0.00  0.00    +0.000 A 
ATOM     22  C   UNL     1       6.731  16.730  19.592  0.00  0.00    +0.000 A 
ATOM     23  C   UNL     1       5.439  16.852  19.070  0.00  0.00    +0.000 A 
ENDBRANCH  17  18
ENDBRANCH   7  17
ENDBRANCH   3   5
BRANCH   1  24
ATOM     24  C   UNL     1       0.126  10.556  20.471  0.00  0.00    +0.000 C 
BRANCH  24  25
ATOM     25  O   UNL     1       0.972   9.553  19.891  0.00  0.00    +0.000 OA
BRANCH  25  26
ATOM     26  C   UNL     1       0.843   9.382  18.555  0.00  0.00    +0.000 C 
ATOM     27  O   UNL     1      -0.070   9.781  17.852  0.00  0.00    +0.000 OA
BRANCH  26  29
ATOM     28  C   UNL     1       2.340   7.467  18.586  0.00  0.00    +0.000 C 
ATOM     29  C   UNL     1       2.038   8.665  18.064  0.00  0.00    +0.000 C 
BRANCH  28  33
ATOM     30  C   UNL     1       5.843   5.249  17.455  0.00  0.00    +0.000 A 
ATOM     31  C   UNL     1       5.385   6.343  16.700  0.00  0.00    +0.000 A 
ATOM     32  C   UNL     1       4.244   7.057  17.074  0.00  0.00    +0.000 A 
ATOM     33  C   UNL     1       3.493   6.652  18.177  0.00  0.00    +0.000 A 
ATOM     34  C   UNL     1       3.907   5.519  18.881  0.00  0.00    +0.000 A 
ATOM     35  C   UNL     1       5.062   4.800  18.531  0.00  0.00    +0.000 A 
BRANCH  30  37
ATOM     36  C   UNL     1       7.201   4.311  15.765  0.00  0.00    +0.000 C 
ATOM     37  O   UNL     1       7.023   4.624  17.149  0.00  0.00    +0.000 OA
ENDBRANCH  30  37
BRANCH  35  38
ATOM     38  O   UNL     1       5.258   3.737  19.369  0.00  0.00    +0.000 OA
ATOM     39  C   UNL     1       4.164   2.925  19.756  0.00  0.00    +0.000 C 
ENDBRANCH  35  38
ENDBRANCH  28  33
ENDBRANCH  26  29
ENDBRANCH  25  26
ENDBRANCH  24  25
ENDBRANCH   1  24
TORSDOF 11
ENDMDL
MODEL 4
REMARK VINA RESULT:      -7.3      1.140      1.602
REMARK  Name = 
REMARK  14 active torsions:
REMARK  status: ('A' for Active; 'I' for Inactive)
REMARK    1  A    between atoms: C_1  and  O_2
REMARK    2  A    between atoms: O_2  and  C_3
REMARK    3  A    between atoms: C_6  and  C_7
REMARK    4  A    between atoms: C_8  and  C_9
REMARK    5  A    between atoms: C_9  and  O_11
REMARK    6  A    between atoms: O_11  and  C_12
REMARK    7  A    between atoms: C_12  and  C_13
REMARK    8  A    between atoms: N_15  and  C_16
REMARK    9  A    between atoms: N_15  and  C_17
REMARK   10  A    between atoms: C_18  and  N_19
REMARK   11  A    between atoms: N_20  and  C_21
REMARK   12  A    between atoms: C_21  and  C_22
REMARK   13  A    between atoms: C_34  and  O_35
REMARK   14  A    between atoms: O_35  and  C_36
REMARK                            x       y       z     vdW  Elec       q    Type
REMARK                         _______ _______ _______ _____ _____    ______ ____
ROOT
ATOM      1  C   UNL     1       0.564  11.873  20.268  0.00  0.00    +0.000 C 
ATOM      2  O   UNL     1       1.493  12.057  21.059  0.00  0.00    +0.000 OA
ATOM      3  N   UNL     1       0.252  12.796  19.265  0.00  0.00    +0.000 N 
ATOM      4  C   UNL     1      -0.792  12.598  18.251  0.00  0.00    +0.000 C 
ENDROOT
BRANCH   3   5
ATOM      5  C   UNL     1       1.077  13.945  19.131  0.00  0.00    +0.000 A 
ATOM      6  C   UNL     1       2.260  13.966  18.447  0.00  0.00    +0.000 A 
ATOM      7  N   UNL     1       2.922  15.182  18.231  0.00  0.00    +0.000 N 
ATOM      8  C   UNL     1       2.387  16.407  18.601  0.00  0.00    +0.000 A 
ATOM      9  O   UNL     1       2.894  17.499  18.355  0.00  0.00    +0.000 OA
ATOM     10  N   UNL     1       1.238  16.364  19.323  0.00  0.00    +0.000 N 
ATOM     11  C   UNL     1       0.613  15.236  19.743  0.00  0.00    +0.000 A 
ATOM     12  O   UNL     1      -0.300  15.317  20.560  0.00  0.00    +0.000 OA
ATOM     13  H   UNL     1       0.902  17.241  19.685  0.00  0.00    +0.000 HD
BRANCH   6  14
ATOM     14  N   UNL     1       2.818  12.780  17.961  0.00  0.00    +0.000 N 
ATOM     15  H   UNL     1       3.725  12.616  18.394  0.00  0.00    +0.000 HD
ATOM     16  H   UNL     1       2.242  11.969  18.163  0.00  0.00    +0.000 HD
ENDBRANCH   6  14
BRANCH   7  17
ATOM     17  C   UNL     1       4.212  15.244  17.537  0.00  0.00    +0.000 C 
BRANCH  17  18
ATOM     18  C   UNL     1       5.441  15.079  18.417  0.00  0.00    +0.000 A 
ATOM     19  C   UNL     1       6.709  15.077  17.808  0.00  0.00    +0.000 A 
ATOM     20  C   UNL     1       7.873  14.978  18.580  0.00  0.00    +0.000 A 
ATOM     21  C   UNL     1       7.788  14.894  19.966  0.00  0.00    +0.000 A 
ATOM     22  C   UNL     1       6.541  14.902  20.584  0.00  0.00    +0.000 A 
ATOM     23  C   UNL     1       5.376  14.992  19.814  0.00  0.00    +0.000 A 
ENDBRANCH  17  18
ENDBRANCH   7  17
ENDBRANCH   3   5
BRANCH   1  24
ATOM     24  C   UNL     1      -0.283  10.600  20.447  0.00  0.00    +0.000 C 
BRANCH  24  25
ATOM     25  O   UNL     1       0.460   9.465  19.981  0.00  0.00    +0.000 OA
BRANCH  25  26
ATOM     26  C   UNL     1       0.962   8.660  20.946  0.00  0.00    +0.000 C 
ATOM     27  O   UNL     1       0.763   8.746  22.146  0.00  0.00    +0.000 OA
BRANCH  26  29
ATOM     28  C   UNL     1       2.245   7.818  19.061  0.00  0.00    +0.000 C 
ATOM     29  C   UNL     1       1.764   7.604  20.295  0.00  0.00    +0.000 C 
BRANCH  28  33
ATOM     30  C   UNL     1       4.813   5.077  16.972  0.00  0.00    +0.000 A 
ATOM     31  C   UNL     1       4.762   6.442  16.639  0.00  0.00    +0.000 A 
ATOM     32  C   UNL     1       3.923   7.326  17.322  0.00  0.00    +0.000 A 
ATOM     33  C   UNL     1       3.063   6.852  18.312  0.00  0.00    +0.000 A 
ATOM     34  C   UNL     1       3.060   5.483  18.589  0.00  0.00    +0.000 A 
ATOM     35  C   UNL     1       3.911   4.583  17.926  0.00  0.00    +0.000 A 
BRANCH  30  37
ATOM     36  C   UNL     1       7.072   4.408  16.805  0.00  0.00    +0.000 C 
ATOM     37  O   UNL     1       5.718   4.238  16.377  0.00  0.00    +0.000 OA
ENDBRANCH  30  37
BRANCH  35  38
ATOM     38  O   UNL     1       3.724   3.303  18.372  0.00  0.00    +0.000 OA
ATOM     39  C   UNL     1       3.554   3.049  19.755  0.00  0.00    +0.000 C 
ENDBRANCH  35  38
ENDBRANCH  28  33
ENDBRANCH  26  29
ENDBRANCH  25  26
ENDBRANCH  24  25
ENDBRANCH   1  24
TORSDOF 11
ENDMDL
MODEL 5
REMARK VINA RESULT:      -7.2      3.967      6.641
REMARK  Name = 
REMARK  14 active torsions:
REMARK  status: ('A' for Active; 'I' for Inactive)
REMARK    1  A    between atoms: C_1  and  O_2
REMARK    2  A    between atoms: O_2  and  C_3
REMARK    3  A    between atoms: C_6  and  C_7
REMARK    4  A    between atoms: C_8  and  C_9
REMARK    5  A    between atoms: C_9  and  O_11
REMARK    6  A    between atoms: O_11  and  C_12
REMARK    7  A    between atoms: C_12  and  C_13
REMARK    8  A    between atoms: N_15  and  C_16
REMARK    9  A    between atoms: N_15  and  C_17
REMARK   10  A    between atoms: C_18  and  N_19
REMARK   11  A    between atoms: N_20  and  C_21
REMARK   12  A    between atoms: C_21  and  C_22
REMARK   13  A    between atoms: C_34  and  O_35
REMARK   14  A    between atoms: O_35  and  C_36
REMARK                            x       y       z     vdW  Elec       q    Type
REMARK                         _______ _______ _______ _____ _____    ______ ____
ROOT
ATOM      1  C   UNL     1       1.410   8.281  20.073  0.00  0.00    +0.000 C 
ATOM      2  O   UNL     1       0.730   8.215  21.101  0.00  0.00    +0.000 OA
ATOM      3  N   UNL     1       1.292   9.346  19.174  0.00  0.00    +0.000 N 
ATOM      4  C   UNL     1       2.124   9.517  17.977  0.00  0.00    +0.000 C 
ENDROOT
BRANCH   3   5
ATOM      5  C   UNL     1       0.398  10.402  19.500  0.00  0.00    +0.000 A 
ATOM      6  C   UNL     1       0.541  11.221  20.584  0.00  0.00    +0.000 A 
ATOM      7  N   UNL     1      -0.295  12.335  20.735  0.00  0.00    +0.000 N 
ATOM      8  C   UNL     1      -1.221  12.716  19.775  0.00  0.00    +0.000 A 
ATOM      9  O   UNL     1      -1.912  13.732  19.829  0.00  0.00    +0.000 OA
ATOM     10  N   UNL     1      -1.385  11.865  18.731  0.00  0.00    +0.000 N 
ATOM     11  C   UNL     1      -0.759  10.670  18.582  0.00  0.00    +0.000 A 
ATOM     12  O   UNL     1      -1.136   9.893  17.709  0.00  0.00    +0.000 OA
ATOM     13  H   UNL     1      -2.129  12.081  18.087  0.00  0.00    +0.000 HD
BRANCH   6  14
ATOM     14  N   UNL     1       1.516  10.955  21.550  0.00  0.00    +0.000 N 
ATOM     15  H   UNL     1       1.520   9.962  21.780  0.00  0.00    +0.000 HD
ATOM     16  H   UNL     1       2.451  11.189  21.232  0.00  0.00    +0.000 HD
ENDBRANCH   6  14
BRANCH   7  17
ATOM     17  C   UNL     1      -0.202  13.218  21.902  0.00  0.00    +0.000 C 
BRANCH  17  18
ATOM     18  C   UNL     1      -1.431  13.254  22.797  0.00  0.00    +0.000 A 
ATOM     19  C   UNL     1      -1.828  14.488  23.344  0.00  0.00    +0.000 A 
ATOM     20  C   UNL     1      -2.981  14.583  24.133  0.00  0.00    +0.000 A 
ATOM     21  C   UNL     1      -3.758  13.455  24.375  0.00  0.00    +0.000 A 
ATOM     22  C   UNL     1      -3.381  12.228  23.835  0.00  0.00    +0.000 A 
ATOM     23  C   UNL     1      -2.226  12.129  23.054  0.00  0.00    +0.000 A 
ENDBRANCH  17  18
ENDBRANCH   7  17
ENDBRANCH   3   5
BRANCH   1  24
ATOM     24  C   UNL     1       2.378   7.120  19.782  0.00  0.00    +0.000 C 
BRANCH  24  25
ATOM     25  O   UNL     1       1.856   5.911  20.350  0.00  0.00    +0.000 OA
BRANCH  25  26
ATOM     26  C   UNL     1       2.680   4.839  20.299  0.00  0.00    +0.000 C 
ATOM     27  O   UNL     1       2.533   3.776  20.879  0.00  0.00    +0.000 OA
BRANCH  26  29
ATOM     28  C   UNL     1       3.961   4.373  18.286  0.00  0.00    +0.000 C 
ATOM     29  C   UNL     1       3.783   5.148  19.366  0.00  0.00    +0.000 C 
BRANCH  28  33
ATOM     30  C   UNL     1       6.882   5.057  15.209  0.00  0.00    +0.000 A 
ATOM     31  C   UNL     1       5.980   3.981  15.145  0.00  0.00    +0.000 A 
ATOM     32  C   UNL     1       5.035   3.765  16.151  0.00  0.00    +0.000 A 
ATOM     33  C   UNL     1       5.013   4.582  17.280  0.00  0.00    +0.000 A 
ATOM     34  C   UNL     1       5.959   5.604  17.378  0.00  0.00    +0.000 A 
ATOM     35  C   UNL     1       6.904   5.849  16.367  0.00  0.00    +0.000 A 
BRANCH  30  37
ATOM     36  C   UNL     1       7.422   4.658  12.944  0.00  0.00    +0.000 C 
ATOM     37  O   UNL     1       7.729   5.331  14.168  0.00  0.00    +0.000 OA
ENDBRANCH  30  37
BRANCH  35  38
ATOM     38  O   UNL     1       7.718   6.900  16.691  0.00  0.00    +0.000 OA
ATOM     39  C   UNL     1       7.263   7.901  17.584  0.00  0.00    +0.000 C 
ENDBRANCH  35  38
ENDBRANCH  28  33
ENDBRANCH  26  29
ENDBRANCH  25  26
ENDBRANCH  24  25
ENDBRANCH   1  24
TORSDOF 11
ENDMDL
MODEL 6
REMARK VINA RESULT:      -7.2      3.874      7.442
REMARK  Name = 
REMARK  14 active torsions:
REMARK  status: ('A' for Active; 'I' for Inactive)
REMARK    1  A    between atoms: C_1  and  O_2
REMARK    2  A    between atoms: O_2  and  C_3
REMARK    3  A    between atoms: C_6  and  C_7
REMARK    4  A    between atoms: C_8  and  C_9
REMARK    5  A    between atoms: C_9  and  O_11
REMARK    6  A    between atoms: O_11  and  C_12
REMARK    7  A    between atoms: C_12  and  C_13
REMARK    8  A    between atoms: N_15  and  C_16
REMARK    9  A    between atoms: N_15  and  C_17
REMARK   10  A    between atoms: C_18  and  N_19
REMARK   11  A    between atoms: N_20  and  C_21
REMARK   12  A    between atoms: C_21  and  C_22
REMARK   13  A    between atoms: C_34  and  O_35
REMARK   14  A    between atoms: O_35  and  C_36
REMARK                            x       y       z     vdW  Elec       q    Type
REMARK                         _______ _______ _______ _____ _____    ______ ____
ROOT
ATOM      1  C   UNL     1      -0.233  11.664  21.074  0.00  0.00    +0.000 C 
ATOM      2  O   UNL     1      -0.949  10.784  21.560  0.00  0.00    +0.000 OA
ATOM      3  N   UNL     1      -0.604  13.012  21.089  0.00  0.00    +0.000 N 
ATOM      4  C   UNL     1       0.237  14.110  20.595  0.00  0.00    +0.000 C 
ENDROOT
BRANCH   3   5
ATOM      5  C   UNL     1      -1.816  13.366  21.741  0.00  0.00    +0.000 A 
ATOM      6  C   UNL     1      -3.028  13.448  21.116  0.00  0.00    +0.000 A 
ATOM      7  N   UNL     1      -4.193  13.645  21.869  0.00  0.00    +0.000 N 
ATOM      8  C   UNL     1      -4.197  13.670  23.256  0.00  0.00    +0.000 A 
ATOM      9  O   UNL     1      -5.204  13.755  23.955  0.00  0.00    +0.000 OA
ATOM     10  N   UNL     1      -2.981  13.639  23.858  0.00  0.00    +0.000 N 
ATOM     11  C   UNL     1      -1.784  13.634  23.218  0.00  0.00    +0.000 A 
ATOM     12  O   UNL     1      -0.753  13.813  23.860  0.00  0.00    +0.000 OA
ATOM     13  H   UNL     1      -2.970  13.764  24.857  0.00  0.00    +0.000 HD
BRANCH   6  14
ATOM     14  N   UNL     1      -3.117  13.339  19.725  0.00  0.00    +0.000 N 
ATOM     15  H   UNL     1      -4.086  13.438  19.426  0.00  0.00    +0.000 HD
ATOM     16  H   UNL     1      -2.583  14.056  19.244  0.00  0.00    +0.000 HD
ENDBRANCH   6  14
BRANCH   7  17
ATOM     17  C   UNL     1      -5.509  13.778  21.235  0.00  0.00    +0.000 C 
BRANCH  17  18
ATOM     18  C   UNL     1      -6.225  12.471  20.931  0.00  0.00    +0.000 A 
ATOM     19  C   UNL     1      -7.182  12.000  21.847  0.00  0.00    +0.000 A 
ATOM     20  C   UNL     1      -7.905  10.829  21.589  0.00  0.00    +0.000 A 
ATOM     21  C   UNL     1      -7.693  10.122  20.410  0.00  0.00    +0.000 A 
ATOM     22  C   UNL     1      -6.754  10.580  19.489  0.00  0.00    +0.000 A 
ATOM     23  C   UNL     1      -6.025  11.745  19.750  0.00  0.00    +0.000 A 
ENDBRANCH  17  18
ENDBRANCH   7  17
ENDBRANCH   3   5
BRANCH   1  24
ATOM     24  C   UNL     1       1.080  11.225  20.401  0.00  0.00    +0.000 C 
BRANCH  24  25
ATOM     25  O   UNL     1       0.865  11.073  18.991  0.00  0.00    +0.000 OA
BRANCH  25  26
ATOM     26  C   UNL     1       1.726  10.245  18.355  0.00  0.00    +0.000 C 
ATOM     27  O   UNL     1       2.534  10.553  17.494  0.00  0.00    +0.000 OA
BRANCH  26  29
ATOM     28  C   UNL     1       2.327   7.891  18.447  0.00  0.00    +0.000 C 
ATOM     29  C   UNL     1       1.566   8.890  18.920  0.00  0.00    +0.000 C 
BRANCH  28  33
ATOM     30  C   UNL     1       1.940   3.861  19.888  0.00  0.00    +0.000 A 
ATOM     31  C   UNL     1       1.829   4.967  20.748  0.00  0.00    +0.000 A 
ATOM     32  C   UNL     1       1.958   6.274  20.271  0.00  0.00    +0.000 A 
ATOM     33  C   UNL     1       2.269   6.505  18.931  0.00  0.00    +0.000 A 
ATOM     34  C   UNL     1       2.454   5.402  18.095  0.00  0.00    +0.000 A 
ATOM     35  C   UNL     1       2.308   4.082  18.552  0.00  0.00    +0.000 A 
BRANCH  30  37
ATOM     36  C   UNL     1       1.564   2.464  21.755  0.00  0.00    +0.000 C 
ATOM     37  O   UNL     1       1.700   2.589  20.337  0.00  0.00    +0.000 OA
ENDBRANCH  30  37
BRANCH  35  38
ATOM     38  O   UNL     1       2.537   3.180  17.548  0.00  0.00    +0.000 OA
ATOM     39  C   UNL     1       3.520   2.173  17.708  0.00  0.00    +0.000 C 
ENDBRANCH  35  38
ENDBRANCH  28  33
ENDBRANCH  26  29
ENDBRANCH  25  26
ENDBRANCH  24  25
ENDBRANCH   1  24
TORSDOF 11
ENDMDL
MODEL 7
REMARK VINA RESULT:      -7.2      3.623      6.926
REMARK  Name = 
REMARK  14 active torsions:
REMARK  status: ('A' for Active; 'I' for Inactive)
REMARK    1  A    between atoms: C_1  and  O_2
REMARK    2  A    between atoms: O_2  and  C_3
REMARK    3  A    between atoms: C_6  and  C_7
REMARK    4  A    between atoms: C_8  and  C_9
REMARK    5  A    between atoms: C_9  and  O_11
REMARK    6  A    between atoms: O_11  and  C_12
REMARK    7  A    between atoms: C_12  and  C_13
REMARK    8  A    between atoms: N_15  and  C_16
REMARK    9  A    between atoms: N_15  and  C_17
REMARK   10  A    between atoms: C_18  and  N_19
REMARK   11  A    between atoms: N_20  and  C_21
REMARK   12  A    between atoms: C_21  and  C_22
REMARK   13  A    between atoms: C_34  and  O_35
REMARK   14  A    between atoms: O_35  and  C_36
REMARK                            x       y       z     vdW  Elec       q    Type
REMARK                         _______ _______ _______ _____ _____    ______ ____
ROOT
ATOM      1  C   UNL     1       1.239   8.457  20.460  0.00  0.00    +0.000 C 
ATOM      2  O   UNL     1       1.642   8.612  19.304  0.00  0.00    +0.000 OA
ATOM      3  N   UNL     1       0.485   9.433  21.118  0.00  0.00    +0.000 N 
ATOM      4  C   UNL     1      -0.084   9.275  22.463  0.00  0.00    +0.000 C 
ENDROOT
BRANCH   3   5
ATOM      5  C   UNL     1       0.133  10.606  20.399  0.00  0.00    +0.000 A 
ATOM      6  C   UNL     1      -0.884  10.673  19.488  0.00  0.00    +0.000 A 
ATOM      7  N   UNL     1      -1.262  11.909  18.949  0.00  0.00    +0.000 N 
ATOM      8  C   UNL     1      -0.712  13.112  19.367  0.00  0.00    +0.000 A 
ATOM      9  O   UNL     1      -1.074  14.222  18.982  0.00  0.00    +0.000 OA
ATOM     10  N   UNL     1       0.330  13.024  20.233  0.00  0.00    +0.000 N 
ATOM     11  C   UNL     1       0.893  11.872  20.674  0.00  0.00    +0.000 A 
ATOM     12  O   UNL     1       1.955  11.913  21.289  0.00  0.00    +0.000 OA
ATOM     13  H   UNL     1       0.802  13.885  20.457  0.00  0.00    +0.000 HD
BRANCH   6  14
ATOM     14  N   UNL     1      -1.551   9.512  19.086  0.00  0.00    +0.000 N 
ATOM     15  H   UNL     1      -2.333   9.750  18.477  0.00  0.00    +0.000 HD
ATOM     16  H   UNL     1      -0.951   8.880  18.565  0.00  0.00    +0.000 HD
ENDBRANCH   6  14
BRANCH   7  17
ATOM     17  C   UNL     1      -2.321  12.021  17.941  0.00  0.00    +0.000 C 
BRANCH  17  18
ATOM     18  C   UNL     1      -3.742  11.885  18.464  0.00  0.00    +0.000 A 
ATOM     19  C   UNL     1      -4.656  11.104  17.734  0.00  0.00    +0.000 A 
ATOM     20  C   UNL     1      -5.962  10.907  18.199  0.00  0.00    +0.000 A 
ATOM     21  C   UNL     1      -6.368  11.474  19.403  0.00  0.00    +0.000 A 
ATOM     22  C   UNL     1      -5.473  12.244  20.141  0.00  0.00    +0.000 A 
ATOM     23  C   UNL     1      -4.171  12.449  19.673  0.00  0.00    +0.000 A 
ENDBRANCH  17  18
ENDBRANCH   7  17
ENDBRANCH   3   5
BRANCH   1  24
ATOM     24  C   UNL     1       1.632   7.156  21.184  0.00  0.00    +0.000 C 
BRANCH  24  25
ATOM     25  O   UNL     1       1.582   6.062  20.259  0.00  0.00    +0.000 OA
BRANCH  25  26
ATOM     26  C   UNL     1       2.314   4.975  20.599  0.00  0.00    +0.000 C 
ATOM     27  O   UNL     1       2.000   4.103  21.392  0.00  0.00    +0.000 OA
BRANCH  26  29
ATOM     28  C   UNL     1       3.472   5.067  18.464  0.00  0.00    +0.000 C 
ATOM     29  C   UNL     1       3.556   4.988  19.801  0.00  0.00    +0.000 C 
BRANCH  28  33
ATOM     30  C   UNL     1       6.726   5.186  15.659  0.00  0.00    +0.000 A 
ATOM     31  C   UNL     1       5.862   4.080  15.742  0.00  0.00    +0.000 A 
ATOM     32  C   UNL     1       4.808   4.049  16.658  0.00  0.00    +0.000 A 
ATOM     33  C   UNL     1       4.633   5.097  17.562  0.00  0.00    +0.000 A 
ATOM     34  C   UNL     1       5.538   6.159  17.529  0.00  0.00    +0.000 A 
ATOM     35  C   UNL     1       6.592   6.217  16.601  0.00  0.00    +0.000 A 
BRANCH  30  37
ATOM     36  C   UNL     1       7.266   4.831  13.386  0.00  0.00    +0.000 C 
ATOM     37  O   UNL     1       7.686   5.261  14.684  0.00  0.00    +0.000 OA
ENDBRANCH  30  37
BRANCH  35  38
ATOM     38  O   UNL     1       7.337   7.353  16.766  0.00  0.00    +0.000 OA
ATOM     39  C   UNL     1       7.952   7.625  18.013  0.00  0.00    +0.000 C 
ENDBRANCH  35  38
ENDBRANCH  28  33
ENDBRANCH  26  29
ENDBRANCH  25  26
ENDBRANCH  24  25
ENDBRANCH   1  24
TORSDOF 11
ENDMDL
MODEL 8
REMARK VINA RESULT:      -7.2      2.383      3.980
REMARK  Name = 
REMARK  14 active torsions:
REMARK  status: ('A' for Active; 'I' for Inactive)
REMARK    1  A    between atoms: C_1  and  O_2
REMARK    2  A    between atoms: O_2  and  C_3
REMARK    3  A    between atoms: C_6  and  C_7
REMARK    4  A    between atoms: C_8  and  C_9
REMARK    5  A    between atoms: C_9  and  O_11
REMARK    6  A    between atoms: O_11  and  C_12
REMARK    7  A    between atoms: C_12  and  C_13
REMARK    8  A    between atoms: N_15  and  C_16
REMARK    9  A    between atoms: N_15  and  C_17
REMARK   10  A    between atoms: C_18  and  N_19
REMARK   11  A    between atoms: N_20  and  C_21
REMARK   12  A    between atoms: C_21  and  C_22
REMARK   13  A    between atoms: C_34  and  O_35
REMARK   14  A    between atoms: O_35  and  C_36
REMARK                            x       y       z     vdW  Elec       q    Type
REMARK                         _______ _______ _______ _____ _____    ______ ____
ROOT
ATOM      1  C   UNL     1       0.537  10.375  20.720  0.00  0.00    +0.000 C 
ATOM      2  O   UNL     1       0.917  11.042  21.687  0.00  0.00    +0.000 OA
ATOM      3  N   UNL     1       0.050  10.974  19.553  0.00  0.00    +0.000 N 
ATOM      4  C   UNL     1      -0.346  10.237  18.346  0.00  0.00    +0.000 C 
ENDROOT
BRANCH   3   5
ATOM      5  C   UNL     1       0.056  12.392  19.476  0.00  0.00    +0.000 A 
ATOM      6  C   UNL     1       1.112  13.133  19.025  0.00  0.00    +0.000 A 
ATOM      7  N   UNL     1       0.968  14.513  18.831  0.00  0.00    +0.000 N 
ATOM      8  C   UNL     1      -0.242  15.172  18.985  0.00  0.00    +0.000 A 
ATOM      9  O   UNL     1      -0.430  16.362  18.743  0.00  0.00    +0.000 OA
ATOM     10  N   UNL     1      -1.267  14.433  19.481  0.00  0.00    +0.000 N 
ATOM     11  C   UNL     1      -1.186  13.137  19.875  0.00  0.00    +0.000 A 
ATOM     12  O   UNL     1      -2.117  12.633  20.497  0.00  0.00    +0.000 OA
ATOM     13  H   UNL     1      -2.117  14.929  19.696  0.00  0.00    +0.000 HD
BRANCH   6  14
ATOM     14  N   UNL     1       2.341  12.523  18.757  0.00  0.00    +0.000 N 
ATOM     15  H   UNL     1       2.811  13.003  17.991  0.00  0.00    +0.000 HD
ATOM     16  H   UNL     1       2.969  12.549  19.554  0.00  0.00    +0.000 HD
ENDBRANCH   6  14
BRANCH   7  17
ATOM     17  C   UNL     1       2.087  15.350  18.386  0.00  0.00    +0.000 C 
BRANCH  17  18
ATOM     18  C   UNL     1       2.854  16.062  19.489  0.00  0.00    +0.000 A 
ATOM     19  C   UNL     1       3.928  15.392  20.101  0.00  0.00    +0.000 A 
ATOM     20  C   UNL     1       4.697  16.021  21.087  0.00  0.00    +0.000 A 
ATOM     21  C   UNL     1       4.414  17.330  21.464  0.00  0.00    +0.000 A 
ATOM     22  C   UNL     1       3.358  18.010  20.863  0.00  0.00    +0.000 A 
ATOM     23  C   UNL     1       2.584  17.379  19.884  0.00  0.00    +0.000 A 
ENDBRANCH  17  18
ENDBRANCH   7  17
ENDBRANCH   3   5
BRANCH   1  24
ATOM     24  C   UNL     1       0.573   8.842  20.852  0.00  0.00    +0.000 C 
BRANCH  24  25
ATOM     25  O   UNL     1       1.849   8.356  20.413  0.00  0.00    +0.000 OA
BRANCH  25  26
ATOM     26  C   UNL     1       1.927   7.020  20.210  0.00  0.00    +0.000 C 
ATOM     27  O   UNL     1       1.309   6.154  20.806  0.00  0.00    +0.000 OA
BRANCH  26  29
ATOM     28  C   UNL     1       3.616   5.668  19.101  0.00  0.00    +0.000 C 
ATOM     29  C   UNL     1       2.860   6.777  19.091  0.00  0.00    +0.000 C 
BRANCH  28  33
ATOM     30  C   UNL     1       6.260   4.669  15.863  0.00  0.00    +0.000 A 
ATOM     31  C   UNL     1       5.184   3.839  16.222  0.00  0.00    +0.000 A 
ATOM     32  C   UNL     1       4.330   4.170  17.277  0.00  0.00    +0.000 A 
ATOM     33  C   UNL     1       4.573   5.310  18.044  0.00  0.00    +0.000 A 
ATOM     34  C   UNL     1       5.686   6.093  17.734  0.00  0.00    +0.000 A 
ATOM     35  C   UNL     1       6.544   5.786  16.664  0.00  0.00    +0.000 A 
BRANCH  30  37
ATOM     36  C   UNL     1       6.292   3.964  13.609  0.00  0.00    +0.000 C 
ATOM     37  O   UNL     1       7.023   4.399  14.759  0.00  0.00    +0.000 OA
ENDBRANCH  30  37
BRANCH  35  38
ATOM     38  O   UNL     1       7.557   6.700  16.561  0.00  0.00    +0.000 OA
ATOM     39  C   UNL     1       7.713   7.703  17.550  0.00  0.00    +0.000 C 
ENDBRANCH  35  38
ENDBRANCH  28  33
ENDBRANCH  26  29
ENDBRANCH  25  26
ENDBRANCH  24  25
ENDBRANCH   1  24
TORSDOF 11
ENDMDL
MODEL 9
REMARK VINA RESULT:      -7.2      4.038      6.869
REMARK  Name = 
REMARK  14 active torsions:
REMARK  status: ('A' for Active; 'I' for Inactive)
REMARK    1  A    between atoms: C_1  and  O_2
REMARK    2  A    between atoms: O_2  and  C_3
REMARK    3  A    between atoms: C_6  and  C_7
REMARK    4  A    between atoms: C_8  and  C_9
REMARK    5  A    between atoms: C_9  and  O_11
REMARK    6  A    between atoms: O_11  and  C_12
REMARK    7  A    between atoms: C_12  and  C_13
REMARK    8  A    between atoms: N_15  and  C_16
REMARK    9  A    between atoms: N_15  and  C_17
REMARK   10  A    between atoms: C_18  and  N_19
REMARK   11  A    between atoms: N_20  and  C_21
REMARK   12  A    between atoms: C_21  and  C_22
REMARK   13  A    between atoms: C_34  and  O_35
REMARK   14  A    between atoms: O_35  and  C_36
REMARK                            x       y       z     vdW  Elec       q    Type
REMARK                         _______ _______ _______ _____ _____    ______ ____
ROOT
ATOM      1  C   UNL     1       0.169   9.383  21.136  0.00  0.00    +0.000 C 
ATOM      2  O   UNL     1      -0.865   8.748  21.363  0.00  0.00    +0.000 OA
ATOM      3  N   UNL     1       0.151  10.755  20.867  0.00  0.00    +0.000 N 
ATOM      4  C   UNL     1       1.351  11.577  20.663  0.00  0.00    +0.000 C 
ENDROOT
BRANCH   3   5
ATOM      5  C   UNL     1      -1.097  11.432  20.919  0.00  0.00    +0.000 A 
ATOM      6  C   UNL     1      -1.770  11.715  22.074  0.00  0.00    +0.000 A 
ATOM      7  N   UNL     1      -2.911  12.528  22.039  0.00  0.00    +0.000 N 
ATOM      8  C   UNL     1      -3.355  13.152  20.883  0.00  0.00    +0.000 A 
ATOM      9  O   UNL     1      -4.298  13.938  20.826  0.00  0.00    +0.000 OA
ATOM     10  N   UNL     1      -2.707  12.820  19.737  0.00  0.00    +0.000 N 
ATOM     11  C   UNL     1      -1.710  11.905  19.632  0.00  0.00    +0.000 A 
ATOM     12  O   UNL     1      -1.341  11.536  18.520  0.00  0.00    +0.000 OA
ATOM     13  H   UNL     1      -3.091  13.185  18.881  0.00  0.00    +0.000 HD
BRANCH   6  14
ATOM     14  N   UNL     1      -1.328  11.198  23.296  0.00  0.00    +0.000 N 
ATOM     15  H   UNL     1      -2.059  10.628  23.719  0.00  0.00    +0.000 HD
ATOM     16  H   UNL     1      -0.511  10.605  23.193  0.00  0.00    +0.000 HD
ENDBRANCH   6  14
BRANCH   7  17
ATOM     17  C   UNL     1      -3.684  12.825  23.249  0.00  0.00    +0.000 C 
BRANCH  17  18
ATOM     18  C   UNL     1      -3.359  14.147  23.927  0.00  0.00    +0.000 A 
ATOM     19  C   UNL     1      -2.015  14.443  24.214  0.00  0.00    +0.000 A 
ATOM     20  C   UNL     1      -1.658  15.667  24.792  0.00  0.00    +0.000 A 
ATOM     21  C   UNL     1      -2.635  16.616  25.077  0.00  0.00    +0.000 A 
ATOM     22  C   UNL     1      -3.970  16.341  24.793  0.00  0.00    +0.000 A 
ATOM     23  C   UNL     1      -4.329  15.114  24.224  0.00  0.00    +0.000 A 
ENDBRANCH  17  18
ENDBRANCH   7  17
ENDBRANCH   3   5
BRANCH   1  24
ATOM     24  C   UNL     1       1.495   8.602  21.114  0.00  0.00    +0.000 C 
BRANCH  24  25
ATOM     25  O   UNL     1       1.619   7.907  19.866  0.00  0.00    +0.000 OA
BRANCH  25  26
ATOM     26  C   UNL     1       2.149   6.664  19.939  0.00  0.00    +0.000 C 
ATOM     27  O   UNL     1       1.711   5.720  20.576  0.00  0.00    +0.000 OA
BRANCH  26  29
ATOM     28  C   UNL     1       3.558   5.521  18.321  0.00  0.00    +0.000 C 
ATOM     29  C   UNL     1       3.338   6.617  19.064  0.00  0.00    +0.000 C 
BRANCH  28  33
ATOM     30  C   UNL     1       6.755   5.098  15.481  0.00  0.00    +0.000 A 
ATOM     31  C   UNL     1       5.705   4.167  15.556  0.00  0.00    +0.000 A 
ATOM     32  C   UNL     1       4.670   4.311  16.483  0.00  0.00    +0.000 A 
ATOM     33  C   UNL     1       4.696   5.356  17.406  0.00  0.00    +0.000 A 
ATOM     34  C   UNL     1       5.780   6.237  17.380  0.00  0.00    +0.000 A 
ATOM     35  C   UNL     1       6.818   6.119  16.442  0.00  0.00    +0.000 A 
BRANCH  30  37
ATOM     36  C   UNL     1       7.202   4.688  13.198  0.00  0.00    +0.000 C 
ATOM     37  O   UNL     1       7.704   5.016  14.497  0.00  0.00    +0.000 OA
ENDBRANCH  30  37
BRANCH  35  38
ATOM     38  O   UNL     1       7.759   7.097  16.616  0.00  0.00    +0.000 OA
ATOM     39  C   UNL     1       7.688   7.960  17.737  0.00  0.00    +0.000 C 
ENDBRANCH  35  38
ENDBRANCH  28  33
ENDBRANCH  26  29
ENDBRANCH  25  26
ENDBRANCH  24  25
ENDBRANCH   1  24
TORSDOF 11
ENDMDL
