MODEL 1
REMARK VINA RESULT:      -8.9      0.000      0.000
REMARK  Name = 
REMARK  5 active torsions:
REMARK  status: ('A' for Active; 'I' for Inactive)
REMARK    1  A    between atoms: C_1  and  O_2
REMARK    2  A    between atoms: O_2  and  C_3
REMARK    3  A    between atoms: C_7  and  C_8
REMARK    4  A    between atoms: N_10  and  C_11
REMARK    5  A    between atoms: C_15  and  C_16
REMARK                            x       y       z     vdW  Elec       q    Type
REMARK                         _______ _______ _______ _____ _____    ______ ____
ROOT
ATOM      1  C   UNL     1       4.108   4.853  17.532  0.00  0.00    +0.000 A 
ATOM      2  C   UNL     1       4.115   3.932  18.581  0.00  0.00    +0.000 A 
ATOM      3  C   UNL     1       3.542   4.242  19.809  0.00  0.00    +0.000 A 
ATOM      4  C   UNL     1       2.944   5.483  19.996  0.00  0.00    +0.000 A 
ATOM      5  C   UNL     1       2.898   6.440  18.964  0.00  0.00    +0.000 A 
ATOM      6  C   UNL     1       3.527   6.115  17.741  0.00  0.00    +0.000 A 
ENDROOT
BRANCH   5   7
ATOM      7  C   UNL     1       2.176   7.709  19.160  0.00  0.00    +0.000 A 
ATOM      8  C   UNL     1       1.961   8.613  18.132  0.00  0.00    +0.000 A 
ATOM      9  C   UNL     1       1.242   9.783  18.372  0.00  0.00    +0.000 A 
ATOM     10  C   UNL     1       0.739  10.060  19.635  0.00  0.00    +0.000 A 
ATOM     11  N   UNL     1      -0.016  11.187  19.872  0.00  0.00    +0.000 N 
ATOM     12  C   UNL     1       0.194  12.456  19.169  0.00  0.00    +0.000 C 
ATOM     13  C   UNL     1       0.582  13.563  20.164  0.00  0.00    +0.000 C 
ATOM     14  O   UNL     1      -0.361  13.667  21.240  0.00  0.00    +0.000 OA
ATOM     15  C   UNL     1      -0.415  12.429  21.970  0.00  0.00    +0.000 C 
ATOM     16  C   UNL     1      -0.859  11.266  21.072  0.00  0.00    +0.000 C 
ATOM     17  N   UNL     1       0.976   9.160  20.614  0.00  0.00    +0.000 NA
ATOM     18  N   UNL     1       1.702   7.989  20.389  0.00  0.00    +0.000 NA
ENDBRANCH   5   7
BRANCH   1  21
ATOM     19  C   UNL     1       5.912   4.963  15.826  0.00  0.00    +0.000 C 
ATOM     20  O   UNL     1       6.750   5.567  16.488  0.00  0.00    +0.000 OA
ATOM     21  N   UNL     1       4.655   4.559  16.258  0.00  0.00    +0.000 N 
ATOM     22  H   UNL     1       4.155   3.890  15.692  0.00  0.00    +0.000 HD
BRANCH  19  27
ATOM     23  C   UNL     1       5.914   3.410  12.367  0.00  0.00    +0.000 A 
ATOM     24  C   UNL     1       7.066   4.004  11.837  0.00  0.00    +0.000 A 
ATOM     25  C   UNL     1       7.830   4.886  12.598  0.00  0.00    +0.000 A 
ATOM     26  C   UNL     1       7.448   5.172  13.903  0.00  0.00    +0.000 A 
ATOM     27  C   UNL     1       6.302   4.572  14.449  0.00  0.00    +0.000 A 
ATOM     28  C   UNL     1       5.527   3.698  13.678  0.00  0.00    +0.000 A 
BRANCH  23  30
ATOM     29  C   UNL     1       3.964   2.985  11.075  0.00  0.00    +0.000 C 
ATOM     30  O   UNL     1       5.257   2.580  11.501  0.00  0.00    +0.000 OA
ENDBRANCH  23  30
ENDBRANCH  19  27
ENDBRANCH   1  21
TORSDOF 4
ENDMDL
MODEL 2
REMARK VINA RESULT:      -8.9      0.924      1.468
REMARK  Name = 
REMARK  5 active torsions:
REMARK  status: ('A' for Active; 'I' for Inactive)
REMARK    1  A    between atoms: C_1  and  O_2
REMARK    2  A    between atoms: O_2  and  C_3
REMARK    3  A    between atoms: C_7  and  C_8
REMARK    4  A    between atoms: N_10  and  C_11
REMARK    5  A    between atoms: C_15  and  C_16
REMARK                            x       y       z     vdW  Elec       q    Type
REMARK                         _______ _______ _______ _____ _____    ______ ____
ROOT
ATOM      1  C   UNL     1       3.948   4.802  17.644  0.00  0.00    +0.000 A 
ATOM      2  C   UNL     1       3.886   3.802  18.616  0.00  0.00    +0.000 A 
ATOM      3  C   UNL     1       3.293   4.040  19.850  0.00  0.00    +0.000 A 
ATOM      4  C   UNL     1       2.743   5.288  20.121  0.00  0.00    +0.000 A 
ATOM      5  C   UNL     1       2.768   6.325  19.168  0.00  0.00    +0.000 A 
ATOM      6  C   UNL     1       3.416   6.069  17.939  0.00  0.00    +0.000 A 
ENDROOT
BRANCH   5   7
ATOM      7  C   UNL     1       2.096   7.605  19.447  0.00  0.00    +0.000 A 
ATOM      8  C   UNL     1       1.539   7.905  20.680  0.00  0.00    +0.000 A 
ATOM      9  C   UNL     1       0.944   9.147  20.893  0.00  0.00    +0.000 A 
ATOM     10  C   UNL     1       0.896  10.093  19.879  0.00  0.00    +0.000 A 
ATOM     11  N   UNL     1       0.356  11.342  20.093  0.00  0.00    +0.000 N 
ATOM     12  C   UNL     1      -0.763  11.587  21.007  0.00  0.00    +0.000 C 
ATOM     13  C   UNL     1      -1.971  12.149  20.240  0.00  0.00    +0.000 C 
ATOM     14  O   UNL     1      -1.619  13.303  19.463  0.00  0.00    +0.000 OA
ATOM     15  C   UNL     1      -0.614  12.957  18.494  0.00  0.00    +0.000 C 
ATOM     16  C   UNL     1       0.664  12.443  19.170  0.00  0.00    +0.000 C 
ATOM     17  N   UNL     1       1.441   9.764  18.688  0.00  0.00    +0.000 NA
ATOM     18  N   UNL     1       2.033   8.519  18.460  0.00  0.00    +0.000 NA
ENDBRANCH   5   7
BRANCH   1  21
ATOM     19  C   UNL     1       5.870   4.705  16.072  0.00  0.00    +0.000 C 
ATOM     20  O   UNL     1       6.769   4.948  16.870  0.00  0.00    +0.000 OA
ATOM     21  N   UNL     1       4.518   4.585  16.364  0.00  0.00    +0.000 N 
ATOM     22  H   UNL     1       3.919   4.175  15.664  0.00  0.00    +0.000 HD
BRANCH  19  27
ATOM     23  C   UNL     1       5.938   3.453  12.494  0.00  0.00    +0.000 A 
ATOM     24  C   UNL     1       7.052   4.153  12.014  0.00  0.00    +0.000 A 
ATOM     25  C   UNL     1       7.770   5.009  12.846  0.00  0.00    +0.000 A 
ATOM     26  C   UNL     1       7.381   5.162  14.172  0.00  0.00    +0.000 A 
ATOM     27  C   UNL     1       6.273   4.454  14.666  0.00  0.00    +0.000 A 
ATOM     28  C   UNL     1       5.544   3.607  13.825  0.00  0.00    +0.000 A 
BRANCH  23  30
ATOM     29  C   UNL     1       4.032   3.065  11.125  0.00  0.00    +0.000 C 
ATOM     30  O   UNL     1       5.324   2.663  11.561  0.00  0.00    +0.000 OA
ENDBRANCH  23  30
ENDBRANCH  19  27
ENDBRANCH   1  21
TORSDOF 4
ENDMDL
MODEL 3
REMARK VINA RESULT:      -8.0      3.669     11.611
REMARK  Name = 
REMARK  5 active torsions:
REMARK  status: ('A' for Active; 'I' for Inactive)
REMARK    1  A    between atoms: C_1  and  O_2
REMARK    2  A    between atoms: O_2  and  C_3
REMARK    3  A    between atoms: C_7  and  C_8
REMARK    4  A    between atoms: N_10  and  C_11
REMARK    5  A    between atoms: C_15  and  C_16
REMARK                            x       y       z     vdW  Elec       q    Type
REMARK                         _______ _______ _______ _____ _____    ______ ____
ROOT
ATOM      1  C   UNL     1      -0.813  12.218  20.101  0.00  0.00    +0.000 A 
ATOM      2  C   UNL     1      -0.171  13.283  19.466  0.00  0.00    +0.000 A 
ATOM      3  C   UNL     1       1.008  13.088  18.758  0.00  0.00    +0.000 A 
ATOM      4  C   UNL     1       1.557  11.813  18.671  0.00  0.00    +0.000 A 
ATOM      5  C   UNL     1       0.940  10.705  19.282  0.00  0.00    +0.000 A 
ATOM      6  C   UNL     1      -0.235  10.940  20.032  0.00  0.00    +0.000 A 
ENDROOT
BRANCH   5   7
ATOM      7  C   UNL     1       1.491   9.352  19.095  0.00  0.00    +0.000 A 
ATOM      8  C   UNL     1       2.040   8.928  17.895  0.00  0.00    +0.000 A 
ATOM      9  C   UNL     1       2.575   7.645  17.788  0.00  0.00    +0.000 A 
ATOM     10  C   UNL     1       2.561   6.779  18.872  0.00  0.00    +0.000 A 
ATOM     11  N   UNL     1       3.133   5.528  18.794  0.00  0.00    +0.000 N 
ATOM     12  C   UNL     1       3.152   4.730  17.564  0.00  0.00    +0.000 C 
ATOM     13  C   UNL     1       2.382   3.414  17.765  0.00  0.00    +0.000 C 
ATOM     14  O   UNL     1       2.854   2.691  18.911  0.00  0.00    +0.000 OA
ATOM     15  C   UNL     1       2.678   3.481  20.099  0.00  0.00    +0.000 C 
ATOM     16  C   UNL     1       3.466   4.795  20.022  0.00  0.00    +0.000 C 
ATOM     17  N   UNL     1       2.011   7.223  20.022  0.00  0.00    +0.000 NA
ATOM     18  N   UNL     1       1.464   8.503  20.140  0.00  0.00    +0.000 NA
ENDBRANCH   5   7
BRANCH   1  21
ATOM     19  C   UNL     1      -2.144  12.437  22.188  0.00  0.00    +0.000 C 
ATOM     20  O   UNL     1      -1.219  12.429  22.994  0.00  0.00    +0.000 OA
ATOM     21  N   UNL     1      -2.033  12.376  20.805  0.00  0.00    +0.000 N 
ATOM     22  H   UNL     1      -2.848  12.606  20.256  0.00  0.00    +0.000 HD
BRANCH  19  27
ATOM     23  C   UNL     1      -5.894  12.907  22.494  0.00  0.00    +0.000 A 
ATOM     24  C   UNL     1      -6.048  12.729  23.874  0.00  0.00    +0.000 A 
ATOM     25  C   UNL     1      -4.947  12.471  24.688  0.00  0.00    +0.000 A 
ATOM     26  C   UNL     1      -3.679  12.397  24.123  0.00  0.00    +0.000 A 
ATOM     27  C   UNL     1      -3.512  12.587  22.742  0.00  0.00    +0.000 A 
ATOM     28  C   UNL     1      -4.621  12.831  21.923  0.00  0.00    +0.000 A 
BRANCH  23  30
ATOM     29  C   UNL     1      -7.423  12.202  20.815  0.00  0.00    +0.000 C 
ATOM     30  O   UNL     1      -7.062  13.138  21.821  0.00  0.00    +0.000 OA
ENDBRANCH  23  30
ENDBRANCH  19  27
ENDBRANCH   1  21
TORSDOF 4
ENDMDL
MODEL 4
REMARK VINA RESULT:      -7.9      3.550     10.318
REMARK  Name = 
REMARK  5 active torsions:
REMARK  status: ('A' for Active; 'I' for Inactive)
REMARK    1  A    between atoms: C_1  and  O_2
REMARK    2  A    between atoms: O_2  and  C_3
REMARK    3  A    between atoms: C_7  and  C_8
REMARK    4  A    between atoms: N_10  and  C_11
REMARK    5  A    between atoms: C_15  and  C_16
REMARK                            x       y       z     vdW  Elec       q    Type
REMARK                         _______ _______ _______ _____ _____    ______ ____
ROOT
ATOM      1  C   UNL     1       0.324  11.979  21.064  0.00  0.00    +0.000 A 
ATOM      2  C   UNL     1      -0.473  11.808  22.198  0.00  0.00    +0.000 A 
ATOM      3  C   UNL     1      -0.730  10.541  22.707  0.00  0.00    +0.000 A 
ATOM      4  C   UNL     1      -0.180   9.425  22.087  0.00  0.00    +0.000 A 
ATOM      5  C   UNL     1       0.641   9.546  20.950  0.00  0.00    +0.000 A 
ATOM      6  C   UNL     1       0.850  10.842  20.427  0.00  0.00    +0.000 A 
ENDROOT
BRANCH   5   7
ATOM      7  C   UNL     1       1.286   8.356  20.370  0.00  0.00    +0.000 A 
ATOM      8  C   UNL     1       1.933   8.378  19.145  0.00  0.00    +0.000 A 
ATOM      9  C   UNL     1       2.553   7.226  18.663  0.00  0.00    +0.000 A 
ATOM     10  C   UNL     1       2.526   6.048  19.394  0.00  0.00    +0.000 A 
ATOM     11  N   UNL     1       3.178   4.918  18.953  0.00  0.00    +0.000 N 
ATOM     12  C   UNL     1       3.324   4.578  17.534  0.00  0.00    +0.000 C 
ATOM     13  C   UNL     1       2.626   3.242  17.227  0.00  0.00    +0.000 C 
ATOM     14  O   UNL     1       3.070   2.196  18.103  0.00  0.00    +0.000 OA
ATOM     15  C   UNL     1       2.772   2.536  19.468  0.00  0.00    +0.000 C 
ATOM     16  C   UNL     1       3.480   3.830  19.892  0.00  0.00    +0.000 C 
ATOM     17  N   UNL     1       1.879   6.061  20.579  0.00  0.00    +0.000 NA
ATOM     18  N   UNL     1       1.247   7.206  21.070  0.00  0.00    +0.000 NA
ENDBRANCH   5   7
BRANCH   1  21
ATOM     19  C   UNL     1       0.081  13.786  19.375  0.00  0.00    +0.000 C 
ATOM     20  O   UNL     1      -0.785  13.266  18.677  0.00  0.00    +0.000 OA
ATOM     21  N   UNL     1       0.631  13.258  20.535  0.00  0.00    +0.000 N 
ATOM     22  H   UNL     1       1.171  13.875  21.124  0.00  0.00    +0.000 HD
BRANCH  19  27
ATOM     23  C   UNL     1       2.277  16.745  18.484  0.00  0.00    +0.000 A 
ATOM     24  C   UNL     1       1.297  17.662  18.087  0.00  0.00    +0.000 A 
ATOM     25  C   UNL     1      -0.054  17.323  18.119  0.00  0.00    +0.000 A 
ATOM     26  C   UNL     1      -0.432  16.060  18.560  0.00  0.00    +0.000 A 
ATOM     27  C   UNL     1       0.542  15.137  18.972  0.00  0.00    +0.000 A 
ATOM     28  C   UNL     1       1.900  15.474  18.925  0.00  0.00    +0.000 A 
BRANCH  23  30
ATOM     29  C   UNL     1       4.601  16.245  18.415  0.00  0.00    +0.000 C 
ATOM     30  O   UNL     1       3.560  17.211  18.385  0.00  0.00    +0.000 OA
ENDBRANCH  23  30
ENDBRANCH  19  27
ENDBRANCH   1  21
TORSDOF 4
ENDMDL
MODEL 5
REMARK VINA RESULT:      -7.9      3.709     11.176
REMARK  Name = 
REMARK  5 active torsions:
REMARK  status: ('A' for Active; 'I' for Inactive)
REMARK    1  A    between atoms: C_1  and  O_2
REMARK    2  A    between atoms: O_2  and  C_3
REMARK    3  A    between atoms: C_7  and  C_8
REMARK    4  A    between atoms: N_10  and  C_11
REMARK    5  A    between atoms: C_15  and  C_16
REMARK                            x       y       z     vdW  Elec       q    Type
REMARK                         _______ _______ _______ _____ _____    ______ ____
ROOT
ATOM      1  C   UNL     1      -1.083  12.018  19.176  0.00  0.00    +0.000 A 
ATOM      2  C   UNL     1      -0.289  13.154  19.007  0.00  0.00    +0.000 A 
ATOM      3  C   UNL     1       1.084  13.047  18.823  0.00  0.00    +0.000 A 
ATOM      4  C   UNL     1       1.679  11.790  18.797  0.00  0.00    +0.000 A 
ATOM      5  C   UNL     1       0.920  10.614  18.949  0.00  0.00    +0.000 A 
ATOM      6  C   UNL     1      -0.467  10.755  19.178  0.00  0.00    +0.000 A 
ENDROOT
BRANCH   5   7
ATOM      7  C   UNL     1       1.562   9.295  18.823  0.00  0.00    +0.000 A 
ATOM      8  C   UNL     1       2.235   8.897  17.679  0.00  0.00    +0.000 A 
ATOM      9  C   UNL     1       2.850   7.647  17.631  0.00  0.00    +0.000 A 
ATOM     10  C   UNL     1       2.793   6.787  18.718  0.00  0.00    +0.000 A 
ATOM     11  N   UNL     1       3.440   5.571  18.702  0.00  0.00    +0.000 N 
ATOM     12  C   UNL     1       3.612   4.769  17.486  0.00  0.00    +0.000 C 
ATOM     13  C   UNL     1       2.904   3.412  17.634  0.00  0.00    +0.000 C 
ATOM     14  O   UNL     1       3.316   2.723  18.823  0.00  0.00    +0.000 OA
ATOM     15  C   UNL     1       2.993   3.507  19.984  0.00  0.00    +0.000 C 
ATOM     16  C   UNL     1       3.708   4.865  19.961  0.00  0.00    +0.000 C 
ATOM     17  N   UNL     1       2.121   7.204  19.813  0.00  0.00    +0.000 NA
ATOM     18  N   UNL     1       1.494   8.451  19.870  0.00  0.00    +0.000 NA
ENDBRANCH   5   7
BRANCH   1  21
ATOM     19  C   UNL     1      -3.413  11.834  18.330  0.00  0.00    +0.000 C 
ATOM     20  O   UNL     1      -3.162  11.454  17.191  0.00  0.00    +0.000 OA
ATOM     21  N   UNL     1      -2.489  12.089  19.336  0.00  0.00    +0.000 N 
ATOM     22  H   UNL     1      -2.835  12.186  20.279  0.00  0.00    +0.000 HD
BRANCH  19  27
ATOM     23  C   UNL     1      -6.621  12.386  20.274  0.00  0.00    +0.000 A 
ATOM     24  C   UNL     1      -7.548  12.352  19.225  0.00  0.00    +0.000 A 
ATOM     25  C   UNL     1      -7.132  12.142  17.911  0.00  0.00    +0.000 A 
ATOM     26  C   UNL     1      -5.782  11.957  17.641  0.00  0.00    +0.000 A 
ATOM     27  C   UNL     1      -4.846  11.977  18.688  0.00  0.00    +0.000 A 
ATOM     28  C   UNL     1      -5.263  12.203  20.005  0.00  0.00    +0.000 A 
BRANCH  23  30
ATOM     29  C   UNL     1      -6.271  12.845  22.581  0.00  0.00    +0.000 C 
ATOM     30  O   UNL     1      -7.171  12.615  21.505  0.00  0.00    +0.000 OA
ENDBRANCH  23  30
ENDBRANCH  19  27
ENDBRANCH   1  21
TORSDOF 4
ENDMDL
MODEL 6
REMARK VINA RESULT:      -7.7      3.713     11.791
REMARK  Name = 
REMARK  5 active torsions:
REMARK  status: ('A' for Active; 'I' for Inactive)
REMARK    1  A    between atoms: C_1  and  O_2
REMARK    2  A    between atoms: O_2  and  C_3
REMARK    3  A    between atoms: C_7  and  C_8
REMARK    4  A    between atoms: N_10  and  C_11
REMARK    5  A    between atoms: C_15  and  C_16
REMARK                            x       y       z     vdW  Elec       q    Type
REMARK                         _______ _______ _______ _____ _____    ______ ____
ROOT
ATOM      1  C   UNL     1      -1.264  12.369  19.754  0.00  0.00    +0.000 A 
ATOM      2  C   UNL     1      -0.638  13.481  19.187  0.00  0.00    +0.000 A 
ATOM      3  C   UNL     1       0.611  13.370  18.589  0.00  0.00    +0.000 A 
ATOM      4  C   UNL     1       1.246  12.134  18.543  0.00  0.00    +0.000 A 
ATOM      5  C   UNL     1       0.650  10.981  19.088  0.00  0.00    +0.000 A 
ATOM      6  C   UNL     1      -0.601  11.131  19.729  0.00  0.00    +0.000 A 
ENDROOT
BRANCH   5   7
ATOM      7  C   UNL     1       1.302   9.668  18.942  0.00  0.00    +0.000 A 
ATOM      8  C   UNL     1       1.956   9.283  17.783  0.00  0.00    +0.000 A 
ATOM      9  C   UNL     1       2.582   8.040  17.717  0.00  0.00    +0.000 A 
ATOM     10  C   UNL     1       2.555   7.173  18.800  0.00  0.00    +0.000 A 
ATOM     11  N   UNL     1       3.213   5.964  18.764  0.00  0.00    +0.000 N 
ATOM     12  C   UNL     1       3.368   5.170  17.541  0.00  0.00    +0.000 C 
ATOM     13  C   UNL     1       2.676   3.806  17.695  0.00  0.00    +0.000 C 
ATOM     14  O   UNL     1       3.118   3.114  18.872  0.00  0.00    +0.000 OA
ATOM     15  C   UNL     1       2.810   3.889  20.044  0.00  0.00    +0.000 C 
ATOM     16  C   UNL     1       3.512   5.254  20.014  0.00  0.00    +0.000 C 
ATOM     17  N   UNL     1       1.900   7.578  19.910  0.00  0.00    +0.000 NA
ATOM     18  N   UNL     1       1.262   8.818  19.986  0.00  0.00    +0.000 NA
ENDBRANCH   5   7
BRANCH   1  21
ATOM     19  C   UNL     1      -3.744  12.231  19.667  0.00  0.00    +0.000 C 
ATOM     20  O   UNL     1      -3.866  11.899  18.492  0.00  0.00    +0.000 OA
ATOM     21  N   UNL     1      -2.551  12.439  20.346  0.00  0.00    +0.000 N 
ATOM     22  H   UNL     1      -2.585  12.497  21.352  0.00  0.00    +0.000 HD
BRANCH  19  27
ATOM     23  C   UNL     1      -6.241  13.178  22.360  0.00  0.00    +0.000 A 
ATOM     24  C   UNL     1      -7.413  12.662  21.794  0.00  0.00    +0.000 A 
ATOM     25  C   UNL     1      -7.385  12.010  20.563  0.00  0.00    +0.000 A 
ATOM     26  C   UNL     1      -6.176  11.863  19.893  0.00  0.00    +0.000 A 
ATOM     27  C   UNL     1      -4.993  12.365  20.457  0.00  0.00    +0.000 A 
ATOM     28  C   UNL     1      -5.025  13.033  21.687  0.00  0.00    +0.000 A 
BRANCH  23  30
ATOM     29  C   UNL     1      -7.662  13.586  24.222  0.00  0.00    +0.000 C 
ATOM     30  O   UNL     1      -6.422  13.804  23.562  0.00  0.00    +0.000 OA
ENDBRANCH  23  30
ENDBRANCH  19  27
ENDBRANCH   1  21
TORSDOF 4
ENDMDL
MODEL 7
REMARK VINA RESULT:      -7.7      1.455      2.247
REMARK  Name = 
REMARK  5 active torsions:
REMARK  status: ('A' for Active; 'I' for Inactive)
REMARK    1  A    between atoms: C_1  and  O_2
REMARK    2  A    between atoms: O_2  and  C_3
REMARK    3  A    between atoms: C_7  and  C_8
REMARK    4  A    between atoms: N_10  and  C_11
REMARK    5  A    between atoms: C_15  and  C_16
REMARK                            x       y       z     vdW  Elec       q    Type
REMARK                         _______ _______ _______ _____ _____    ______ ____
ROOT
ATOM      1  C   UNL     1       3.065   5.392  18.754  0.00  0.00    +0.000 A 
ATOM      2  C   UNL     1       2.609   4.312  19.512  0.00  0.00    +0.000 A 
ATOM      3  C   UNL     1       1.796   4.510  20.621  0.00  0.00    +0.000 A 
ATOM      4  C   UNL     1       1.421   5.800  20.980  0.00  0.00    +0.000 A 
ATOM      5  C   UNL     1       1.844   6.920  20.239  0.00  0.00    +0.000 A 
ATOM      6  C   UNL     1       2.706   6.694  19.142  0.00  0.00    +0.000 A 
ENDROOT
BRANCH   5   7
ATOM      7  C   UNL     1       1.355   8.266  20.585  0.00  0.00    +0.000 A 
ATOM      8  C   UNL     1       0.971   8.615  21.870  0.00  0.00    +0.000 A 
ATOM      9  C   UNL     1       0.547   9.914  22.142  0.00  0.00    +0.000 A 
ATOM     10  C   UNL     1       0.498  10.869  21.137  0.00  0.00    +0.000 A 
ATOM     11  N   UNL     1       0.130  12.169  21.404  0.00  0.00    +0.000 N 
ATOM     12  C   UNL     1      -0.850  12.531  22.434  0.00  0.00    +0.000 C 
ATOM     13  C   UNL     1      -2.061  13.233  21.799  0.00  0.00    +0.000 C 
ATOM     14  O   UNL     1      -1.665  14.347  20.986  0.00  0.00    +0.000 OA
ATOM     15  C   UNL     1      -0.816  13.899  19.915  0.00  0.00    +0.000 C 
ATOM     16  C   UNL     1       0.461  13.237  20.451  0.00  0.00    +0.000 C 
ATOM     17  N   UNL     1       0.871  10.492  19.895  0.00  0.00    +0.000 NA
ATOM     18  N   UNL     1       1.290   9.191  19.608  0.00  0.00    +0.000 NA
ENDBRANCH   5   7
BRANCH   1  21
ATOM     19  C   UNL     1       5.172   4.739  17.607  0.00  0.00    +0.000 C 
ATOM     20  O   UNL     1       5.789   4.327  18.584  0.00  0.00    +0.000 OA
ATOM     21  N   UNL     1       3.871   5.225  17.599  0.00  0.00    +0.000 N 
ATOM     22  H   UNL     1       3.412   5.328  16.707  0.00  0.00    +0.000 HD
BRANCH  19  27
ATOM     23  C   UNL     1       5.962   3.988  13.976  0.00  0.00    +0.000 A 
ATOM     24  C   UNL     1       7.184   4.660  13.851  0.00  0.00    +0.000 A 
ATOM     25  C   UNL     1       7.741   5.336  14.934  0.00  0.00    +0.000 A 
ATOM     26  C   UNL     1       7.080   5.335  16.156  0.00  0.00    +0.000 A 
ATOM     27  C   UNL     1       5.860   4.653  16.296  0.00  0.00    +0.000 A 
ATOM     28  C   UNL     1       5.293   3.988  15.202  0.00  0.00    +0.000 A 
BRANCH  23  30
ATOM     29  C   UNL     1       6.493   3.183  11.802  0.00  0.00    +0.000 C 
ATOM     30  O   UNL     1       5.530   3.384  12.827  0.00  0.00    +0.000 OA
ENDBRANCH  23  30
ENDBRANCH  19  27
ENDBRANCH   1  21
TORSDOF 4
ENDMDL
MODEL 8
REMARK VINA RESULT:      -7.7      3.535     10.515
REMARK  Name = 
REMARK  5 active torsions:
REMARK  status: ('A' for Active; 'I' for Inactive)
REMARK    1  A    between atoms: C_1  and  O_2
REMARK    2  A    between atoms: O_2  and  C_3
REMARK    3  A    between atoms: C_7  and  C_8
REMARK    4  A    between atoms: N_10  and  C_11
REMARK    5  A    between atoms: C_15  and  C_16
REMARK                            x       y       z     vdW  Elec       q    Type
REMARK                         _______ _______ _______ _____ _____    ______ ____
ROOT
ATOM      1  C   UNL     1       0.384  11.782  21.001  0.00  0.00    +0.000 A 
ATOM      2  C   UNL     1      -0.381  11.627  22.159  0.00  0.00    +0.000 A 
ATOM      3  C   UNL     1      -0.614  10.368  22.698  0.00  0.00    +0.000 A 
ATOM      4  C   UNL     1      -0.073   9.244  22.084  0.00  0.00    +0.000 A 
ATOM      5  C   UNL     1       0.716   9.349  20.923  0.00  0.00    +0.000 A 
ATOM      6  C   UNL     1       0.901  10.637  20.371  0.00  0.00    +0.000 A 
ENDROOT
BRANCH   5   7
ATOM      7  C   UNL     1       1.355   8.153  20.348  0.00  0.00    +0.000 A 
ATOM      8  C   UNL     1       2.028   8.173  19.137  0.00  0.00    +0.000 A 
ATOM      9  C   UNL     1       2.639   7.016  18.659  0.00  0.00    +0.000 A 
ATOM     10  C   UNL     1       2.578   5.832  19.381  0.00  0.00    +0.000 A 
ATOM     11  N   UNL     1       3.222   4.695  18.945  0.00  0.00    +0.000 N 
ATOM     12  C   UNL     1       3.391   4.363  17.527  0.00  0.00    +0.000 C 
ATOM     13  C   UNL     1       2.680   3.041  17.197  0.00  0.00    +0.000 C 
ATOM     14  O   UNL     1       3.089   1.982  18.073  0.00  0.00    +0.000 OA
ATOM     15  C   UNL     1       2.767   2.317  19.435  0.00  0.00    +0.000 C 
ATOM     16  C   UNL     1       3.486   3.596  19.883  0.00  0.00    +0.000 C 
ATOM     17  N   UNL     1       1.907   5.847  20.553  0.00  0.00    +0.000 NA
ATOM     18  N   UNL     1       1.283   6.999  21.038  0.00  0.00    +0.000 NA
ENDBRANCH   5   7
BRANCH   1  21
ATOM     19  C   UNL     1       0.018  13.592  19.337  0.00  0.00    +0.000 C 
ATOM     20  O   UNL     1      -0.923  13.091  18.729  0.00  0.00    +0.000 OA
ATOM     21  N   UNL     1       0.667  13.053  20.441  0.00  0.00    +0.000 N 
ATOM     22  H   UNL     1       1.275  13.658  20.972  0.00  0.00    +0.000 HD
BRANCH  19  27
ATOM     23  C   UNL     1       0.049  17.221  18.241  0.00  0.00    +0.000 A 
ATOM     24  C   UNL     1       1.430  17.440  18.170  0.00  0.00    +0.000 A 
ATOM     25  C   UNL     1       2.331  16.419  18.464  0.00  0.00    +0.000 A 
ATOM     26  C   UNL     1       1.852  15.166  18.825  0.00  0.00    +0.000 A 
ATOM     27  C   UNL     1       0.469  14.932  18.887  0.00  0.00    +0.000 A 
ATOM     28  C   UNL     1      -0.435  15.963  18.606  0.00  0.00    +0.000 A 
BRANCH  23  30
ATOM     29  C   UNL     1      -1.990  18.403  18.555  0.00  0.00    +0.000 C 
ATOM     30  O   UNL     1      -0.712  18.317  17.940  0.00  0.00    +0.000 OA
ENDBRANCH  23  30
ENDBRANCH  19  27
ENDBRANCH   1  21
TORSDOF 4
ENDMDL
MODEL 9
REMARK VINA RESULT:      -7.7      1.693      2.506
REMARK  Name = 
REMARK  5 active torsions:
REMARK  status: ('A' for Active; 'I' for Inactive)
REMARK    1  A    between atoms: C_1  and  O_2
REMARK    2  A    between atoms: O_2  and  C_3
REMARK    3  A    between atoms: C_7  and  C_8
REMARK    4  A    between atoms: N_10  and  C_11
REMARK    5  A    between atoms: C_15  and  C_16
REMARK                            x       y       z     vdW  Elec       q    Type
REMARK                         _______ _______ _______ _____ _____    ______ ____
ROOT
ATOM      1  C   UNL     1       3.174   5.212  18.443  0.00  0.00    +0.000 A 
ATOM      2  C   UNL     1       2.851   4.137  19.273  0.00  0.00    +0.000 A 
ATOM      3  C   UNL     1       2.147   4.333  20.455  0.00  0.00    +0.000 A 
ATOM      4  C   UNL     1       1.749   5.615  20.816  0.00  0.00    +0.000 A 
ATOM      5  C   UNL     1       2.038   6.729  20.006  0.00  0.00    +0.000 A 
ATOM      6  C   UNL     1       2.792   6.508  18.832  0.00  0.00    +0.000 A 
ENDROOT
BRANCH   5   7
ATOM      7  C   UNL     1       1.522   8.062  20.364  0.00  0.00    +0.000 A 
ATOM      8  C   UNL     1       1.190   8.410  21.664  0.00  0.00    +0.000 A 
ATOM      9  C   UNL     1       0.737   9.697  21.946  0.00  0.00    +0.000 A 
ATOM     10  C   UNL     1       0.606  10.641  20.937  0.00  0.00    +0.000 A 
ATOM     11  N   UNL     1       0.209  11.930  21.211  0.00  0.00    +0.000 N 
ATOM     12  C   UNL     1      -0.731  12.269  22.285  0.00  0.00    +0.000 C 
ATOM     13  C   UNL     1      -1.995  12.925  21.705  0.00  0.00    +0.000 C 
ATOM     14  O   UNL     1      -1.677  14.044  20.865  0.00  0.00    +0.000 OA
ATOM     15  C   UNL     1      -0.867  13.613  19.757  0.00  0.00    +0.000 C 
ATOM     16  C   UNL     1       0.456  12.998  20.234  0.00  0.00    +0.000 C 
ATOM     17  N   UNL     1       0.930  10.263  19.681  0.00  0.00    +0.000 NA
ATOM     18  N   UNL     1       1.378   8.974  19.384  0.00  0.00    +0.000 NA
ENDBRANCH   5   7
BRANCH   1  21
ATOM     19  C   UNL     1       5.224   4.792  17.103  0.00  0.00    +0.000 C 
ATOM     20  O   UNL     1       6.011   4.611  18.028  0.00  0.00    +0.000 OA
ATOM     21  N   UNL     1       3.864   5.046  17.216  0.00  0.00    +0.000 N 
ATOM     22  H   UNL     1       3.298   4.961  16.385  0.00  0.00    +0.000 HD
BRANCH  19  27
ATOM     23  C   UNL     1       7.427   5.131  14.036  0.00  0.00    +0.000 A 
ATOM     24  C   UNL     1       6.762   4.261  13.164  0.00  0.00    +0.000 A 
ATOM     25  C   UNL     1       5.613   3.585  13.568  0.00  0.00    +0.000 A 
ATOM     26  C   UNL     1       5.116   3.785  14.850  0.00  0.00    +0.000 A 
ATOM     27  C   UNL     1       5.768   4.666  15.728  0.00  0.00    +0.000 A 
ATOM     28  C   UNL     1       6.931   5.332  15.326  0.00  0.00    +0.000 A 
BRANCH  23  30
ATOM     29  C   UNL     1       8.463   6.181  12.170  0.00  0.00    +0.000 C 
ATOM     30  O   UNL     1       8.548   5.711  13.509  0.00  0.00    +0.000 OA
ENDBRANCH  23  30
ENDBRANCH  19  27
ENDBRANCH   1  21
TORSDOF 4
ENDMDL
