MODEL 1
REMARK VINA RESULT:      -7.4      0.000      0.000
REMARK  Name = 
REMARK  7 active torsions:
REMARK  status: ('A' for Active; 'I' for Inactive)
REMARK    1  A    between atoms: C_2  and  C_5
REMARK    2  A    between atoms: C_5  and  O_6
REMARK    3  A    between atoms: O_6  and  C_7
REMARK    4  A    between atoms: C_10  and  C_11
REMARK    5  A    between atoms: N_12  and  N_13
REMARK    6  A    between atoms: C_17  and  C_18
REMARK    7  A    between atoms: N_24  and  C_25
REMARK                            x       y       z     vdW  Elec       q    Type
REMARK                         _______ _______ _______ _____ _____    ______ ____
ROOT
ATOM      1  N   UNL     1       0.709  10.111  19.328  0.00  0.00    +0.000 NA
ATOM      2  C   UNL     1       1.016  11.362  19.127  0.00  0.00    +0.000 A 
ATOM      3  S   UNL     1       2.323  11.867  17.975  0.00  0.00    +0.000 S 
ATOM      4  C   UNL     1       2.059  13.537  18.341  0.00  0.00    +0.000 A 
ATOM      5  C   UNL     1       1.078  13.704  19.245  0.00  0.00    +0.000 A 
ATOM      6  N   UNL     1       0.466  12.519  19.718  0.00  0.00    +0.000 N 
ENDROOT
BRANCH   5   7
ATOM      7  C   UNL     1       0.674  15.070  19.583  0.00  0.00    +0.000 A 
ATOM      8  C   UNL     1       1.149  15.688  20.745  0.00  0.00    +0.000 A 
ATOM      9  C   UNL     1       0.765  16.995  21.052  0.00  0.00    +0.000 A 
ATOM     10  C   UNL     1      -0.085  17.694  20.194  0.00  0.00    +0.000 A 
ATOM     11  C   UNL     1      -0.577  17.079  19.045  0.00  0.00    +0.000 A 
ATOM     12  C   UNL     1      -0.224  15.761  18.754  0.00  0.00    +0.000 A 
ENDBRANCH   5   7
BRANCH   6  13
ATOM     13  C   UNL     1      -0.608  12.444  20.665  0.00  0.00    +0.000 A 
ATOM     14  C   UNL     1      -1.947  12.662  20.284  0.00  0.00    +0.000 A 
ATOM     15  C   UNL     1      -3.001  12.590  21.204  0.00  0.00    +0.000 A 
ATOM     16  C   UNL     1      -2.744  12.328  22.543  0.00  0.00    +0.000 A 
ATOM     17  C   UNL     1      -1.438  12.102  22.952  0.00  0.00    +0.000 A 
ATOM     18  C   UNL     1      -0.397  12.135  22.018  0.00  0.00    +0.000 A 
ENDBRANCH   6  13
BRANCH   1  20
ATOM     19  C   UNL     1       1.875   8.215  19.213  0.00  0.00    +0.000 C 
ATOM     20  N   UNL     1       1.407   9.213  18.540  0.00  0.00    +0.000 NA
BRANCH  19  24
ATOM     21  C   UNL     1       4.087   5.151  17.244  0.00  0.00    +0.000 A 
ATOM     22  C   UNL     1       4.426   6.490  17.057  0.00  0.00    +0.000 A 
ATOM     23  C   UNL     1       3.701   7.484  17.705  0.00  0.00    +0.000 A 
ATOM     24  C   UNL     1       2.615   7.146  18.518  0.00  0.00    +0.000 A 
ATOM     25  C   UNL     1       2.234   5.813  18.665  0.00  0.00    +0.000 A 
ATOM     26  C   UNL     1       2.972   4.815  18.018  0.00  0.00    +0.000 A 
BRANCH  21  27
ATOM     27  O   UNL     1       4.784   4.099  16.715  0.00  0.00    +0.000 OA
BRANCH  27  28
ATOM     28  C   UNL     1       6.137   4.402  16.339  0.00  0.00    +0.000 C 
BRANCH  28  30
ATOM     29  F   UNL     1       6.320   3.188  14.276  0.00  0.00    +0.000 F 
ATOM     30  C   UNL     1       6.318   4.420  14.827  0.00  0.00    +0.000 C 
ATOM     31  F   UNL     1       7.486   5.018  14.492  0.00  0.00    +0.000 F 
ATOM     32  F   UNL     1       5.325   5.127  14.236  0.00  0.00    +0.000 F 
ENDBRANCH  28  30
ENDBRANCH  27  28
ENDBRANCH  21  27
ENDBRANCH  19  24
ENDBRANCH   1  20
TORSDOF 7
ENDMDL
MODEL 2
REMARK VINA RESULT:      -7.4      0.140      1.383
REMARK  Name = 
REMARK  7 active torsions:
REMARK  status: ('A' for Active; 'I' for Inactive)
REMARK    1  A    between atoms: C_2  and  C_5
REMARK    2  A    between atoms: C_5  and  O_6
REMARK    3  A    between atoms: O_6  and  C_7
REMARK    4  A    between atoms: C_10  and  C_11
REMARK    5  A    between atoms: N_12  and  N_13
REMARK    6  A    between atoms: C_17  and  C_18
REMARK    7  A    between atoms: N_24  and  C_25
REMARK                            x       y       z     vdW  Elec       q    Type
REMARK                         _______ _______ _______ _____ _____    ______ ____
ROOT
ATOM      1  N   UNL     1       0.702  10.099  19.385  0.00  0.00    +0.000 NA
ATOM      2  C   UNL     1       1.015  11.342  19.155  0.00  0.00    +0.000 A 
ATOM      3  S   UNL     1       2.334  11.814  18.002  0.00  0.00    +0.000 S 
ATOM      4  C   UNL     1       2.072  13.494  18.323  0.00  0.00    +0.000 A 
ATOM      5  C   UNL     1       1.084  13.687  19.215  0.00  0.00    +0.000 A 
ATOM      6  N   UNL     1       0.464  12.516  19.713  0.00  0.00    +0.000 N 
ENDROOT
BRANCH   5   7
ATOM      7  C   UNL     1       0.682  15.062  19.515  0.00  0.00    +0.000 A 
ATOM      8  C   UNL     1      -0.260  15.722  18.718  0.00  0.00    +0.000 A 
ATOM      9  C   UNL     1      -0.642  17.030  19.020  0.00  0.00    +0.000 A 
ATOM     10  C   UNL     1      -0.094  17.681  20.126  0.00  0.00    +0.000 A 
ATOM     11  C   UNL     1       0.858  17.038  20.914  0.00  0.00    +0.000 A 
ATOM     12  C   UNL     1       1.268  15.744  20.594  0.00  0.00    +0.000 A 
ENDBRANCH   5   7
BRANCH   6  13
ATOM     13  C   UNL     1      -0.618  12.469  20.652  0.00  0.00    +0.000 A 
ATOM     14  C   UNL     1      -1.955  12.663  20.251  0.00  0.00    +0.000 A 
ATOM     15  C   UNL     1      -3.017  12.617  21.164  0.00  0.00    +0.000 A 
ATOM     16  C   UNL     1      -2.771  12.407  22.514  0.00  0.00    +0.000 A 
ATOM     17  C   UNL     1      -1.467  12.205  22.942  0.00  0.00    +0.000 A 
ATOM     18  C   UNL     1      -0.418  12.211  22.017  0.00  0.00    +0.000 A 
ENDBRANCH   6  13
BRANCH   1  20
ATOM     19  C   UNL     1       1.869   8.200  19.329  0.00  0.00    +0.000 C 
ATOM     20  N   UNL     1       1.404   9.178  18.626  0.00  0.00    +0.000 NA
BRANCH  19  24
ATOM     21  C   UNL     1       3.941   5.022  17.388  0.00  0.00    +0.000 A 
ATOM     22  C   UNL     1       2.968   4.742  18.347  0.00  0.00    +0.000 A 
ATOM     23  C   UNL     1       2.295   5.785  18.974  0.00  0.00    +0.000 A 
ATOM     24  C   UNL     1       2.612   7.112  18.668  0.00  0.00    +0.000 A 
ATOM     25  C   UNL     1       3.623   7.401  17.753  0.00  0.00    +0.000 A 
ATOM     26  C   UNL     1       4.292   6.349  17.117  0.00  0.00    +0.000 A 
BRANCH  21  27
ATOM     27  O   UNL     1       4.602   4.070  16.661  0.00  0.00    +0.000 OA
BRANCH  27  28
ATOM     28  C   UNL     1       5.986   4.362  16.405  0.00  0.00    +0.000 C 
BRANCH  28  30
ATOM     29  F   UNL     1       7.476   5.035  14.648  0.00  0.00    +0.000 F 
ATOM     30  C   UNL     1       6.280   4.469  14.915  0.00  0.00    +0.000 C 
ATOM     31  F   UNL     1       5.331   5.209  14.293  0.00  0.00    +0.000 F 
ATOM     32  F   UNL     1       6.272   3.244  14.337  0.00  0.00    +0.000 F 
ENDBRANCH  28  30
ENDBRANCH  27  28
ENDBRANCH  21  27
ENDBRANCH  19  24
ENDBRANCH   1  20
TORSDOF 7
ENDMDL
MODEL 3
REMARK VINA RESULT:      -7.4      2.101      2.614
REMARK  Name = 
REMARK  7 active torsions:
REMARK  status: ('A' for Active; 'I' for Inactive)
REMARK    1  A    between atoms: C_2  and  C_5
REMARK    2  A    between atoms: C_5  and  O_6
REMARK    3  A    between atoms: O_6  and  C_7
REMARK    4  A    between atoms: C_10  and  C_11
REMARK    5  A    between atoms: N_12  and  N_13
REMARK    6  A    between atoms: C_17  and  C_18
REMARK    7  A    between atoms: N_24  and  C_25
REMARK                            x       y       z     vdW  Elec       q    Type
REMARK                         _______ _______ _______ _____ _____    ______ ____
ROOT
ATOM      1  N   UNL     1       0.349  10.460  19.939  0.00  0.00    +0.000 NA
ATOM      2  C   UNL     1       0.726  11.650  19.565  0.00  0.00    +0.000 A 
ATOM      3  S   UNL     1       2.066  11.913  18.371  0.00  0.00    +0.000 S 
ATOM      4  C   UNL     1       1.892  13.631  18.490  0.00  0.00    +0.000 A 
ATOM      5  C   UNL     1       0.916  13.978  19.347  0.00  0.00    +0.000 A 
ATOM      6  N   UNL     1       0.237  12.908  19.977  0.00  0.00    +0.000 N 
ENDROOT
BRANCH   5   7
ATOM      7  C   UNL     1       0.586  15.398  19.481  0.00  0.00    +0.000 A 
ATOM      8  C   UNL     1       1.168  16.175  20.488  0.00  0.00    +0.000 A 
ATOM      9  C   UNL     1       0.853  17.530  20.600  0.00  0.00    +0.000 A 
ATOM     10  C   UNL     1      -0.036  18.119  19.699  0.00  0.00    +0.000 A 
ATOM     11  C   UNL     1      -0.634  17.348  18.704  0.00  0.00    +0.000 A 
ATOM     12  C   UNL     1      -0.348  15.986  18.612  0.00  0.00    +0.000 A 
ENDBRANCH   5   7
BRANCH   6  13
ATOM     13  C   UNL     1      -0.845  13.028  20.910  0.00  0.00    +0.000 A 
ATOM     14  C   UNL     1      -0.618  13.136  22.296  0.00  0.00    +0.000 A 
ATOM     15  C   UNL     1      -1.671  13.253  23.213  0.00  0.00    +0.000 A 
ATOM     16  C   UNL     1      -2.988  13.234  22.773  0.00  0.00    +0.000 A 
ATOM     17  C   UNL     1      -3.247  13.136  21.414  0.00  0.00    +0.000 A 
ATOM     18  C   UNL     1      -2.188  13.062  20.503  0.00  0.00    +0.000 A 
ENDBRANCH   6  13
BRANCH   1  20
ATOM     19  C   UNL     1       1.474   8.543  20.118  0.00  0.00    +0.000 C 
ATOM     20  N   UNL     1       1.002   9.421  19.297  0.00  0.00    +0.000 NA
BRANCH  19  24
ATOM     21  C   UNL     1       3.554   5.145  18.605  0.00  0.00    +0.000 A 
ATOM     22  C   UNL     1       3.477   6.315  17.849  0.00  0.00    +0.000 A 
ATOM     23  C   UNL     1       2.799   7.420  18.351  0.00  0.00    +0.000 A 
ATOM     24  C   UNL     1       2.168   7.352  19.596  0.00  0.00    +0.000 A 
ATOM     25  C   UNL     1       2.191   6.168  20.333  0.00  0.00    +0.000 A 
ATOM     26  C   UNL     1       2.883   5.062  19.829  0.00  0.00    +0.000 A 
BRANCH  21  27
ATOM     27  O   UNL     1       4.261   4.034  18.236  0.00  0.00    +0.000 OA
BRANCH  27  28
ATOM     28  C   UNL     1       4.119   2.909  19.119  0.00  0.00    +0.000 C 
BRANCH  28  30
ATOM     29  F   UNL     1       2.693   2.174  17.334  0.00  0.00    +0.000 F 
ATOM     30  C   UNL     1       3.181   1.853  18.551  0.00  0.00    +0.000 C 
ATOM     31  F   UNL     1       2.125   1.658  19.375  0.00  0.00    +0.000 F 
ATOM     32  F   UNL     1       3.818   0.663  18.431  0.00  0.00    +0.000 F 
ENDBRANCH  28  30
ENDBRANCH  27  28
ENDBRANCH  21  27
ENDBRANCH  19  24
ENDBRANCH   1  20
TORSDOF 7
ENDMDL
MODEL 4
REMARK VINA RESULT:      -7.4      0.090      1.377
REMARK  Name = 
REMARK  7 active torsions:
REMARK  status: ('A' for Active; 'I' for Inactive)
REMARK    1  A    between atoms: C_2  and  C_5
REMARK    2  A    between atoms: C_5  and  O_6
REMARK    3  A    between atoms: O_6  and  C_7
REMARK    4  A    between atoms: C_10  and  C_11
REMARK    5  A    between atoms: N_12  and  N_13
REMARK    6  A    between atoms: C_17  and  C_18
REMARK    7  A    between atoms: N_24  and  C_25
REMARK                            x       y       z     vdW  Elec       q    Type
REMARK                         _______ _______ _______ _____ _____    ______ ____
ROOT
ATOM      1  N   UNL     1       0.687  10.159  19.352  0.00  0.00    +0.000 NA
ATOM      2  C   UNL     1       1.004  11.406  19.141  0.00  0.00    +0.000 A 
ATOM      3  S   UNL     1       2.323  11.891  17.994  0.00  0.00    +0.000 S 
ATOM      4  C   UNL     1       2.067  13.567  18.342  0.00  0.00    +0.000 A 
ATOM      5  C   UNL     1       1.080  13.748  19.238  0.00  0.00    +0.000 A 
ATOM      6  N   UNL     1       0.458  12.572  19.718  0.00  0.00    +0.000 N 
ENDROOT
BRANCH   5   7
ATOM      7  C   UNL     1       0.684  15.120  19.560  0.00  0.00    +0.000 A 
ATOM      8  C   UNL     1      -0.220  15.813  18.748  0.00  0.00    +0.000 A 
ATOM      9  C   UNL     1      -0.598  17.117  19.071  0.00  0.00    +0.000 A 
ATOM     10  C   UNL     1      -0.085  17.732  20.214  0.00  0.00    +0.000 A 
ATOM     11  C   UNL     1       0.830  17.055  21.018  0.00  0.00    +0.000 A 
ATOM     12  C   UNL     1       1.237  15.765  20.679  0.00  0.00    +0.000 A 
ENDBRANCH   5   7
BRANCH   6  13
ATOM     13  C   UNL     1      -0.624  12.514  20.658  0.00  0.00    +0.000 A 
ATOM     14  C   UNL     1      -0.402  12.257  22.025  0.00  0.00    +0.000 A 
ATOM     15  C   UNL     1      -1.454  12.199  22.949  0.00  0.00    +0.000 A 
ATOM     16  C   UNL     1      -2.766  12.364  22.527  0.00  0.00    +0.000 A 
ATOM     17  C   UNL     1      -3.020  12.624  21.188  0.00  0.00    +0.000 A 
ATOM     18  C   UNL     1      -1.960  12.723  20.281  0.00  0.00    +0.000 A 
ENDBRANCH   6  13
BRANCH   1  20
ATOM     19  C   UNL     1       1.865   8.269  19.267  0.00  0.00    +0.000 C 
ATOM     20  N   UNL     1       1.385   9.249  18.577  0.00  0.00    +0.000 NA
BRANCH  19  24
ATOM     21  C   UNL     1       4.081   5.181  17.341  0.00  0.00    +0.000 A 
ATOM     22  C   UNL     1       4.358   6.519  17.064  0.00  0.00    +0.000 A 
ATOM     23  C   UNL     1       3.631   7.521  17.699  0.00  0.00    +0.000 A 
ATOM     24  C   UNL     1       2.606   7.190  18.589  0.00  0.00    +0.000 A 
ATOM     25  C   UNL     1       2.285   5.854  18.827  0.00  0.00    +0.000 A 
ATOM     26  C   UNL     1       3.024   4.849  18.194  0.00  0.00    +0.000 A 
BRANCH  21  27
ATOM     27  O   UNL     1       4.788   4.127  16.830  0.00  0.00    +0.000 OA
BRANCH  27  28
ATOM     28  C   UNL     1       6.134   4.440  16.435  0.00  0.00    +0.000 C 
BRANCH  28  30
ATOM     29  F   UNL     1       5.306   5.144  14.295  0.00  0.00    +0.000 F 
ATOM     30  C   UNL     1       6.292   4.467  14.921  0.00  0.00    +0.000 C 
ATOM     31  F   UNL     1       6.305   3.209  14.419  0.00  0.00    +0.000 F 
ATOM     32  F   UNL     1       7.466   5.046  14.573  0.00  0.00    +0.000 F 
ENDBRANCH  28  30
ENDBRANCH  27  28
ENDBRANCH  21  27
ENDBRANCH  19  24
ENDBRANCH   1  20
TORSDOF 7
ENDMDL
MODEL 5
REMARK VINA RESULT:      -7.3      2.950      4.452
REMARK  Name = 
REMARK  7 active torsions:
REMARK  status: ('A' for Active; 'I' for Inactive)
REMARK    1  A    between atoms: C_2  and  C_5
REMARK    2  A    between atoms: C_5  and  O_6
REMARK    3  A    between atoms: O_6  and  C_7
REMARK    4  A    between atoms: C_10  and  C_11
REMARK    5  A    between atoms: N_12  and  N_13
REMARK    6  A    between atoms: C_17  and  C_18
REMARK    7  A    between atoms: N_24  and  C_25
REMARK                            x       y       z     vdW  Elec       q    Type
REMARK                         _______ _______ _______ _____ _____    ______ ____
ROOT
ATOM      1  N   UNL     1      -0.252  10.993  19.289  0.00  0.00    +0.000 NA
ATOM      2  C   UNL     1      -1.437  10.982  18.745  0.00  0.00    +0.000 A 
ATOM      3  S   UNL     1      -1.833   9.956  17.303  0.00  0.00    +0.000 S 
ATOM      4  C   UNL     1      -3.459  10.548  17.276  0.00  0.00    +0.000 A 
ATOM      5  C   UNL     1      -3.687  11.435  18.261  0.00  0.00    +0.000 A 
ATOM      6  N   UNL     1      -2.588  11.715  19.106  0.00  0.00    +0.000 N 
ENDROOT
BRANCH   5   7
ATOM      7  C   UNL     1      -5.047  11.951  18.425  0.00  0.00    +0.000 A 
ATOM      8  C   UNL     1      -5.721  11.815  19.643  0.00  0.00    +0.000 A 
ATOM      9  C   UNL     1      -7.014  12.320  19.791  0.00  0.00    +0.000 A 
ATOM     10  C   UNL     1      -7.635  12.975  18.726  0.00  0.00    +0.000 A 
ATOM     11  C   UNL     1      -6.978  13.098  17.504  0.00  0.00    +0.000 A 
ATOM     12  C   UNL     1      -5.700  12.563  17.343  0.00  0.00    +0.000 A 
ENDBRANCH   5   7
BRANCH   6  13
ATOM     13  C   UNL     1      -2.593  12.606  20.229  0.00  0.00    +0.000 A 
ATOM     14  C   UNL     1      -2.855  12.149  21.536  0.00  0.00    +0.000 A 
ATOM     15  C   UNL     1      -2.861  13.015  22.637  0.00  0.00    +0.000 A 
ATOM     16  C   UNL     1      -2.634  14.374  22.461  0.00  0.00    +0.000 A 
ATOM     17  C   UNL     1      -2.366  14.857  21.188  0.00  0.00    +0.000 A 
ATOM     18  C   UNL     1      -2.321  13.978  20.101  0.00  0.00    +0.000 A 
ENDBRANCH   6  13
BRANCH   1  20
ATOM     19  C   UNL     1       1.070   9.219  19.559  0.00  0.00    +0.000 C 
ATOM     20  N   UNL     1       0.649  10.108  18.723  0.00  0.00    +0.000 NA
BRANCH  19  24
ATOM     21  C   UNL     1       3.849   6.264  18.252  0.00  0.00    +0.000 A 
ATOM     22  C   UNL     1       3.597   7.387  17.464  0.00  0.00    +0.000 A 
ATOM     23  C   UNL     1       2.690   8.347  17.899  0.00  0.00    +0.000 A 
ATOM     24  C   UNL     1       2.010   8.176  19.108  0.00  0.00    +0.000 A 
ATOM     25  C   UNL     1       2.213   7.029  19.874  0.00  0.00    +0.000 A 
ATOM     26  C   UNL     1       3.133   6.069  19.438  0.00  0.00    +0.000 A 
BRANCH  21  27
ATOM     27  O   UNL     1       4.777   5.304  17.952  0.00  0.00    +0.000 OA
BRANCH  27  28
ATOM     28  C   UNL     1       6.015   5.809  17.425  0.00  0.00    +0.000 C 
BRANCH  28  30
ATOM     29  F   UNL     1       7.968   6.706  18.496  0.00  0.00    +0.000 F 
ATOM     30  C   UNL     1       7.168   5.622  18.403  0.00  0.00    +0.000 C 
ATOM     31  F   UNL     1       7.943   4.574  18.035  0.00  0.00    +0.000 F 
ATOM     32  F   UNL     1       6.701   5.355  19.646  0.00  0.00    +0.000 F 
ENDBRANCH  28  30
ENDBRANCH  27  28
ENDBRANCH  21  27
ENDBRANCH  19  24
ENDBRANCH   1  20
TORSDOF 7
ENDMDL
MODEL 6
REMARK VINA RESULT:      -7.3      2.930      4.492
REMARK  Name = 
REMARK  7 active torsions:
REMARK  status: ('A' for Active; 'I' for Inactive)
REMARK    1  A    between atoms: C_2  and  C_5
REMARK    2  A    between atoms: C_5  and  O_6
REMARK    3  A    between atoms: O_6  and  C_7
REMARK    4  A    between atoms: C_10  and  C_11
REMARK    5  A    between atoms: N_12  and  N_13
REMARK    6  A    between atoms: C_17  and  C_18
REMARK    7  A    between atoms: N_24  and  C_25
REMARK                            x       y       z     vdW  Elec       q    Type
REMARK                         _______ _______ _______ _____ _____    ______ ____
ROOT
ATOM      1  N   UNL     1      -0.286  10.931  19.310  0.00  0.00    +0.000 NA
ATOM      2  C   UNL     1      -1.473  10.955  18.772  0.00  0.00    +0.000 A 
ATOM      3  S   UNL     1      -1.900   9.956  17.319  0.00  0.00    +0.000 S 
ATOM      4  C   UNL     1      -3.512  10.586  17.307  0.00  0.00    +0.000 A 
ATOM      5  C   UNL     1      -3.714  11.465  18.304  0.00  0.00    +0.000 A 
ATOM      6  N   UNL     1      -2.605  11.709  19.148  0.00  0.00    +0.000 N 
ENDROOT
BRANCH   5   7
ATOM      7  C   UNL     1      -5.061  12.011  18.481  0.00  0.00    +0.000 A 
ATOM      8  C   UNL     1      -5.750  12.577  17.403  0.00  0.00    +0.000 A 
ATOM      9  C   UNL     1      -7.038  13.086  17.581  0.00  0.00    +0.000 A 
ATOM     10  C   UNL     1      -7.648  13.021  18.835  0.00  0.00    +0.000 A 
ATOM     11  C   UNL     1      -6.961  12.476  19.918  0.00  0.00    +0.000 A 
ATOM     12  C   UNL     1      -5.662  11.999  19.750  0.00  0.00    +0.000 A 
ENDBRANCH   5   7
BRANCH   6  13
ATOM     13  C   UNL     1      -2.584  12.586  20.281  0.00  0.00    +0.000 A 
ATOM     14  C   UNL     1      -2.730  12.100  21.596  0.00  0.00    +0.000 A 
ATOM     15  C   UNL     1      -2.710  12.952  22.708  0.00  0.00    +0.000 A 
ATOM     16  C   UNL     1      -2.574  14.324  22.537  0.00  0.00    +0.000 A 
ATOM     17  C   UNL     1      -2.422  14.836  21.257  0.00  0.00    +0.000 A 
ATOM     18  C   UNL     1      -2.401  13.973  20.156  0.00  0.00    +0.000 A 
ENDBRANCH   6  13
BRANCH   1  20
ATOM     19  C   UNL     1       1.097   9.204  19.580  0.00  0.00    +0.000 C 
ATOM     20  N   UNL     1       0.592  10.032  18.729  0.00  0.00    +0.000 NA
BRANCH  19  24
ATOM     21  C   UNL     1       3.845   6.233  18.247  0.00  0.00    +0.000 A 
ATOM     22  C   UNL     1       3.595   7.359  17.463  0.00  0.00    +0.000 A 
ATOM     23  C   UNL     1       2.698   8.325  17.906  0.00  0.00    +0.000 A 
ATOM     24  C   UNL     1       2.026   8.156  19.120  0.00  0.00    +0.000 A 
ATOM     25  C   UNL     1       2.228   7.006  19.883  0.00  0.00    +0.000 A 
ATOM     26  C   UNL     1       3.137   6.041  19.438  0.00  0.00    +0.000 A 
BRANCH  21  27
ATOM     27  O   UNL     1       4.764   5.267  17.937  0.00  0.00    +0.000 OA
BRANCH  27  28
ATOM     28  C   UNL     1       6.002   5.765  17.403  0.00  0.00    +0.000 C 
BRANCH  28  30
ATOM     29  F   UNL     1       6.740   5.449  19.665  0.00  0.00    +0.000 F 
ATOM     30  C   UNL     1       7.151   5.609  18.390  0.00  0.00    +0.000 C 
ATOM     31  F   UNL     1       7.961   6.694  18.357  0.00  0.00    +0.000 F 
ATOM     32  F   UNL     1       7.913   4.535  18.071  0.00  0.00    +0.000 F 
ENDBRANCH  28  30
ENDBRANCH  27  28
ENDBRANCH  21  27
ENDBRANCH  19  24
ENDBRANCH   1  20
TORSDOF 7
ENDMDL
MODEL 7
REMARK VINA RESULT:      -7.3      1.161      1.766
REMARK  Name = 
REMARK  7 active torsions:
REMARK  status: ('A' for Active; 'I' for Inactive)
REMARK    1  A    between atoms: C_2  and  C_5
REMARK    2  A    between atoms: C_5  and  O_6
REMARK    3  A    between atoms: O_6  and  C_7
REMARK    4  A    between atoms: C_10  and  C_11
REMARK    5  A    between atoms: N_12  and  N_13
REMARK    6  A    between atoms: C_17  and  C_18
REMARK    7  A    between atoms: N_24  and  C_25
REMARK                            x       y       z     vdW  Elec       q    Type
REMARK                         _______ _______ _______ _____ _____    ______ ____
ROOT
ATOM      1  N   UNL     1       0.300  10.456  19.719  0.00  0.00    +0.000 NA
ATOM      2  C   UNL     1       0.602  11.706  19.508  0.00  0.00    +0.000 A 
ATOM      3  S   UNL     1       1.986  12.204  18.446  0.00  0.00    +0.000 S 
ATOM      4  C   UNL     1       1.668  13.879  18.745  0.00  0.00    +0.000 A 
ATOM      5  C   UNL     1       0.617  14.051  19.567  0.00  0.00    +0.000 A 
ATOM      6  N   UNL     1      -0.010  12.868  20.024  0.00  0.00    +0.000 N 
ENDROOT
BRANCH   5   7
ATOM      7  C   UNL     1       0.168  15.418  19.836  0.00  0.00    +0.000 A 
ATOM      8  C   UNL     1      -0.519  16.149  18.861  0.00  0.00    +0.000 A 
ATOM      9  C   UNL     1      -0.951  17.448  19.133  0.00  0.00    +0.000 A 
ATOM     10  C   UNL     1      -0.711  18.019  20.383  0.00  0.00    +0.000 A 
ATOM     11  C   UNL     1      -0.011  17.304  21.353  0.00  0.00    +0.000 A 
ATOM     12  C   UNL     1       0.453  16.019  21.072  0.00  0.00    +0.000 A 
ENDBRANCH   5   7
BRANCH   6  13
ATOM     13  C   UNL     1      -1.152  12.799  20.887  0.00  0.00    +0.000 A 
ATOM     14  C   UNL     1      -1.020  12.595  22.275  0.00  0.00    +0.000 A 
ATOM     15  C   UNL     1      -2.132  12.526  23.124  0.00  0.00    +0.000 A 
ATOM     16  C   UNL     1      -3.416  12.629  22.606  0.00  0.00    +0.000 A 
ATOM     17  C   UNL     1      -3.583  12.836  21.244  0.00  0.00    +0.000 A 
ATOM     18  C   UNL     1      -2.465  12.945  20.411  0.00  0.00    +0.000 A 
ENDBRANCH   6  13
BRANCH   1  20
ATOM     19  C   UNL     1       1.543   8.605  19.755  0.00  0.00    +0.000 C 
ATOM     20  N   UNL     1       1.071   9.549  19.011  0.00  0.00    +0.000 NA
BRANCH  19  24
ATOM     21  C   UNL     1       3.967   5.563  18.015  0.00  0.00    +0.000 A 
ATOM     22  C   UNL     1       3.854   6.808  17.397  0.00  0.00    +0.000 A 
ATOM     23  C   UNL     1       3.062   7.797  17.973  0.00  0.00    +0.000 A 
ATOM     24  C   UNL     1       2.357   7.535  19.151  0.00  0.00    +0.000 A 
ATOM     25  C   UNL     1       2.419   6.275  19.744  0.00  0.00    +0.000 A 
ATOM     26  C   UNL     1       3.223   5.286  19.167  0.00  0.00    +0.000 A 
BRANCH  21  27
ATOM     27  O   UNL     1       4.778   4.554  17.572  0.00  0.00    +0.000 OA
BRANCH  27  28
ATOM     28  C   UNL     1       6.076   4.512  18.188  0.00  0.00    +0.000 C 
BRANCH  28  30
ATOM     29  F   UNL     1       6.912   4.118  15.973  0.00  0.00    +0.000 F 
ATOM     30  C   UNL     1       7.195   4.676  17.169  0.00  0.00    +0.000 C 
ATOM     31  F   UNL     1       8.340   4.110  17.621  0.00  0.00    +0.000 F 
ATOM     32  F   UNL     1       7.458   5.987  16.954  0.00  0.00    +0.000 F 
ENDBRANCH  28  30
ENDBRANCH  27  28
ENDBRANCH  21  27
ENDBRANCH  19  24
ENDBRANCH   1  20
TORSDOF 7
ENDMDL
MODEL 8
REMARK VINA RESULT:      -7.3      2.147      2.565
REMARK  Name = 
REMARK  7 active torsions:
REMARK  status: ('A' for Active; 'I' for Inactive)
REMARK    1  A    between atoms: C_2  and  C_5
REMARK    2  A    between atoms: C_5  and  O_6
REMARK    3  A    between atoms: O_6  and  C_7
REMARK    4  A    between atoms: C_10  and  C_11
REMARK    5  A    between atoms: N_12  and  N_13
REMARK    6  A    between atoms: C_17  and  C_18
REMARK    7  A    between atoms: N_24  and  C_25
REMARK                            x       y       z     vdW  Elec       q    Type
REMARK                         _______ _______ _______ _____ _____    ______ ____
ROOT
ATOM      1  N   UNL     1       0.247  10.550  19.977  0.00  0.00    +0.000 NA
ATOM      2  C   UNL     1       0.611  11.751  19.627  0.00  0.00    +0.000 A 
ATOM      3  S   UNL     1       1.965  12.053  18.458  0.00  0.00    +0.000 S 
ATOM      4  C   UNL     1       1.762  13.766  18.600  0.00  0.00    +0.000 A 
ATOM      5  C   UNL     1       0.766  14.085  19.446  0.00  0.00    +0.000 A 
ATOM      6  N   UNL     1       0.095  12.995  20.049  0.00  0.00    +0.000 N 
ENDROOT
BRANCH   5   7
ATOM      7  C   UNL     1       0.412  15.498  19.595  0.00  0.00    +0.000 A 
ATOM      8  C   UNL     1       0.890  16.244  20.677  0.00  0.00    +0.000 A 
ATOM      9  C   UNL     1       0.553  17.593  20.804  0.00  0.00    +0.000 A 
ATOM     10  C   UNL     1      -0.253  18.206  19.843  0.00  0.00    +0.000 A 
ATOM     11  C   UNL     1      -0.748  17.464  18.772  0.00  0.00    +0.000 A 
ATOM     12  C   UNL     1      -0.442  16.108  18.662  0.00  0.00    +0.000 A 
ENDBRANCH   5   7
BRANCH   6  13
ATOM     13  C   UNL     1      -1.004  13.084  20.965  0.00  0.00    +0.000 A 
ATOM     14  C   UNL     1      -2.340  13.096  20.519  0.00  0.00    +0.000 A 
ATOM     15  C   UNL     1      -3.419  13.182  21.410  0.00  0.00    +0.000 A 
ATOM     16  C   UNL     1      -3.192  13.290  22.775  0.00  0.00    +0.000 A 
ATOM     17  C   UNL     1      -1.888  13.275  23.250  0.00  0.00    +0.000 A 
ATOM     18  C   UNL     1      -0.820  13.146  22.356  0.00  0.00    +0.000 A 
ENDBRANCH   6  13
BRANCH   1  20
ATOM     19  C   UNL     1       1.376   8.635  20.144  0.00  0.00    +0.000 C 
ATOM     20  N   UNL     1       0.926   9.531  19.331  0.00  0.00    +0.000 NA
BRANCH  19  24
ATOM     21  C   UNL     1       3.377   5.193  18.624  0.00  0.00    +0.000 A 
ATOM     22  C   UNL     1       2.802   5.166  19.895  0.00  0.00    +0.000 A 
ATOM     23  C   UNL     1       2.149   6.293  20.382  0.00  0.00    +0.000 A 
ATOM     24  C   UNL     1       2.093   7.460  19.616  0.00  0.00    +0.000 A 
ATOM     25  C   UNL     1       2.714   7.514  18.368  0.00  0.00    +0.000 A 
ATOM     26  C   UNL     1       3.363   6.376  17.877  0.00  0.00    +0.000 A 
BRANCH  21  27
ATOM     27  O   UNL     1       3.972   4.116  18.025  0.00  0.00    +0.000 OA
BRANCH  27  28
ATOM     28  C   UNL     1       4.131   2.968  18.873  0.00  0.00    +0.000 C 
BRANCH  28  30
ATOM     29  F   UNL     1       2.172   1.688  19.407  0.00  0.00    +0.000 F 
ATOM     30  C   UNL     1       3.165   1.850  18.507  0.00  0.00    +0.000 C 
ATOM     31  F   UNL     1       3.818   0.667  18.404  0.00  0.00    +0.000 F 
ATOM     32  F   UNL     1       2.588   2.091  17.305  0.00  0.00    +0.000 F 
ENDBRANCH  28  30
ENDBRANCH  27  28
ENDBRANCH  21  27
ENDBRANCH  19  24
ENDBRANCH   1  20
TORSDOF 7
ENDMDL
MODEL 9
REMARK VINA RESULT:      -7.3      1.152      1.664
REMARK  Name = 
REMARK  7 active torsions:
REMARK  status: ('A' for Active; 'I' for Inactive)
REMARK    1  A    between atoms: C_2  and  C_5
REMARK    2  A    between atoms: C_5  and  O_6
REMARK    3  A    between atoms: O_6  and  C_7
REMARK    4  A    between atoms: C_10  and  C_11
REMARK    5  A    between atoms: N_12  and  N_13
REMARK    6  A    between atoms: C_17  and  C_18
REMARK    7  A    between atoms: N_24  and  C_25
REMARK                            x       y       z     vdW  Elec       q    Type
REMARK                         _______ _______ _______ _____ _____    ______ ____
ROOT
ATOM      1  N   UNL     1       0.316  10.441  19.753  0.00  0.00    +0.000 NA
ATOM      2  C   UNL     1       0.627  11.687  19.531  0.00  0.00    +0.000 A 
ATOM      3  S   UNL     1       2.007  12.167  18.455  0.00  0.00    +0.000 S 
ATOM      4  C   UNL     1       1.705  13.846  18.745  0.00  0.00    +0.000 A 
ATOM      5  C   UNL     1       0.662  14.033  19.573  0.00  0.00    +0.000 A 
ATOM      6  N   UNL     1       0.028  12.859  20.043  0.00  0.00    +0.000 N 
ENDROOT
BRANCH   5   7
ATOM      7  C   UNL     1       0.225  15.405  19.836  0.00  0.00    +0.000 A 
ATOM      8  C   UNL     1       0.583  16.054  21.023  0.00  0.00    +0.000 A 
ATOM      9  C   UNL     1       0.169  17.366  21.258  0.00  0.00    +0.000 A 
ATOM     10  C   UNL     1      -0.594  18.041  20.304  0.00  0.00    +0.000 A 
ATOM     11  C   UNL     1      -0.970  17.396  19.127  0.00  0.00    +0.000 A 
ATOM     12  C   UNL     1      -0.587  16.073  18.905  0.00  0.00    +0.000 A 
ENDBRANCH   5   7
BRANCH   6  13
ATOM     13  C   UNL     1      -1.108  12.805  20.915  0.00  0.00    +0.000 A 
ATOM     14  C   UNL     1      -0.964  12.722  22.314  0.00  0.00    +0.000 A 
ATOM     15  C   UNL     1      -2.070  12.669  23.172  0.00  0.00    +0.000 A 
ATOM     16  C   UNL     1      -3.359  12.666  22.654  0.00  0.00    +0.000 A 
ATOM     17  C   UNL     1      -3.537  12.753  21.281  0.00  0.00    +0.000 A 
ATOM     18  C   UNL     1      -2.427  12.848  20.436  0.00  0.00    +0.000 A 
ENDBRANCH   6  13
BRANCH   1  20
ATOM     19  C   UNL     1       1.544   8.581  19.792  0.00  0.00    +0.000 C 
ATOM     20  N   UNL     1       1.074   9.524  19.046  0.00  0.00    +0.000 NA
BRANCH  19  24
ATOM     21  C   UNL     1       3.930   5.506  18.058  0.00  0.00    +0.000 A 
ATOM     22  C   UNL     1       3.846   6.757  17.447  0.00  0.00    +0.000 A 
ATOM     23  C   UNL     1       3.066   7.756  18.021  0.00  0.00    +0.000 A 
ATOM     24  C   UNL     1       2.344   7.500  19.190  0.00  0.00    +0.000 A 
ATOM     25  C   UNL     1       2.377   6.235  19.775  0.00  0.00    +0.000 A 
ATOM     26  C   UNL     1       3.170   5.236  19.201  0.00  0.00    +0.000 A 
BRANCH  21  27
ATOM     27  O   UNL     1       4.727   4.486  17.617  0.00  0.00    +0.000 OA
BRANCH  27  28
ATOM     28  C   UNL     1       6.034   4.443  18.212  0.00  0.00    +0.000 C 
BRANCH  28  30
ATOM     29  F   UNL     1       7.351   5.970  16.910  0.00  0.00    +0.000 F 
ATOM     30  C   UNL     1       7.136   4.666  17.185  0.00  0.00    +0.000 C 
ATOM     31  F   UNL     1       6.834   4.048  16.019  0.00  0.00    +0.000 F 
ATOM     32  F   UNL     1       8.308   4.145  17.620  0.00  0.00    +0.000 F 
ENDBRANCH  28  30
ENDBRANCH  27  28
ENDBRANCH  21  27
ENDBRANCH  19  24
ENDBRANCH   1  20
TORSDOF 7
ENDMDL
