MODEL 1
REMARK VINA RESULT:      -7.8      0.000      0.000
REMARK  Name = 
REMARK  11 active torsions:
REMARK  status: ('A' for Active; 'I' for Inactive)
REMARK    1  A    between atoms: C_1  and  C_2
REMARK    2  A    between atoms: C_5  and  N_6
REMARK    3  A    between atoms: C_7  and  C_9
REMARK    4  A    between atoms: C_9  and  S_10
REMARK    5  A    between atoms: S_10  and  C_11
REMARK    6  A    between atoms: C_11  and  C_12
REMARK    7  A    between atoms: C_11  and  C_13
REMARK    8  A    between atoms: C_13  and  O_15
REMARK    9  A    between atoms: O_15  and  C_16
REMARK   10  A    between atoms: C_16  and  C_17
REMARK   11  A    between atoms: C_23  and  C_25
REMARK                            x       y       z     vdW  Elec       q    Type
REMARK                         _______ _______ _______ _____ _____    ______ ____
ROOT
ATOM      1  C   UNL     1       1.901   3.870  19.640  0.00  0.00    +0.000 C 
ATOM      2  O   UNL     1       0.946   4.007  18.884  0.00  0.00    +0.000 OA
ENDROOT
BRANCH   1   3
ATOM      3  C   UNL     1       2.326   2.552  20.284  0.00  0.00    +0.000 C 
ATOM      4  C   UNL     1       2.215   2.678  21.802  0.00  0.00    +0.000 C 
BRANCH   3   5
ATOM      5  S   UNL     1       4.038   2.173  19.745  0.00  0.00    +0.000 S 
BRANCH   5   6
ATOM      6  C   UNL     1       3.871   2.337  17.929  0.00  0.00    +0.000 C 
BRANCH   6   8
ATOM      7  N   UNL     1       5.492   4.141  18.273  0.00  0.00    +0.000 N 
ATOM      8  C   UNL     1       4.555   3.602  17.407  0.00  0.00    +0.000 C 
ATOM      9  O   UNL     1       4.322   3.998  16.268  0.00  0.00    +0.000 OA
ATOM     10  H   UNL     1       5.656   3.617  19.126  0.00  0.00    +0.000 HD
BRANCH   7  15
ATOM     11  C   UNL     1       8.526   8.980  17.841  0.00  0.00    +0.000 C 
ATOM     12  C   UNL     1       7.713   7.724  17.946  0.00  0.00    +0.000 A 
ATOM     13  C   UNL     1       6.576   7.537  17.156  0.00  0.00    +0.000 A 
ATOM     14  C   UNL     1       5.833   6.354  17.241  0.00  0.00    +0.000 A 
ATOM     15  C   UNL     1       6.208   5.344  18.126  0.00  0.00    +0.000 A 
ATOM     16  C   UNL     1       7.330   5.539  18.937  0.00  0.00    +0.000 A 
ATOM     17  C   UNL     1       8.085   6.714  18.840  0.00  0.00    +0.000 A 
ENDBRANCH   7  15
ENDBRANCH   6   8
ENDBRANCH   5   6
ENDBRANCH   3   5
ENDBRANCH   1   3
BRANCH   1  18
ATOM     18  O   UNL     1       2.749   4.880  19.999  0.00  0.00    +0.000 OA
BRANCH  18  19
ATOM     19  C   UNL     1       2.079   6.048  20.497  0.00  0.00    +0.000 C 
BRANCH  19  20
ATOM     20  C   UNL     1       2.219   7.184  19.474  0.00  0.00    +0.000 C 
ATOM     21  O   UNL     1       2.926   7.038  18.472  0.00  0.00    +0.000 OA
ATOM     22  N   UNL     1       1.500   8.349  19.689  0.00  0.00    +0.000 N 
ATOM     23  C   UNL     1       1.575   9.405  18.671  0.00  0.00    +0.000 C 
ATOM     24  C   UNL     1       0.228  10.114  18.492  0.00  0.00    +0.000 C 
ATOM     25  N   UNL     1      -0.289  10.578  19.783  0.00  0.00    +0.000 N 
ATOM     26  C   UNL     1      -0.910  11.830  19.842  0.00  0.00    +0.000 C 
ATOM     27  O   UNL     1      -1.102  12.479  18.813  0.00  0.00    +0.000 OA
ATOM     28  C   UNL     1      -0.400   9.518  20.793  0.00  0.00    +0.000 C 
ATOM     29  C   UNL     1       0.934   8.774  20.977  0.00  0.00    +0.000 C 
BRANCH  26  30
ATOM     30  C   UNL     1      -1.314  12.355  21.134  0.00  0.00    +0.000 A 
ATOM     31  C   UNL     1      -2.580  12.564  21.653  0.00  0.00    +0.000 A 
ATOM     32  C   UNL     1      -2.409  13.119  22.942  0.00  0.00    +0.000 A 
ATOM     33  C   UNL     1      -1.054  13.260  23.119  0.00  0.00    +0.000 A 
ATOM     34  O   UNL     1      -0.384  12.824  22.023  0.00  0.00    +0.000 OA
ENDBRANCH  26  30
ENDBRANCH  19  20
ENDBRANCH  18  19
ENDBRANCH   1  18
TORSDOF 9
ENDMDL
MODEL 2
REMARK VINA RESULT:      -7.7      3.611      9.890
REMARK  Name = 
REMARK  11 active torsions:
REMARK  status: ('A' for Active; 'I' for Inactive)
REMARK    1  A    between atoms: C_1  and  C_2
REMARK    2  A    between atoms: C_5  and  N_6
REMARK    3  A    between atoms: C_7  and  C_9
REMARK    4  A    between atoms: C_9  and  S_10
REMARK    5  A    between atoms: S_10  and  C_11
REMARK    6  A    between atoms: C_11  and  C_12
REMARK    7  A    between atoms: C_11  and  C_13
REMARK    8  A    between atoms: C_13  and  O_15
REMARK    9  A    between atoms: O_15  and  C_16
REMARK   10  A    between atoms: C_16  and  C_17
REMARK   11  A    between atoms: C_23  and  C_25
REMARK                            x       y       z     vdW  Elec       q    Type
REMARK                         _______ _______ _______ _____ _____    ______ ____
ROOT
ATOM      1  C   UNL     1      -1.298  11.608  22.581  0.00  0.00    +0.000 C 
ATOM      2  O   UNL     1      -1.063  10.828  23.498  0.00  0.00    +0.000 OA
ENDROOT
BRANCH   1   3
ATOM      3  C   UNL     1      -1.993  12.959  22.737  0.00  0.00    +0.000 C 
ATOM      4  C   UNL     1      -1.078  13.907  23.508  0.00  0.00    +0.000 C 
BRANCH   3   5
ATOM      5  S   UNL     1      -3.591  12.687  23.598  0.00  0.00    +0.000 S 
BRANCH   5   6
ATOM      6  C   UNL     1      -4.717  13.681  22.552  0.00  0.00    +0.000 C 
BRANCH   6   8
ATOM      7  N   UNL     1      -4.525  12.391  20.479  0.00  0.00    +0.000 N 
ATOM      8  C   UNL     1      -4.321  13.624  21.075  0.00  0.00    +0.000 C 
ATOM      9  O   UNL     1      -3.955  14.646  20.500  0.00  0.00    +0.000 OA
ATOM     10  H   UNL     1      -4.955  11.684  21.067  0.00  0.00    +0.000 HD
BRANCH   7  15
ATOM     11  C   UNL     1      -3.286  10.764  15.129  0.00  0.00    +0.000 C 
ATOM     12  C   UNL     1      -3.591  11.180  16.537  0.00  0.00    +0.000 A 
ATOM     13  C   UNL     1      -2.570  11.326  17.480  0.00  0.00    +0.000 A 
ATOM     14  C   UNL     1      -2.856  11.737  18.786  0.00  0.00    +0.000 A 
ATOM     15  C   UNL     1      -4.170  11.996  19.176  0.00  0.00    +0.000 A 
ATOM     16  C   UNL     1      -5.196  11.824  18.243  0.00  0.00    +0.000 A 
ATOM     17  C   UNL     1      -4.910  11.432  16.930  0.00  0.00    +0.000 A 
ENDBRANCH   7  15
ENDBRANCH   6   8
ENDBRANCH   5   6
ENDBRANCH   3   5
ENDBRANCH   1   3
BRANCH   1  18
ATOM     18  O   UNL     1      -0.945  11.391  21.279  0.00  0.00    +0.000 OA
BRANCH  18  19
ATOM     19  C   UNL     1       0.471  11.437  21.047  0.00  0.00    +0.000 C 
BRANCH  19  20
ATOM     20  C   UNL     1       0.768  10.904  19.638  0.00  0.00    +0.000 C 
ATOM     21  O   UNL     1       0.726  11.661  18.663  0.00  0.00    +0.000 OA
ATOM     22  N   UNL     1       1.121   9.571  19.504  0.00  0.00    +0.000 N 
ATOM     23  C   UNL     1       1.478   9.081  18.166  0.00  0.00    +0.000 C 
ATOM     24  C   UNL     1       2.620   8.061  18.226  0.00  0.00    +0.000 C 
ATOM     25  N   UNL     1       2.312   6.991  19.179  0.00  0.00    +0.000 N 
ATOM     26  C   UNL     1       2.656   5.678  18.844  0.00  0.00    +0.000 C 
ATOM     27  O   UNL     1       3.289   5.444  17.814  0.00  0.00    +0.000 OA
ATOM     28  C   UNL     1       1.989   7.475  20.528  0.00  0.00    +0.000 C 
ATOM     29  C   UNL     1       0.860   8.518  20.497  0.00  0.00    +0.000 C 
BRANCH  26  30
ATOM     30  C   UNL     1       2.245   4.597  19.722  0.00  0.00    +0.000 A 
ATOM     31  C   UNL     1       0.979   4.123  20.018  0.00  0.00    +0.000 A 
ATOM     32  C   UNL     1       1.141   3.073  20.952  0.00  0.00    +0.000 A 
ATOM     33  C   UNL     1       2.489   2.997  21.208  0.00  0.00    +0.000 A 
ATOM     34  O   UNL     1       3.163   3.928  20.488  0.00  0.00    +0.000 OA
ENDBRANCH  26  30
ENDBRANCH  19  20
ENDBRANCH  18  19
ENDBRANCH   1  18
TORSDOF 9
ENDMDL
MODEL 3
REMARK VINA RESULT:      -7.6      4.886      8.356
REMARK  Name = 
REMARK  11 active torsions:
REMARK  status: ('A' for Active; 'I' for Inactive)
REMARK    1  A    between atoms: C_1  and  C_2
REMARK    2  A    between atoms: C_5  and  N_6
REMARK    3  A    between atoms: C_7  and  C_9
REMARK    4  A    between atoms: C_9  and  S_10
REMARK    5  A    between atoms: S_10  and  C_11
REMARK    6  A    between atoms: C_11  and  C_12
REMARK    7  A    between atoms: C_11  and  C_13
REMARK    8  A    between atoms: C_13  and  O_15
REMARK    9  A    between atoms: O_15  and  C_16
REMARK   10  A    between atoms: C_16  and  C_17
REMARK   11  A    between atoms: C_23  and  C_25
REMARK                            x       y       z     vdW  Elec       q    Type
REMARK                         _______ _______ _______ _____ _____    ______ ____
ROOT
ATOM      1  C   UNL     1       6.607   6.500  16.679  0.00  0.00    +0.000 C 
ATOM      2  O   UNL     1       5.569   6.943  16.198  0.00  0.00    +0.000 OA
ENDROOT
BRANCH   1   3
ATOM      3  C   UNL     1       6.803   5.067  17.168  0.00  0.00    +0.000 C 
ATOM      4  C   UNL     1       6.404   4.099  16.056  0.00  0.00    +0.000 C 
BRANCH   3   5
ATOM      5  S   UNL     1       5.793   4.834  18.683  0.00  0.00    +0.000 S 
BRANCH   5   6
ATOM      6  C   UNL     1       4.263   4.126  17.970  0.00  0.00    +0.000 C 
BRANCH   6   8
ATOM      7  N   UNL     1       3.447   6.391  18.425  0.00  0.00    +0.000 N 
ATOM      8  C   UNL     1       3.090   5.105  18.056  0.00  0.00    +0.000 C 
ATOM      9  O   UNL     1       1.965   4.744  17.717  0.00  0.00    +0.000 OA
ATOM     10  H   UNL     1       4.442   6.553  18.549  0.00  0.00    +0.000 HD
BRANCH   7  15
ATOM     11  C   UNL     1      -0.063  10.739  19.683  0.00  0.00    +0.000 C 
ATOM     12  C   UNL     1       0.851   9.602  19.331  0.00  0.00    +0.000 A 
ATOM     13  C   UNL     1       1.378   9.477  18.043  0.00  0.00    +0.000 A 
ATOM     14  C   UNL     1       2.248   8.428  17.726  0.00  0.00    +0.000 A 
ATOM     15  C   UNL     1       2.595   7.479  18.687  0.00  0.00    +0.000 A 
ATOM     16  C   UNL     1       2.048   7.587  19.969  0.00  0.00    +0.000 A 
ATOM     17  C   UNL     1       1.192   8.646  20.293  0.00  0.00    +0.000 A 
ENDBRANCH   7  15
ENDBRANCH   6   8
ENDBRANCH   5   6
ENDBRANCH   3   5
ENDBRANCH   1   3
BRANCH   1  18
ATOM     18  O   UNL     1       7.757   7.225  16.824  0.00  0.00    +0.000 OA
BRANCH  18  19
ATOM     19  C   UNL     1       7.540   8.575  17.260  0.00  0.00    +0.000 C 
BRANCH  19  20
ATOM     20  C   UNL     1       8.462   8.873  18.451  0.00  0.00    +0.000 C 
ATOM     21  O   UNL     1       8.784   7.972  19.232  0.00  0.00    +0.000 OA
ATOM     22  N   UNL     1       8.949  10.162  18.594  0.00  0.00    +0.000 N 
ATOM     23  C   UNL     1       9.890  10.428  19.690  0.00  0.00    +0.000 C 
ATOM     24  C   UNL     1      10.975  11.427  19.271  0.00  0.00    +0.000 C 
ATOM     25  N   UNL     1      10.375  12.638  18.706  0.00  0.00    +0.000 N 
ATOM     26  C   UNL     1      10.939  13.876  19.029  0.00  0.00    +0.000 C 
ATOM     27  O   UNL     1      11.974  13.934  19.694  0.00  0.00    +0.000 OA
ATOM     28  C   UNL     1       9.460  12.380  17.586  0.00  0.00    +0.000 C 
ATOM     29  C   UNL     1       8.373  11.363  17.972  0.00  0.00    +0.000 C 
BRANCH  26  30
ATOM     30  C   UNL     1      10.281  15.089  18.578  0.00  0.00    +0.000 A 
ATOM     31  C   UNL     1      10.629  15.966  17.565  0.00  0.00    +0.000 A 
ATOM     32  C   UNL     1       9.661  16.998  17.565  0.00  0.00    +0.000 A 
ATOM     33  C   UNL     1       8.807  16.719  18.604  0.00  0.00    +0.000 A 
ATOM     34  O   UNL     1       9.187  15.581  19.238  0.00  0.00    +0.000 OA
ENDBRANCH  26  30
ENDBRANCH  19  20
ENDBRANCH  18  19
ENDBRANCH   1  18
TORSDOF 9
ENDMDL
MODEL 4
REMARK VINA RESULT:      -7.6      2.951      9.334
REMARK  Name = 
REMARK  11 active torsions:
REMARK  status: ('A' for Active; 'I' for Inactive)
REMARK    1  A    between atoms: C_1  and  C_2
REMARK    2  A    between atoms: C_5  and  N_6
REMARK    3  A    between atoms: C_7  and  C_9
REMARK    4  A    between atoms: C_9  and  S_10
REMARK    5  A    between atoms: S_10  and  C_11
REMARK    6  A    between atoms: C_11  and  C_12
REMARK    7  A    between atoms: C_11  and  C_13
REMARK    8  A    between atoms: C_13  and  O_15
REMARK    9  A    between atoms: O_15  and  C_16
REMARK   10  A    between atoms: C_16  and  C_17
REMARK   11  A    between atoms: C_23  and  C_25
REMARK                            x       y       z     vdW  Elec       q    Type
REMARK                         _______ _______ _______ _____ _____    ______ ____
ROOT
ATOM      1  C   UNL     1       2.396   3.145  19.364  0.00  0.00    +0.000 C 
ATOM      2  O   UNL     1       2.265   2.098  18.740  0.00  0.00    +0.000 OA
ENDROOT
BRANCH   1   3
ATOM      3  C   UNL     1       1.483   4.361  19.236  0.00  0.00    +0.000 C 
ATOM      4  C   UNL     1       1.765   5.063  17.910  0.00  0.00    +0.000 C 
BRANCH   3   5
ATOM      5  S   UNL     1       1.781   5.459  20.676  0.00  0.00    +0.000 S 
BRANCH   5   6
ATOM      6  C   UNL     1       2.213   7.024  19.831  0.00  0.00    +0.000 C 
BRANCH   6   8
ATOM      7  N   UNL     1       1.048   9.137  19.408  0.00  0.00    +0.000 N 
ATOM      8  C   UNL     1       1.401   8.204  20.368  0.00  0.00    +0.000 C 
ATOM      9  O   UNL     1       1.039   8.213  21.543  0.00  0.00    +0.000 OA
ATOM     10  H   UNL     1       1.321   8.913  18.456  0.00  0.00    +0.000 HD
BRANCH   7  15
ATOM     11  C   UNL     1      -1.447  14.211  20.324  0.00  0.00    +0.000 C 
ATOM     12  C   UNL     1      -0.815  12.872  20.082  0.00  0.00    +0.000 A 
ATOM     13  C   UNL     1      -1.504  11.864  19.403  0.00  0.00    +0.000 A 
ATOM     14  C   UNL     1      -0.902  10.625  19.160  0.00  0.00    +0.000 A 
ATOM     15  C   UNL     1       0.395  10.368  19.602  0.00  0.00    +0.000 A 
ATOM     16  C   UNL     1       1.077  11.365  20.305  0.00  0.00    +0.000 A 
ATOM     17  C   UNL     1       0.484  12.612  20.533  0.00  0.00    +0.000 A 
ENDBRANCH   7  15
ENDBRANCH   6   8
ENDBRANCH   5   6
ENDBRANCH   3   5
ENDBRANCH   1   3
BRANCH   1  18
ATOM     18  O   UNL     1       3.374   3.368  20.293  0.00  0.00    +0.000 OA
BRANCH  18  19
ATOM     19  C   UNL     1       4.704   3.153  19.797  0.00  0.00    +0.000 C 
BRANCH  19  20
ATOM     20  C   UNL     1       5.215   4.447  19.149  0.00  0.00    +0.000 C 
ATOM     21  O   UNL     1       5.421   5.451  19.838  0.00  0.00    +0.000 OA
ATOM     22  N   UNL     1       5.475   4.439  17.788  0.00  0.00    +0.000 N 
ATOM     23  C   UNL     1       6.035   5.654  17.183  0.00  0.00    +0.000 C 
ATOM     24  C   UNL     1       7.057   5.321  16.090  0.00  0.00    +0.000 C 
ATOM     25  N   UNL     1       6.486   4.390  15.113  0.00  0.00    +0.000 N 
ATOM     26  C   UNL     1       6.776   4.582  13.759  0.00  0.00    +0.000 C 
ATOM     27  O   UNL     1       7.571   5.455  13.410  0.00  0.00    +0.000 OA
ATOM     28  C   UNL     1       5.957   3.156  15.710  0.00  0.00    +0.000 C 
ATOM     29  C   UNL     1       4.945   3.461  16.827  0.00  0.00    +0.000 C 
BRANCH  26  30
ATOM     30  C   UNL     1       6.119   3.743  12.773  0.00  0.00    +0.000 A 
ATOM     31  C   UNL     1       6.647   2.780  11.930  0.00  0.00    +0.000 A 
ATOM     32  C   UNL     1       5.575   2.284  11.151  0.00  0.00    +0.000 A 
ATOM     33  C   UNL     1       4.466   3.002  11.529  0.00  0.00    +0.000 A 
ATOM     34  O   UNL     1       4.788   3.903  12.491  0.00  0.00    +0.000 OA
ENDBRANCH  26  30
ENDBRANCH  19  20
ENDBRANCH  18  19
ENDBRANCH   1  18
TORSDOF 9
ENDMDL
MODEL 5
REMARK VINA RESULT:      -7.5      0.925      1.343
REMARK  Name = 
REMARK  11 active torsions:
REMARK  status: ('A' for Active; 'I' for Inactive)
REMARK    1  A    between atoms: C_1  and  C_2
REMARK    2  A    between atoms: C_5  and  N_6
REMARK    3  A    between atoms: C_7  and  C_9
REMARK    4  A    between atoms: C_9  and  S_10
REMARK    5  A    between atoms: S_10  and  C_11
REMARK    6  A    between atoms: C_11  and  C_12
REMARK    7  A    between atoms: C_11  and  C_13
REMARK    8  A    between atoms: C_13  and  O_15
REMARK    9  A    between atoms: O_15  and  C_16
REMARK   10  A    between atoms: C_16  and  C_17
REMARK   11  A    between atoms: C_23  and  C_25
REMARK                            x       y       z     vdW  Elec       q    Type
REMARK                         _______ _______ _______ _____ _____    ______ ____
ROOT
ATOM      1  C   UNL     1       2.090   3.465  20.977  0.00  0.00    +0.000 C 
ATOM      2  O   UNL     1       1.658   2.785  21.901  0.00  0.00    +0.000 OA
ENDROOT
BRANCH   1   3
ATOM      3  C   UNL     1       2.088   3.046  19.508  0.00  0.00    +0.000 C 
ATOM      4  C   UNL     1       0.971   2.031  19.278  0.00  0.00    +0.000 C 
BRANCH   3   5
ATOM      5  S   UNL     1       3.741   2.358  19.105  0.00  0.00    +0.000 S 
BRANCH   5   6
ATOM      6  C   UNL     1       3.831   2.709  17.310  0.00  0.00    +0.000 C 
BRANCH   6   8
ATOM      7  N   UNL     1       5.258   4.548  18.075  0.00  0.00    +0.000 N 
ATOM      8  C   UNL     1       4.884   3.772  16.991  0.00  0.00    +0.000 C 
ATOM      9  O   UNL     1       5.389   3.816  15.871  0.00  0.00    +0.000 OA
ATOM     10  H   UNL     1       4.834   4.297  18.962  0.00  0.00    +0.000 HD
BRANCH   7  15
ATOM     11  C   UNL     1       8.646   9.164  17.947  0.00  0.00    +0.000 C 
ATOM     12  C   UNL     1       7.777   7.942  17.987  0.00  0.00    +0.000 A 
ATOM     13  C   UNL     1       8.131   6.834  18.761  0.00  0.00    +0.000 A 
ATOM     14  C   UNL     1       7.306   5.706  18.813  0.00  0.00    +0.000 A 
ATOM     15  C   UNL     1       6.119   5.660  18.081  0.00  0.00    +0.000 A 
ATOM     16  C   UNL     1       5.776   6.756  17.285  0.00  0.00    +0.000 A 
ATOM     17  C   UNL     1       6.591   7.894  17.246  0.00  0.00    +0.000 A 
ENDBRANCH   7  15
ENDBRANCH   6   8
ENDBRANCH   5   6
ENDBRANCH   3   5
ENDBRANCH   1   3
BRANCH   1  18
ATOM     18  O   UNL     1       2.616   4.717  21.124  0.00  0.00    +0.000 OA
BRANCH  18  19
ATOM     19  C   UNL     1       1.646   5.770  21.010  0.00  0.00    +0.000 C 
BRANCH  19  20
ATOM     20  C   UNL     1       2.091   6.748  19.913  0.00  0.00    +0.000 C 
ATOM     21  O   UNL     1       2.862   6.378  19.022  0.00  0.00    +0.000 OA
ATOM     22  N   UNL     1       1.571   8.032  19.933  0.00  0.00    +0.000 N 
ATOM     23  C   UNL     1       1.938   8.943  18.840  0.00  0.00    +0.000 C 
ATOM     24  C   UNL     1       0.763   9.840  18.436  0.00  0.00    +0.000 C 
ATOM     25  N   UNL     1       0.205  10.523  19.606  0.00  0.00    +0.000 N 
ATOM     26  C   UNL     1      -0.188  11.859  19.476  0.00  0.00    +0.000 C 
ATOM     27  O   UNL     1      -0.153  12.414  18.377  0.00  0.00    +0.000 OA
ATOM     28  C   UNL     1      -0.197   9.613  20.687  0.00  0.00    +0.000 C 
ATOM     29  C   UNL     1       0.957   8.684  21.099  0.00  0.00    +0.000 C 
BRANCH  26  30
ATOM     30  C   UNL     1      -0.626  12.582  20.656  0.00  0.00    +0.000 A 
ATOM     31  C   UNL     1      -1.871  13.095  20.975  0.00  0.00    +0.000 A 
ATOM     32  C   UNL     1      -1.745  13.730  22.232  0.00  0.00    +0.000 A 
ATOM     33  C   UNL     1      -0.423  13.611  22.588  0.00  0.00    +0.000 A 
ATOM     34  O   UNL     1       0.267  12.940  21.632  0.00  0.00    +0.000 OA
ENDBRANCH  26  30
ENDBRANCH  19  20
ENDBRANCH  18  19
ENDBRANCH   1  18
TORSDOF 9
ENDMDL
MODEL 6
REMARK VINA RESULT:      -7.2      2.443      3.571
REMARK  Name = 
REMARK  11 active torsions:
REMARK  status: ('A' for Active; 'I' for Inactive)
REMARK    1  A    between atoms: C_1  and  C_2
REMARK    2  A    between atoms: C_5  and  N_6
REMARK    3  A    between atoms: C_7  and  C_9
REMARK    4  A    between atoms: C_9  and  S_10
REMARK    5  A    between atoms: S_10  and  C_11
REMARK    6  A    between atoms: C_11  and  C_12
REMARK    7  A    between atoms: C_11  and  C_13
REMARK    8  A    between atoms: C_13  and  O_15
REMARK    9  A    between atoms: O_15  and  C_16
REMARK   10  A    between atoms: C_16  and  C_17
REMARK   11  A    between atoms: C_23  and  C_25
REMARK                            x       y       z     vdW  Elec       q    Type
REMARK                         _______ _______ _______ _____ _____    ______ ____
ROOT
ATOM      1  C   UNL     1       1.942   5.811  20.307  0.00  0.00    +0.000 C 
ATOM      2  O   UNL     1       2.878   5.957  19.529  0.00  0.00    +0.000 OA
ENDROOT
BRANCH   1   3
ATOM      3  C   UNL     1       1.369   4.465  20.745  0.00  0.00    +0.000 C 
ATOM      4  C   UNL     1       2.320   3.819  21.750  0.00  0.00    +0.000 C 
BRANCH   3   5
ATOM      5  S   UNL     1       1.134   3.427  19.250  0.00  0.00    +0.000 S 
BRANCH   5   6
ATOM      6  C   UNL     1       2.472   2.198  19.471  0.00  0.00    +0.000 C 
BRANCH   6   8
ATOM      7  N   UNL     1       4.060   3.562  18.198  0.00  0.00    +0.000 N 
ATOM      8  C   UNL     1       3.523   2.296  18.363  0.00  0.00    +0.000 C 
ATOM      9  O   UNL     1       3.887   1.281  17.774  0.00  0.00    +0.000 OA
ATOM     10  H   UNL     1       3.738   4.265  18.855  0.00  0.00    +0.000 HD
BRANCH   7  15
ATOM     11  C   UNL     1       7.591   5.255  14.017  0.00  0.00    +0.000 C 
ATOM     12  C   UNL     1       6.684   4.806  15.126  0.00  0.00    +0.000 A 
ATOM     13  C   UNL     1       7.131   4.771  16.449  0.00  0.00    +0.000 A 
ATOM     14  C   UNL     1       6.275   4.373  17.481  0.00  0.00    +0.000 A 
ATOM     15  C   UNL     1       4.962   3.991  17.207  0.00  0.00    +0.000 A 
ATOM     16  C   UNL     1       4.521   4.000  15.881  0.00  0.00    +0.000 A 
ATOM     17  C   UNL     1       5.370   4.415  14.849  0.00  0.00    +0.000 A 
ENDBRANCH   7  15
ENDBRANCH   6   8
ENDBRANCH   5   6
ENDBRANCH   3   5
ENDBRANCH   1   3
BRANCH   1  18
ATOM     18  O   UNL     1       1.287   6.841  20.923  0.00  0.00    +0.000 OA
BRANCH  18  19
ATOM     19  C   UNL     1       1.852   8.132  20.651  0.00  0.00    +0.000 C 
BRANCH  19  20
ATOM     20  C   UNL     1       1.216   9.168  21.589  0.00  0.00    +0.000 C 
ATOM     21  O   UNL     1       1.693   9.373  22.709  0.00  0.00    +0.000 OA
ATOM     22  N   UNL     1       0.125   9.887  21.125  0.00  0.00    +0.000 N 
ATOM     23  C   UNL     1      -0.435  10.930  21.994  0.00  0.00    +0.000 C 
ATOM     24  C   UNL     1      -0.900  12.147  21.187  0.00  0.00    +0.000 C 
ATOM     25  N   UNL     1      -1.800  11.739  20.104  0.00  0.00    +0.000 N 
ATOM     26  C   UNL     1      -2.914  12.536  19.827  0.00  0.00    +0.000 C 
ATOM     27  O   UNL     1      -3.078  13.605  20.415  0.00  0.00    +0.000 OA
ATOM     28  C   UNL     1      -1.229  10.722  19.211  0.00  0.00    +0.000 C 
ATOM     29  C   UNL     1      -0.733   9.497  19.998  0.00  0.00    +0.000 C 
BRANCH  26  30
ATOM     30  C   UNL     1      -3.879  12.079  18.842  0.00  0.00    +0.000 A 
ATOM     31  C   UNL     1      -5.222  11.777  18.986  0.00  0.00    +0.000 A 
ATOM     32  C   UNL     1      -5.685  11.353  17.719  0.00  0.00    +0.000 A 
ATOM     33  C   UNL     1      -4.592  11.374  16.887  0.00  0.00    +0.000 A 
ATOM     34  O   UNL     1      -3.490  11.788  17.561  0.00  0.00    +0.000 OA
ENDBRANCH  26  30
ENDBRANCH  19  20
ENDBRANCH  18  19
ENDBRANCH   1  18
TORSDOF 9
ENDMDL
MODEL 7
REMARK VINA RESULT:      -7.2      4.302      8.493
REMARK  Name = 
REMARK  11 active torsions:
REMARK  status: ('A' for Active; 'I' for Inactive)
REMARK    1  A    between atoms: C_1  and  C_2
REMARK    2  A    between atoms: C_5  and  N_6
REMARK    3  A    between atoms: C_7  and  C_9
REMARK    4  A    between atoms: C_9  and  S_10
REMARK    5  A    between atoms: S_10  and  C_11
REMARK    6  A    between atoms: C_11  and  C_12
REMARK    7  A    between atoms: C_11  and  C_13
REMARK    8  A    between atoms: C_13  and  O_15
REMARK    9  A    between atoms: O_15  and  C_16
REMARK   10  A    between atoms: C_16  and  C_17
REMARK   11  A    between atoms: C_23  and  C_25
REMARK                            x       y       z     vdW  Elec       q    Type
REMARK                         _______ _______ _______ _____ _____    ______ ____
ROOT
ATOM      1  C   UNL     1       2.126  13.633  20.822  0.00  0.00    +0.000 C 
ATOM      2  O   UNL     1       3.052  13.199  21.499  0.00  0.00    +0.000 OA
ENDROOT
BRANCH   1   3
ATOM      3  C   UNL     1       2.178  14.906  19.981  0.00  0.00    +0.000 C 
ATOM      4  C   UNL     1       0.778  15.510  19.898  0.00  0.00    +0.000 C 
BRANCH   3   5
ATOM      5  S   UNL     1       2.845  14.477  18.327  0.00  0.00    +0.000 S 
BRANCH   5   6
ATOM      6  C   UNL     1       4.249  15.646  18.208  0.00  0.00    +0.000 C 
BRANCH   6   8
ATOM      7  N   UNL     1       6.466  14.746  17.687  0.00  0.00    +0.000 N 
ATOM      8  C   UNL     1       5.556  15.017  18.694  0.00  0.00    +0.000 C 
ATOM      9  O   UNL     1       5.759  14.883  19.899  0.00  0.00    +0.000 OA
ATOM     10  H   UNL     1       6.190  15.035  16.755  0.00  0.00    +0.000 HD
BRANCH   7  15
ATOM     11  C   UNL     1      11.592  12.235  18.171  0.00  0.00    +0.000 C 
ATOM     12  C   UNL     1      10.243  12.875  18.030  0.00  0.00    +0.000 A 
ATOM     13  C   UNL     1       9.122  12.118  17.679  0.00  0.00    +0.000 A 
ATOM     14  C   UNL     1       7.862  12.716  17.571  0.00  0.00    +0.000 A 
ATOM     15  C   UNL     1       7.702  14.083  17.800  0.00  0.00    +0.000 A 
ATOM     16  C   UNL     1       8.827  14.847  18.125  0.00  0.00    +0.000 A 
ATOM     17  C   UNL     1      10.085  14.248  18.251  0.00  0.00    +0.000 A 
ENDBRANCH   7  15
ENDBRANCH   6   8
ENDBRANCH   5   6
ENDBRANCH   3   5
ENDBRANCH   1   3
BRANCH   1  18
ATOM     18  O   UNL     1       0.911  13.020  20.699  0.00  0.00    +0.000 OA
BRANCH  18  19
ATOM     19  C   UNL     1       0.968  11.591  20.819  0.00  0.00    +0.000 C 
BRANCH  19  20
ATOM     20  C   UNL     1       1.021  10.969  19.416  0.00  0.00    +0.000 C 
ATOM     21  O   UNL     1       0.869  11.675  18.415  0.00  0.00    +0.000 OA
ATOM     22  N   UNL     1       1.283   9.612  19.312  0.00  0.00    +0.000 N 
ATOM     23  C   UNL     1       1.409   9.034  17.968  0.00  0.00    +0.000 C 
ATOM     24  C   UNL     1       2.496   7.954  17.918  0.00  0.00    +0.000 C 
ATOM     25  N   UNL     1       2.283   6.955  18.969  0.00  0.00    +0.000 N 
ATOM     26  C   UNL     1       2.507   5.609  18.665  0.00  0.00    +0.000 C 
ATOM     27  O   UNL     1       2.965   5.285  17.569  0.00  0.00    +0.000 OA
ATOM     28  C   UNL     1       2.192   7.526  20.319  0.00  0.00    +0.000 C 
ATOM     29  C   UNL     1       1.124   8.630  20.393  0.00  0.00    +0.000 C 
BRANCH  26  30
ATOM     30  C   UNL     1       2.181   4.600  19.657  0.00  0.00    +0.000 A 
ATOM     31  C   UNL     1       0.950   4.114  20.062  0.00  0.00    +0.000 A 
ATOM     32  C   UNL     1       1.198   3.160  21.077  0.00  0.00    +0.000 A 
ATOM     33  C   UNL     1       2.558   3.152  21.267  0.00  0.00    +0.000 A 
ATOM     34  O   UNL     1       3.160   4.036  20.432  0.00  0.00    +0.000 OA
ENDBRANCH  26  30
ENDBRANCH  19  20
ENDBRANCH  18  19
ENDBRANCH   1  18
TORSDOF 9
ENDMDL
MODEL 8
REMARK VINA RESULT:      -7.2      1.084      1.584
REMARK  Name = 
REMARK  11 active torsions:
REMARK  status: ('A' for Active; 'I' for Inactive)
REMARK    1  A    between atoms: C_1  and  C_2
REMARK    2  A    between atoms: C_5  and  N_6
REMARK    3  A    between atoms: C_7  and  C_9
REMARK    4  A    between atoms: C_9  and  S_10
REMARK    5  A    between atoms: S_10  and  C_11
REMARK    6  A    between atoms: C_11  and  C_12
REMARK    7  A    between atoms: C_11  and  C_13
REMARK    8  A    between atoms: C_13  and  O_15
REMARK    9  A    between atoms: O_15  and  C_16
REMARK   10  A    between atoms: C_16  and  C_17
REMARK   11  A    between atoms: C_23  and  C_25
REMARK                            x       y       z     vdW  Elec       q    Type
REMARK                         _______ _______ _______ _____ _____    ______ ____
ROOT
ATOM      1  C   UNL     1       2.467   3.148  20.725  0.00  0.00    +0.000 C 
ATOM      2  O   UNL     1       2.660   3.087  21.935  0.00  0.00    +0.000 OA
ENDROOT
BRANCH   1   3
ATOM      3  C   UNL     1       2.910   2.093  19.714  0.00  0.00    +0.000 C 
ATOM      4  C   UNL     1       4.391   1.788  19.924  0.00  0.00    +0.000 C 
BRANCH   3   5
ATOM      5  S   UNL     1       2.568   2.733  18.028  0.00  0.00    +0.000 S 
BRANCH   5   6
ATOM      6  C   UNL     1       4.233   2.624  17.276  0.00  0.00    +0.000 C 
BRANCH   6   8
ATOM      7  N   UNL     1       5.876   4.332  17.896  0.00  0.00    +0.000 N 
ATOM      8  C   UNL     1       4.841   4.008  17.036  0.00  0.00    +0.000 C 
ATOM      9  O   UNL     1       4.464   4.685  16.082  0.00  0.00    +0.000 OA
ATOM     10  H   UNL     1       6.148   3.606  18.550  0.00  0.00    +0.000 HD
BRANCH   7  15
ATOM     11  C   UNL     1       8.564   9.385  18.124  0.00  0.00    +0.000 C 
ATOM     12  C   UNL     1       7.879   8.052  18.073  0.00  0.00    +0.000 A 
ATOM     13  C   UNL     1       8.263   7.015  18.927  0.00  0.00    +0.000 A 
ATOM     14  C   UNL     1       7.606   5.780  18.892  0.00  0.00    +0.000 A 
ATOM     15  C   UNL     1       6.562   5.557  17.994  0.00  0.00    +0.000 A 
ATOM     16  C   UNL     1       6.194   6.584  17.121  0.00  0.00    +0.000 A 
ATOM     17  C   UNL     1       6.838   7.826  17.167  0.00  0.00    +0.000 A 
ENDBRANCH   7  15
ENDBRANCH   6   8
ENDBRANCH   5   6
ENDBRANCH   3   5
ENDBRANCH   1   3
BRANCH   1  18
ATOM     18  O   UNL     1       1.799   4.166  20.104  0.00  0.00    +0.000 OA
BRANCH  18  19
ATOM     19  C   UNL     1       1.995   5.448  20.719  0.00  0.00    +0.000 C 
BRANCH  19  20
ATOM     20  C   UNL     1       2.371   6.472  19.639  0.00  0.00    +0.000 C 
ATOM     21  O   UNL     1       3.111   6.150  18.704  0.00  0.00    +0.000 OA
ATOM     22  N   UNL     1       1.826   7.743  19.726  0.00  0.00    +0.000 N 
ATOM     23  C   UNL     1       2.126   8.699  18.651  0.00  0.00    +0.000 C 
ATOM     24  C   UNL     1       0.917   9.583  18.328  0.00  0.00    +0.000 C 
ATOM     25  N   UNL     1       0.395  10.212  19.545  0.00  0.00    +0.000 N 
ATOM     26  C   UNL     1      -0.031  11.542  19.478  0.00  0.00    +0.000 C 
ATOM     27  O   UNL     1      -0.055  12.135  18.399  0.00  0.00    +0.000 OA
ATOM     28  C   UNL     1       0.059   9.257  20.609  0.00  0.00    +0.000 C 
ATOM     29  C   UNL     1       1.249   8.341  20.938  0.00  0.00    +0.000 C 
BRANCH  26  30
ATOM     30  C   UNL     1      -0.433  12.215  20.700  0.00  0.00    +0.000 A 
ATOM     31  C   UNL     1       0.280  13.073  21.520  0.00  0.00    +0.000 A 
ATOM     32  C   UNL     1      -0.574  13.420  22.593  0.00  0.00    +0.000 A 
ATOM     33  C   UNL     1      -1.739  12.720  22.393  0.00  0.00    +0.000 A 
ATOM     34  O   UNL     1      -1.656  11.971  21.266  0.00  0.00    +0.000 OA
ENDBRANCH  26  30
ENDBRANCH  19  20
ENDBRANCH  18  19
ENDBRANCH   1  18
TORSDOF 9
ENDMDL
MODEL 9
REMARK VINA RESULT:      -7.2      4.716      8.168
REMARK  Name = 
REMARK  11 active torsions:
REMARK  status: ('A' for Active; 'I' for Inactive)
REMARK    1  A    between atoms: C_1  and  C_2
REMARK    2  A    between atoms: C_5  and  N_6
REMARK    3  A    between atoms: C_7  and  C_9
REMARK    4  A    between atoms: C_9  and  S_10
REMARK    5  A    between atoms: S_10  and  C_11
REMARK    6  A    between atoms: C_11  and  C_12
REMARK    7  A    between atoms: C_11  and  C_13
REMARK    8  A    between atoms: C_13  and  O_15
REMARK    9  A    between atoms: O_15  and  C_16
REMARK   10  A    between atoms: C_16  and  C_17
REMARK   11  A    between atoms: C_23  and  C_25
REMARK                            x       y       z     vdW  Elec       q    Type
REMARK                         _______ _______ _______ _____ _____    ______ ____
ROOT
ATOM      1  C   UNL     1       6.433   6.348  16.386  0.00  0.00    +0.000 C 
ATOM      2  O   UNL     1       5.477   7.069  16.120  0.00  0.00    +0.000 OA
ENDROOT
BRANCH   1   3
ATOM      3  C   UNL     1       6.544   4.870  16.018  0.00  0.00    +0.000 C 
ATOM      4  C   UNL     1       7.066   4.748  14.588  0.00  0.00    +0.000 C 
BRANCH   3   5
ATOM      5  S   UNL     1       4.890   4.102  16.218  0.00  0.00    +0.000 S 
BRANCH   5   6
ATOM      6  C   UNL     1       4.623   4.324  18.016  0.00  0.00    +0.000 C 
BRANCH   6   8
ATOM      7  N   UNL     1       3.559   6.501  18.376  0.00  0.00    +0.000 N 
ATOM      8  C   UNL     1       3.357   5.133  18.307  0.00  0.00    +0.000 C 
ATOM      9  O   UNL     1       2.269   4.566  18.364  0.00  0.00    +0.000 OA
ATOM     10  H   UNL     1       4.504   6.816  18.180  0.00  0.00    +0.000 HD
BRANCH   7  15
ATOM     11  C   UNL     1      -0.218  10.627  19.606  0.00  0.00    +0.000 C 
ATOM     12  C   UNL     1       0.777   9.545  19.307  0.00  0.00    +0.000 A 
ATOM     13  C   UNL     1       1.169   8.637  20.294  0.00  0.00    +0.000 A 
ATOM     14  C   UNL     1       2.080   7.616  20.003  0.00  0.00    +0.000 A 
ATOM     15  C   UNL     1       2.624   7.493  18.725  0.00  0.00    +0.000 A 
ATOM     16  C   UNL     1       2.254   8.416  17.743  0.00  0.00    +0.000 A 
ATOM     17  C   UNL     1       1.328   9.427  18.027  0.00  0.00    +0.000 A 
ENDBRANCH   7  15
ENDBRANCH   6   8
ENDBRANCH   5   6
ENDBRANCH   3   5
ENDBRANCH   1   3
BRANCH   1  18
ATOM     18  O   UNL     1       7.559   6.773  17.034  0.00  0.00    +0.000 OA
BRANCH  18  19
ATOM     19  C   UNL     1       7.669   8.201  17.128  0.00  0.00    +0.000 C 
BRANCH  19  20
ATOM     20  C   UNL     1       8.433   8.564  18.409  0.00  0.00    +0.000 C 
ATOM     21  O   UNL     1       8.756   7.684  19.214  0.00  0.00    +0.000 OA
ATOM     22  N   UNL     1       8.781   9.890  18.610  0.00  0.00    +0.000 N 
ATOM     23  C   UNL     1       9.577  10.224  19.798  0.00  0.00    +0.000 C 
ATOM     24  C   UNL     1      10.602  11.324  19.499  0.00  0.00    +0.000 C 
ATOM     25  N   UNL     1       9.952  12.485  18.883  0.00  0.00    +0.000 N 
ATOM     26  C   UNL     1      10.363  13.764  19.271  0.00  0.00    +0.000 C 
ATOM     27  O   UNL     1      11.315  13.906  20.039  0.00  0.00    +0.000 OA
ATOM     28  C   UNL     1       9.184  12.161  17.673  0.00  0.00    +0.000 C 
ATOM     29  C   UNL     1       8.162  11.043  17.938  0.00  0.00    +0.000 C 
BRANCH  26  30
ATOM     30  C   UNL     1       9.645  14.919  18.761  0.00  0.00    +0.000 A 
ATOM     31  C   UNL     1      10.051  15.898  17.872  0.00  0.00    +0.000 A 
ATOM     32  C   UNL     1       8.974  16.805  17.740  0.00  0.00    +0.000 A 
ATOM     33  C   UNL     1       7.991  16.355  18.588  0.00  0.00    +0.000 A 
ATOM     34  O   UNL     1       8.395  15.229  19.228  0.00  0.00    +0.000 OA
ENDBRANCH  26  30
ENDBRANCH  19  20
ENDBRANCH  18  19
ENDBRANCH   1  18
TORSDOF 9
ENDMDL
