MODEL 1
REMARK VINA RESULT:      -7.5      0.000      0.000
REMARK  Name = 
REMARK  6 active torsions:
REMARK  status: ('A' for Active; 'I' for Inactive)
REMARK    1  A    between atoms: C_1  and  C_2
REMARK    2  A    between atoms: C_5  and  C_6
REMARK    3  A    between atoms: C_6  and  S_7
REMARK    4  A    between atoms: S_7  and  C_8
REMARK    5  A    between atoms: C_11  and  S_12
REMARK    6  A    between atoms: S_12  and  N_15
REMARK                            x       y       z     vdW  Elec       q    Type
REMARK                         _______ _______ _______ _____ _____    ______ ____
ROOT
ATOM      1  C   UNL     1       2.563   6.983  19.406  0.00  0.00    +0.000 A 
ATOM      2  C   UNL     1       2.688   7.718  18.229  0.00  0.00    +0.000 A 
ATOM      3  C   UNL     1       3.523   7.243  17.214  0.00  0.00    +0.000 A 
ATOM      4  C   UNL     1       4.190   6.033  17.395  0.00  0.00    +0.000 A 
ATOM      5  C   UNL     1       4.008   5.361  18.590  0.00  0.00    +0.000 A 
ATOM      6  N   UNL     1       3.197   5.801  19.590  0.00  0.00    +0.000 NA
ENDROOT
BRANCH   4   7
ATOM      7  S   UNL     1       5.450   5.495  16.274  0.00  0.00    +0.000 S 
ATOM      8  O   UNL     1       5.352   4.052  16.201  0.00  0.00    +0.000 OA
ATOM      9  O   UNL     1       5.335   6.311  15.082  0.00  0.00    +0.000 OA
BRANCH   7  10
ATOM     10  N   UNL     1       6.911   5.871  17.008  0.00  0.00    +0.000 NA
ATOM     11  C   UNL     1       7.559   4.921  17.926  0.00  0.00    +0.000 C 
ATOM     12  C   UNL     1       7.823   5.742  19.176  0.00  0.00    +0.000 C 
ATOM     13  C   UNL     1       8.131   7.122  18.624  0.00  0.00    +0.000 C 
ATOM     14  C   UNL     1       7.198   7.257  17.425  0.00  0.00    +0.000 C 
ENDBRANCH   7  10
ENDBRANCH   4   7
BRANCH   1  15
ATOM     15  S   UNL     1       1.532   7.612  20.725  0.00  0.00    +0.000 S 
BRANCH  15  16
ATOM     16  C   UNL     1       1.233   9.309  20.129  0.00  0.00    +0.000 C 
BRANCH  16  21
ATOM     17  C   UNL     1      -2.614  12.193  23.454  0.00  0.00    +0.000 C 
ATOM     18  C   UNL     1      -1.611  11.471  22.602  0.00  0.00    +0.000 A 
ATOM     19  C   UNL     1      -1.380  11.855  21.277  0.00  0.00    +0.000 A 
ATOM     20  C   UNL     1      -0.451  11.166  20.489  0.00  0.00    +0.000 A 
ATOM     21  C   UNL     1       0.263  10.075  21.005  0.00  0.00    +0.000 A 
ATOM     22  C   UNL     1       0.039   9.702  22.338  0.00  0.00    +0.000 A 
ATOM     23  C   UNL     1      -0.890  10.391  23.126  0.00  0.00    +0.000 A 
ENDBRANCH  16  21
ENDBRANCH  15  16
ENDBRANCH   1  15
TORSDOF 5
ENDMDL
MODEL 2
REMARK VINA RESULT:      -7.4      2.907      4.492
REMARK  Name = 
REMARK  6 active torsions:
REMARK  status: ('A' for Active; 'I' for Inactive)
REMARK    1  A    between atoms: C_1  and  C_2
REMARK    2  A    between atoms: C_5  and  C_6
REMARK    3  A    between atoms: C_6  and  S_7
REMARK    4  A    between atoms: S_7  and  C_8
REMARK    5  A    between atoms: C_11  and  S_12
REMARK    6  A    between atoms: S_12  and  N_15
REMARK                            x       y       z     vdW  Elec       q    Type
REMARK                         _______ _______ _______ _____ _____    ______ ____
ROOT
ATOM      1  C   UNL     1       2.740   7.905  18.197  0.00  0.00    +0.000 A 
ATOM      2  C   UNL     1       2.284   7.185  19.298  0.00  0.00    +0.000 A 
ATOM      3  C   UNL     1       2.790   5.902  19.531  0.00  0.00    +0.000 A 
ATOM      4  C   UNL     1       3.755   5.387  18.668  0.00  0.00    +0.000 A 
ATOM      5  C   UNL     1       4.159   6.169  17.601  0.00  0.00    +0.000 A 
ATOM      6  N   UNL     1       3.685   7.420  17.357  0.00  0.00    +0.000 NA
ENDROOT
BRANCH   4   7
ATOM      7  S   UNL     1       4.254   3.690  18.746  0.00  0.00    +0.000 S 
ATOM      8  O   UNL     1       4.281   3.202  17.383  0.00  0.00    +0.000 OA
ATOM      9  O   UNL     1       5.437   3.634  19.581  0.00  0.00    +0.000 OA
BRANCH   7  10
ATOM     10  N   UNL     1       3.023   2.886  19.553  0.00  0.00    +0.000 NA
ATOM     11  C   UNL     1       1.729   2.639  18.897  0.00  0.00    +0.000 C 
ATOM     12  C   UNL     1       0.710   3.183  19.883  0.00  0.00    +0.000 C 
ATOM     13  C   UNL     1       1.335   2.875  21.231  0.00  0.00    +0.000 C 
ATOM     14  C   UNL     1       2.829   3.085  21.001  0.00  0.00    +0.000 C 
ENDBRANCH   7  10
ENDBRANCH   4   7
BRANCH   1  15
ATOM     15  S   UNL     1       2.060   9.527  17.871  0.00  0.00    +0.000 S 
BRANCH  15  16
ATOM     16  C   UNL     1       0.864   9.665  19.241  0.00  0.00    +0.000 C 
BRANCH  16  21
ATOM     17  C   UNL     1      -4.327  11.634  17.412  0.00  0.00    +0.000 C 
ATOM     18  C   UNL     1      -3.004  11.118  17.900  0.00  0.00    +0.000 A 
ATOM     19  C   UNL     1      -2.387  11.666  19.029  0.00  0.00    +0.000 A 
ATOM     20  C   UNL     1      -1.149  11.183  19.467  0.00  0.00    +0.000 A 
ATOM     21  C   UNL     1      -0.497  10.147  18.783  0.00  0.00    +0.000 A 
ATOM     22  C   UNL     1      -1.125   9.591  17.660  0.00  0.00    +0.000 A 
ATOM     23  C   UNL     1      -2.364  10.073  17.222  0.00  0.00    +0.000 A 
ENDBRANCH  16  21
ENDBRANCH  15  16
ENDBRANCH   1  15
TORSDOF 5
ENDMDL
MODEL 3
REMARK VINA RESULT:      -7.4      3.262      4.465
REMARK  Name = 
REMARK  6 active torsions:
REMARK  status: ('A' for Active; 'I' for Inactive)
REMARK    1  A    between atoms: C_1  and  C_2
REMARK    2  A    between atoms: C_5  and  C_6
REMARK    3  A    between atoms: C_6  and  S_7
REMARK    4  A    between atoms: S_7  and  C_8
REMARK    5  A    between atoms: C_11  and  S_12
REMARK    6  A    between atoms: S_12  and  N_15
REMARK                            x       y       z     vdW  Elec       q    Type
REMARK                         _______ _______ _______ _____ _____    ______ ____
ROOT
ATOM      1  C   UNL     1       1.483   8.704  19.686  0.00  0.00    +0.000 A 
ATOM      2  C   UNL     1       1.967   8.622  18.382  0.00  0.00    +0.000 A 
ATOM      3  C   UNL     1       2.644   7.467  17.977  0.00  0.00    +0.000 A 
ATOM      4  C   UNL     1       2.795   6.417  18.881  0.00  0.00    +0.000 A 
ATOM      5  C   UNL     1       2.279   6.575  20.155  0.00  0.00    +0.000 A 
ATOM      6  N   UNL     1       1.614   7.686  20.570  0.00  0.00    +0.000 NA
ENDROOT
BRANCH   4   7
ATOM      7  S   UNL     1       3.848   5.039  18.529  0.00  0.00    +0.000 S 
ATOM      8  O   UNL     1       4.020   5.004  17.092  0.00  0.00    +0.000 OA
ATOM      9  O   UNL     1       4.991   5.140  19.414  0.00  0.00    +0.000 OA
BRANCH   7  10
ATOM     10  N   UNL     1       2.980   3.672  18.972  0.00  0.00    +0.000 NA
ATOM     11  C   UNL     1       1.649   3.410  18.405  0.00  0.00    +0.000 C 
ATOM     12  C   UNL     1       0.771   3.182  19.623  0.00  0.00    +0.000 C 
ATOM     13  C   UNL     1       1.706   2.491  20.598  0.00  0.00    +0.000 C 
ATOM     14  C   UNL     1       3.055   3.161  20.354  0.00  0.00    +0.000 C 
ENDBRANCH   7  10
ENDBRANCH   4   7
BRANCH   1  15
ATOM     15  S   UNL     1       0.660  10.198  20.220  0.00  0.00    +0.000 S 
BRANCH  15  16
ATOM     16  C   UNL     1       0.216  10.926  18.608  0.00  0.00    +0.000 C 
BRANCH  16  21
ATOM     17  C   UNL     1      -5.576  11.043  17.832  0.00  0.00    +0.000 C 
ATOM     18  C   UNL     1      -4.086  11.022  18.010  0.00  0.00    +0.000 A 
ATOM     19  C   UNL     1      -3.289  10.101  17.323  0.00  0.00    +0.000 A 
ATOM     20  C   UNL     1      -1.902  10.084  17.506  0.00  0.00    +0.000 A 
ATOM     21  C   UNL     1      -1.281  10.984  18.384  0.00  0.00    +0.000 A 
ATOM     22  C   UNL     1      -2.081  11.915  19.061  0.00  0.00    +0.000 A 
ATOM     23  C   UNL     1      -3.468  11.932  18.878  0.00  0.00    +0.000 A 
ENDBRANCH  16  21
ENDBRANCH  15  16
ENDBRANCH   1  15
TORSDOF 5
ENDMDL
MODEL 4
REMARK VINA RESULT:      -7.4      4.471      7.934
REMARK  Name = 
REMARK  6 active torsions:
REMARK  status: ('A' for Active; 'I' for Inactive)
REMARK    1  A    between atoms: C_1  and  C_2
REMARK    2  A    between atoms: C_5  and  C_6
REMARK    3  A    between atoms: C_6  and  S_7
REMARK    4  A    between atoms: S_7  and  C_8
REMARK    5  A    between atoms: C_11  and  S_12
REMARK    6  A    between atoms: S_12  and  N_15
REMARK                            x       y       z     vdW  Elec       q    Type
REMARK                         _______ _______ _______ _____ _____    ______ ____
ROOT
ATOM      1  C   UNL     1       7.330   7.670  17.659  0.00  0.00    +0.000 A 
ATOM      2  C   UNL     1       7.817   6.728  18.561  0.00  0.00    +0.000 A 
ATOM      3  C   UNL     1       7.120   5.529  18.740  0.00  0.00    +0.000 A 
ATOM      4  C   UNL     1       5.967   5.298  17.993  0.00  0.00    +0.000 A 
ATOM      5  C   UNL     1       5.552   6.281  17.113  0.00  0.00    +0.000 A 
ATOM      6  N   UNL     1       6.217   7.452  16.919  0.00  0.00    +0.000 NA
ENDROOT
BRANCH   4   7
ATOM      7  S   UNL     1       4.898   3.930  18.341  0.00  0.00    +0.000 S 
ATOM      8  O   UNL     1       4.712   3.220  17.093  0.00  0.00    +0.000 OA
ATOM      9  O   UNL     1       5.434   3.258  19.508  0.00  0.00    +0.000 OA
BRANCH   7  10
ATOM     10  N   UNL     1       3.421   4.600  18.773  0.00  0.00    +0.000 NA
ATOM     11  C   UNL     1       3.312   5.492  19.937  0.00  0.00    +0.000 C 
ATOM     12  C   UNL     1       2.185   4.888  20.757  0.00  0.00    +0.000 C 
ATOM     13  C   UNL     1       1.245   4.339  19.700  0.00  0.00    +0.000 C 
ATOM     14  C   UNL     1       2.177   3.825  18.608  0.00  0.00    +0.000 C 
ENDBRANCH   7  10
ENDBRANCH   4   7
BRANCH   1  15
ATOM     15  S   UNL     1       8.194   9.223  17.464  0.00  0.00    +0.000 S 
BRANCH  15  16
ATOM     16  C   UNL     1       8.912   9.413  19.129  0.00  0.00    +0.000 C 
BRANCH  16  21
ATOM     17  C   UNL     1      11.868  14.426  19.676  0.00  0.00    +0.000 C 
ATOM     18  C   UNL     1      11.129  13.127  19.532  0.00  0.00    +0.000 A 
ATOM     19  C   UNL     1      10.965  12.525  18.280  0.00  0.00    +0.000 A 
ATOM     20  C   UNL     1      10.264  11.320  18.157  0.00  0.00    +0.000 A 
ATOM     21  C   UNL     1       9.707  10.693  19.281  0.00  0.00    +0.000 A 
ATOM     22  C   UNL     1       9.886  11.292  20.536  0.00  0.00    +0.000 A 
ATOM     23  C   UNL     1      10.587  12.498  20.659  0.00  0.00    +0.000 A 
ENDBRANCH  16  21
ENDBRANCH  15  16
ENDBRANCH   1  15
TORSDOF 5
ENDMDL
MODEL 5
REMARK VINA RESULT:      -7.3      2.965      4.177
REMARK  Name = 
REMARK  6 active torsions:
REMARK  status: ('A' for Active; 'I' for Inactive)
REMARK    1  A    between atoms: C_1  and  C_2
REMARK    2  A    between atoms: C_5  and  C_6
REMARK    3  A    between atoms: C_6  and  S_7
REMARK    4  A    between atoms: S_7  and  C_8
REMARK    5  A    between atoms: C_11  and  S_12
REMARK    6  A    between atoms: S_12  and  N_15
REMARK                            x       y       z     vdW  Elec       q    Type
REMARK                         _______ _______ _______ _____ _____    ______ ____
ROOT
ATOM      1  C   UNL     1       1.658   8.270  19.732  0.00  0.00    +0.000 A 
ATOM      2  C   UNL     1       2.175   8.477  18.455  0.00  0.00    +0.000 A 
ATOM      3  C   UNL     1       2.959   7.480  17.865  0.00  0.00    +0.000 A 
ATOM      4  C   UNL     1       3.183   6.294  18.562  0.00  0.00    +0.000 A 
ATOM      5  C   UNL     1       2.629   6.164  19.823  0.00  0.00    +0.000 A 
ATOM      6  N   UNL     1       1.860   7.117  20.414  0.00  0.00    +0.000 NA
ENDROOT
BRANCH   4   7
ATOM      7  S   UNL     1       4.360   5.099  17.997  0.00  0.00    +0.000 S 
ATOM      8  O   UNL     1       4.664   5.434  16.621  0.00  0.00    +0.000 OA
ATOM      9  O   UNL     1       5.408   5.030  18.995  0.00  0.00    +0.000 OA
BRANCH   7  10
ATOM     10  N   UNL     1       3.557   3.626  17.999  0.00  0.00    +0.000 NA
ATOM     11  C   UNL     1       2.240   3.485  17.359  0.00  0.00    +0.000 C 
ATOM     12  C   UNL     1       1.373   2.866  18.440  0.00  0.00    +0.000 C 
ATOM     13  C   UNL     1       2.338   1.957  19.179  0.00  0.00    +0.000 C 
ATOM     14  C   UNL     1       3.654   2.728  19.166  0.00  0.00    +0.000 C 
ENDBRANCH   7  10
ENDBRANCH   4   7
BRANCH   1  15
ATOM     15  S   UNL     1       0.696   9.562  20.506  0.00  0.00    +0.000 S 
BRANCH  15  16
ATOM     16  C   UNL     1       0.501  10.713  19.106  0.00  0.00    +0.000 C 
BRANCH  16  21
ATOM     17  C   UNL     1      -4.996  11.216  17.181  0.00  0.00    +0.000 C 
ATOM     18  C   UNL     1      -3.592  11.076  17.695  0.00  0.00    +0.000 A 
ATOM     19  C   UNL     1      -3.130  11.862  18.755  0.00  0.00    +0.000 A 
ATOM     20  C   UNL     1      -1.815  11.730  19.218  0.00  0.00    +0.000 A 
ATOM     21  C   UNL     1      -0.933  10.814  18.626  0.00  0.00    +0.000 A 
ATOM     22  C   UNL     1      -1.404  10.018  17.573  0.00  0.00    +0.000 A 
ATOM     23  C   UNL     1      -2.719  10.150  17.111  0.00  0.00    +0.000 A 
ENDBRANCH  16  21
ENDBRANCH  15  16
ENDBRANCH   1  15
TORSDOF 5
ENDMDL
MODEL 6
REMARK VINA RESULT:      -7.3      2.336      2.995
REMARK  Name = 
REMARK  6 active torsions:
REMARK  status: ('A' for Active; 'I' for Inactive)
REMARK    1  A    between atoms: C_1  and  C_2
REMARK    2  A    between atoms: C_5  and  C_6
REMARK    3  A    between atoms: C_6  and  S_7
REMARK    4  A    between atoms: S_7  and  C_8
REMARK    5  A    between atoms: C_11  and  S_12
REMARK    6  A    between atoms: S_12  and  N_15
REMARK                            x       y       z     vdW  Elec       q    Type
REMARK                         _______ _______ _______ _____ _____    ______ ____
ROOT
ATOM      1  C   UNL     1       3.515   6.334  18.930  0.00  0.00    +0.000 A 
ATOM      2  C   UNL     1       3.590   6.993  17.705  0.00  0.00    +0.000 A 
ATOM      3  C   UNL     1       4.653   6.709  16.842  0.00  0.00    +0.000 A 
ATOM      4  C   UNL     1       5.598   5.758  17.220  0.00  0.00    +0.000 A 
ATOM      5  C   UNL     1       5.448   5.144  18.451  0.00  0.00    +0.000 A 
ATOM      6  N   UNL     1       4.420   5.400  19.304  0.00  0.00    +0.000 NA
ENDROOT
BRANCH   4   7
ATOM      7  S   UNL     1       7.096   5.529  16.306  0.00  0.00    +0.000 S 
ATOM      8  O   UNL     1       7.818   6.782  16.372  0.00  0.00    +0.000 OA
ATOM      9  O   UNL     1       7.697   4.297  16.777  0.00  0.00    +0.000 OA
BRANCH   7  10
ATOM     10  N   UNL     1       6.630   5.290  14.712  0.00  0.00    +0.000 NA
ATOM     11  C   UNL     1       5.516   4.389  14.380  0.00  0.00    +0.000 C 
ATOM     12  C   UNL     1       6.101   3.453  13.338  0.00  0.00    +0.000 C 
ATOM     13  C   UNL     1       7.058   4.346  12.570  0.00  0.00    +0.000 C 
ATOM     14  C   UNL     1       7.641   5.266  13.638  0.00  0.00    +0.000 C 
ENDBRANCH   7  10
ENDBRANCH   4   7
BRANCH   1  15
ATOM     15  S   UNL     1       2.182   6.730  20.056  0.00  0.00    +0.000 S 
BRANCH  15  16
ATOM     16  C   UNL     1       1.711   8.381  19.442  0.00  0.00    +0.000 C 
BRANCH  16  21
ATOM     17  C   UNL     1      -1.554  11.375  23.255  0.00  0.00    +0.000 C 
ATOM     18  C   UNL     1      -0.732  10.589  22.276  0.00  0.00    +0.000 A 
ATOM     19  C   UNL     1      -0.023   9.452  22.677  0.00  0.00    +0.000 A 
ATOM     20  C   UNL     1       0.749   8.734  21.757  0.00  0.00    +0.000 A 
ATOM     21  C   UNL     1       0.836   9.140  20.418  0.00  0.00    +0.000 A 
ATOM     22  C   UNL     1       0.112  10.272  20.016  0.00  0.00    +0.000 A 
ATOM     23  C   UNL     1      -0.660  10.990  20.936  0.00  0.00    +0.000 A 
ENDBRANCH  16  21
ENDBRANCH  15  16
ENDBRANCH   1  15
TORSDOF 5
ENDMDL
MODEL 7
REMARK VINA RESULT:      -7.3      2.423      3.307
REMARK  Name = 
REMARK  6 active torsions:
REMARK  status: ('A' for Active; 'I' for Inactive)
REMARK    1  A    between atoms: C_1  and  C_2
REMARK    2  A    between atoms: C_5  and  C_6
REMARK    3  A    between atoms: C_6  and  S_7
REMARK    4  A    between atoms: S_7  and  C_8
REMARK    5  A    between atoms: C_11  and  S_12
REMARK    6  A    between atoms: S_12  and  N_15
REMARK                            x       y       z     vdW  Elec       q    Type
REMARK                         _______ _______ _______ _____ _____    ______ ____
ROOT
ATOM      1  C   UNL     1       1.693   7.439  20.225  0.00  0.00    +0.000 A 
ATOM      2  C   UNL     1       2.365   7.650  19.023  0.00  0.00    +0.000 A 
ATOM      3  C   UNL     1       3.001   6.572  18.399  0.00  0.00    +0.000 A 
ATOM      4  C   UNL     1       2.926   5.310  18.984  0.00  0.00    +0.000 A 
ATOM      5  C   UNL     1       2.234   5.183  20.174  0.00  0.00    +0.000 A 
ATOM      6  N   UNL     1       1.603   6.215  20.797  0.00  0.00    +0.000 NA
ENDROOT
BRANCH   4   7
ATOM      7  S   UNL     1       3.908   3.959  18.396  0.00  0.00    +0.000 S 
ATOM      8  O   UNL     1       4.563   3.387  19.553  0.00  0.00    +0.000 OA
ATOM      9  O   UNL     1       3.055   3.151  17.547  0.00  0.00    +0.000 OA
BRANCH   7  10
ATOM     10  N   UNL     1       5.093   4.642  17.424  0.00  0.00    +0.000 NA
ATOM     11  C   UNL     1       5.022   4.529  15.959  0.00  0.00    +0.000 C 
ATOM     12  C   UNL     1       6.381   3.975  15.568  0.00  0.00    +0.000 C 
ATOM     13  C   UNL     1       7.317   4.614  16.576  0.00  0.00    +0.000 C 
ATOM     14  C   UNL     1       6.501   4.653  17.865  0.00  0.00    +0.000 C 
ENDBRANCH   7  10
ENDBRANCH   4   7
BRANCH   1  15
ATOM     15  S   UNL     1       0.918   8.824  21.049  0.00  0.00    +0.000 S 
BRANCH  15  16
ATOM     16  C   UNL     1       1.055  10.098  19.752  0.00  0.00    +0.000 C 
BRANCH  16  21
ATOM     17  C   UNL     1      -4.003  11.359  17.108  0.00  0.00    +0.000 C 
ATOM     18  C   UNL     1      -2.716  11.023  17.803  0.00  0.00    +0.000 A 
ATOM     19  C   UNL     1      -2.363  11.642  19.007  0.00  0.00    +0.000 A 
ATOM     20  C   UNL     1      -1.155  11.328  19.640  0.00  0.00    +0.000 A 
ATOM     21  C   UNL     1      -0.270  10.395  19.081  0.00  0.00    +0.000 A 
ATOM     22  C   UNL     1      -0.634   9.766  17.881  0.00  0.00    +0.000 A 
ATOM     23  C   UNL     1      -1.843  10.080  17.248  0.00  0.00    +0.000 A 
ENDBRANCH  16  21
ENDBRANCH  15  16
ENDBRANCH   1  15
TORSDOF 5
ENDMDL
MODEL 8
REMARK VINA RESULT:      -7.2      2.461      3.103
REMARK  Name = 
REMARK  6 active torsions:
REMARK  status: ('A' for Active; 'I' for Inactive)
REMARK    1  A    between atoms: C_1  and  C_2
REMARK    2  A    between atoms: C_5  and  C_6
REMARK    3  A    between atoms: C_6  and  S_7
REMARK    4  A    between atoms: S_7  and  C_8
REMARK    5  A    between atoms: C_11  and  S_12
REMARK    6  A    between atoms: S_12  and  N_15
REMARK                            x       y       z     vdW  Elec       q    Type
REMARK                         _______ _______ _______ _____ _____    ______ ____
ROOT
ATOM      1  C   UNL     1       1.995   7.662  19.480  0.00  0.00    +0.000 A 
ATOM      2  C   UNL     1       2.576   7.541  18.220  0.00  0.00    +0.000 A 
ATOM      3  C   UNL     1       3.202   6.340  17.870  0.00  0.00    +0.000 A 
ATOM      4  C   UNL     1       3.205   5.287  18.782  0.00  0.00    +0.000 A 
ATOM      5  C   UNL     1       2.600   5.485  20.009  0.00  0.00    +0.000 A 
ATOM      6  N   UNL     1       1.983   6.642  20.371  0.00  0.00    +0.000 NA
ENDROOT
BRANCH   4   7
ATOM      7  S   UNL     1       4.185   3.837  18.515  0.00  0.00    +0.000 S 
ATOM      8  O   UNL     1       4.269   3.152  19.788  0.00  0.00    +0.000 OA
ATOM      9  O   UNL     1       3.650   3.171  17.345  0.00  0.00    +0.000 OA
BRANCH   7  10
ATOM     10  N   UNL     1       5.723   4.386  18.129  0.00  0.00    +0.000 NA
ATOM     11  C   UNL     1       6.425   5.337  19.005  0.00  0.00    +0.000 C 
ATOM     12  C   UNL     1       6.837   6.460  18.069  0.00  0.00    +0.000 C 
ATOM     13  C   UNL     1       7.138   5.734  16.771  0.00  0.00    +0.000 C 
ATOM     14  C   UNL     1       6.097   4.620  16.721  0.00  0.00    +0.000 C 
ENDBRANCH   7  10
ENDBRANCH   4   7
BRANCH   1  15
ATOM     15  S   UNL     1       1.237   9.213  19.947  0.00  0.00    +0.000 S 
BRANCH  15  16
ATOM     16  C   UNL     1       0.804   9.877  18.306  0.00  0.00    +0.000 C 
BRANCH  16  21
ATOM     17  C   UNL     1      -4.748  11.696  18.111  0.00  0.00    +0.000 C 
ATOM     18  C   UNL     1      -3.318  11.239  18.140  0.00  0.00    +0.000 A 
ATOM     19  C   UNL     1      -2.872  10.208  17.307  0.00  0.00    +0.000 A 
ATOM     20  C   UNL     1      -1.539   9.784  17.352  0.00  0.00    +0.000 A 
ATOM     21  C   UNL     1      -0.624  10.376  18.234  0.00  0.00    +0.000 A 
ATOM     22  C   UNL     1      -1.071  11.419  19.057  0.00  0.00    +0.000 A 
ATOM     23  C   UNL     1      -2.404  11.843  19.013  0.00  0.00    +0.000 A 
ENDBRANCH  16  21
ENDBRANCH  15  16
ENDBRANCH   1  15
TORSDOF 5
ENDMDL
MODEL 9
REMARK VINA RESULT:      -7.2      4.858      7.847
REMARK  Name = 
REMARK  6 active torsions:
REMARK  status: ('A' for Active; 'I' for Inactive)
REMARK    1  A    between atoms: C_1  and  C_2
REMARK    2  A    between atoms: C_5  and  C_6
REMARK    3  A    between atoms: C_6  and  S_7
REMARK    4  A    between atoms: S_7  and  C_8
REMARK    5  A    between atoms: C_11  and  S_12
REMARK    6  A    between atoms: S_12  and  N_15
REMARK                            x       y       z     vdW  Elec       q    Type
REMARK                         _______ _______ _______ _____ _____    ______ ____
ROOT
ATOM      1  C   UNL     1       6.873   7.067  17.892  0.00  0.00    +0.000 A 
ATOM      2  C   UNL     1       5.654   6.905  17.239  0.00  0.00    +0.000 A 
ATOM      3  C   UNL     1       4.828   5.833  17.593  0.00  0.00    +0.000 A 
ATOM      4  C   UNL     1       5.235   4.970  18.608  0.00  0.00    +0.000 A 
ATOM      5  C   UNL     1       6.457   5.205  19.212  0.00  0.00    +0.000 A 
ATOM      6  N   UNL     1       7.275   6.242  18.887  0.00  0.00    +0.000 NA
ENDROOT
BRANCH   4   7
ATOM      7  S   UNL     1       4.373   3.460  18.938  0.00  0.00    +0.000 S 
ATOM      8  O   UNL     1       3.868   2.984  17.667  0.00  0.00    +0.000 OA
ATOM      9  O   UNL     1       5.250   2.638  19.747  0.00  0.00    +0.000 OA
BRANCH   7  10
ATOM     10  N   UNL     1       3.053   3.881  19.885  0.00  0.00    +0.000 NA
ATOM     11  C   UNL     1       2.786   3.187  21.154  0.00  0.00    +0.000 C 
ATOM     12  C   UNL     1       1.337   2.750  21.033  0.00  0.00    +0.000 C 
ATOM     13  C   UNL     1       0.700   3.878  20.242  0.00  0.00    +0.000 C 
ATOM     14  C   UNL     1       1.785   4.293  19.253  0.00  0.00    +0.000 C 
ENDBRANCH   7  10
ENDBRANCH   4   7
BRANCH   1  15
ATOM     15  S   UNL     1       7.953   8.408  17.407  0.00  0.00    +0.000 S 
BRANCH  15  16
ATOM     16  C   UNL     1       8.702   8.826  19.016  0.00  0.00    +0.000 C 
BRANCH  16  21
ATOM     17  C   UNL     1      11.162  14.127  19.110  0.00  0.00    +0.000 C 
ATOM     18  C   UNL     1      10.511  12.775  19.094  0.00  0.00    +0.000 A 
ATOM     19  C   UNL     1      10.273  12.075  20.281  0.00  0.00    +0.000 A 
ATOM     20  C   UNL     1       9.674  10.810  20.253  0.00  0.00    +0.000 A 
ATOM     21  C   UNL     1       9.307  10.215  19.037  0.00  0.00    +0.000 A 
ATOM     22  C   UNL     1       9.534  10.926  17.850  0.00  0.00    +0.000 A 
ATOM     23  C   UNL     1      10.132  12.191  17.879  0.00  0.00    +0.000 A 
ENDBRANCH  16  21
ENDBRANCH  15  16
ENDBRANCH   1  15
TORSDOF 5
ENDMDL
