MODEL 1
REMARK VINA RESULT:      -7.3      0.000      0.000
REMARK  Name = 
REMARK  4 active torsions:
REMARK  status: ('A' for Active; 'I' for Inactive)
REMARK    1  A    between atoms: C_1  and  O_2
REMARK    2  A    between atoms: O_2  and  C_3
REMARK    3  A    between atoms: C_3  and  C_4
REMARK    4  A    between atoms: C_4  and  N_5
REMARK                            x       y       z     vdW  Elec       q    Type
REMARK                         _______ _______ _______ _____ _____    ______ ____
ROOT
ATOM      1  N   UNL     1       6.110   5.718  16.722  0.00  0.00    +0.000 N 
ATOM      2  C   UNL     1       6.615   5.163  15.552  0.00  0.00    +0.000 A 
ATOM      3  N   UNL     1       7.688   5.540  14.929  0.00  0.00    +0.000 NA
ATOM      4  C   UNL     1       5.919   4.017  14.895  0.00  0.00    +0.000 A 
ATOM      5  C   UNL     1       4.809   3.523  15.453  0.00  0.00    +0.000 A 
ATOM      6  C   UNL     1       4.282   4.108  16.689  0.00  0.00    +0.000 A 
ATOM      7  C   UNL     1       4.921   5.192  17.299  0.00  0.00    +0.000 A 
ATOM      8  N   UNL     1       4.431   5.733  18.435  0.00  0.00    +0.000 NA
ATOM      9  C   UNL     1       3.334   5.232  19.008  0.00  0.00    +0.000 A 
ATOM     10  C   UNL     1       2.873   5.789  20.195  0.00  0.00    +0.000 A 
ATOM     11  C   UNL     1       1.720   5.316  20.829  0.00  0.00    +0.000 A 
ATOM     12  C   UNL     1       1.007   4.261  20.273  0.00  0.00    +0.000 A 
ATOM     13  C   UNL     1       1.461   3.677  19.093  0.00  0.00    +0.000 A 
ATOM     14  C   UNL     1       2.628   4.158  18.457  0.00  0.00    +0.000 A 
ATOM     15  N   UNL     1       3.127   3.592  17.269  0.00  0.00    +0.000 N 
ATOM     16  O   UNL     1       2.513   2.596  16.730  0.00  0.00    +0.000 OA
ATOM     17  H   UNL     1       8.152   6.314  15.400  0.00  0.00    +0.000 HD
ENDROOT
BRANCH   1  18
ATOM     18  C   UNL     1       6.617   6.938  17.360  0.00  0.00    +0.000 C 
BRANCH  18  19
ATOM     19  C   UNL     1       7.765   6.667  18.342  0.00  0.00    +0.000 C 
BRANCH  19  21
ATOM     20  C   UNL     1       7.972   8.947  17.783  0.00  0.00    +0.000 C 
ATOM     21  O   UNL     1       8.463   7.891  18.602  0.00  0.00    +0.000 OA
ENDBRANCH  19  21
ENDBRANCH  18  19
ENDBRANCH   1  18
TORSDOF 3
ENDMDL
MODEL 2
REMARK VINA RESULT:      -7.1      1.913      6.449
REMARK  Name = 
REMARK  4 active torsions:
REMARK  status: ('A' for Active; 'I' for Inactive)
REMARK    1  A    between atoms: C_1  and  O_2
REMARK    2  A    between atoms: O_2  and  C_3
REMARK    3  A    between atoms: C_3  and  C_4
REMARK    4  A    between atoms: C_4  and  N_5
REMARK                            x       y       z     vdW  Elec       q    Type
REMARK                         _______ _______ _______ _____ _____    ______ ____
ROOT
ATOM      1  N   UNL     1       4.044   4.086  17.736  0.00  0.00    +0.000 N 
ATOM      2  C   UNL     1       4.173   4.674  18.990  0.00  0.00    +0.000 A 
ATOM      3  N   UNL     1       3.411   4.458  20.016  0.00  0.00    +0.000 NA
ATOM      4  C   UNL     1       5.271   5.648  19.260  0.00  0.00    +0.000 A 
ATOM      5  C   UNL     1       6.138   5.939  18.285  0.00  0.00    +0.000 A 
ATOM      6  C   UNL     1       6.002   5.314  16.966  0.00  0.00    +0.000 A 
ATOM      7  C   UNL     1       4.964   4.414  16.703  0.00  0.00    +0.000 A 
ATOM      8  N   UNL     1       4.837   3.843  15.486  0.00  0.00    +0.000 NA
ATOM      9  C   UNL     1       5.710   4.115  14.514  0.00  0.00    +0.000 A 
ATOM     10  C   UNL     1       5.573   3.486  13.281  0.00  0.00    +0.000 A 
ATOM     11  C   UNL     1       6.448   3.747  12.222  0.00  0.00    +0.000 A 
ATOM     12  C   UNL     1       7.488   4.653  12.389  0.00  0.00    +0.000 A 
ATOM     13  C   UNL     1       7.654   5.281  13.620  0.00  0.00    +0.000 A 
ATOM     14  C   UNL     1       6.768   5.013  14.689  0.00  0.00    +0.000 A 
ATOM     15  N   UNL     1       6.905   5.618  15.952  0.00  0.00    +0.000 N 
ATOM     16  O   UNL     1       7.869   6.447  16.161  0.00  0.00    +0.000 OA
ATOM     17  H   UNL     1       2.676   3.783  19.813  0.00  0.00    +0.000 HD
ENDROOT
BRANCH   1  18
ATOM     18  C   UNL     1       2.918   3.245  17.315  0.00  0.00    +0.000 C 
BRANCH  18  19
ATOM     19  C   UNL     1       2.946   1.847  17.946  0.00  0.00    +0.000 C 
BRANCH  19  21
ATOM     20  C   UNL     1       0.808   2.372  18.786  0.00  0.00    +0.000 C 
ATOM     21  O   UNL     1       2.087   1.829  19.094  0.00  0.00    +0.000 OA
ENDBRANCH  19  21
ENDBRANCH  18  19
ENDBRANCH   1  18
TORSDOF 3
ENDMDL
MODEL 3
REMARK VINA RESULT:      -7.1      0.691      1.011
REMARK  Name = 
REMARK  4 active torsions:
REMARK  status: ('A' for Active; 'I' for Inactive)
REMARK    1  A    between atoms: C_1  and  O_2
REMARK    2  A    between atoms: O_2  and  C_3
REMARK    3  A    between atoms: C_3  and  C_4
REMARK    4  A    between atoms: C_4  and  N_5
REMARK                            x       y       z     vdW  Elec       q    Type
REMARK                         _______ _______ _______ _____ _____    ______ ____
ROOT
ATOM      1  N   UNL     1       5.921   5.799  16.644  0.00  0.00    +0.000 N 
ATOM      2  C   UNL     1       6.537   5.138  15.587  0.00  0.00    +0.000 A 
ATOM      3  N   UNL     1       7.559   5.564  14.913  0.00  0.00    +0.000 NA
ATOM      4  C   UNL     1       6.040   3.806  15.133  0.00  0.00    +0.000 A 
ATOM      5  C   UNL     1       5.001   3.249  15.765  0.00  0.00    +0.000 A 
ATOM      6  C   UNL     1       4.357   3.947  16.881  0.00  0.00    +0.000 A 
ATOM      7  C   UNL     1       4.809   5.202  17.299  0.00  0.00    +0.000 A 
ATOM      8  N   UNL     1       4.211   5.846  18.324  0.00  0.00    +0.000 NA
ATOM      9  C   UNL     1       3.185   5.286  18.971  0.00  0.00    +0.000 A 
ATOM     10  C   UNL     1       2.612   5.958  20.045  0.00  0.00    +0.000 A 
ATOM     11  C   UNL     1       1.525   5.428  20.747  0.00  0.00    +0.000 A 
ATOM     12  C   UNL     1       0.994   4.199  20.377  0.00  0.00    +0.000 A 
ATOM     13  C   UNL     1       1.564   3.501  19.316  0.00  0.00    +0.000 A 
ATOM     14  C   UNL     1       2.664   4.040  18.610  0.00  0.00    +0.000 A 
ATOM     15  N   UNL     1       3.276   3.365  17.538  0.00  0.00    +0.000 N 
ATOM     16  O   UNL     1       2.834   2.211  17.174  0.00  0.00    +0.000 OA
ATOM     17  H   UNL     1       7.889   6.469  15.245  0.00  0.00    +0.000 HD
ENDROOT
BRANCH   1  18
ATOM     18  C   UNL     1       6.221   7.172  17.066  0.00  0.00    +0.000 C 
BRANCH  18  19
ATOM     19  C   UNL     1       7.517   7.277  17.882  0.00  0.00    +0.000 C 
BRANCH  19  21
ATOM     20  C   UNL     1       7.796   5.705  19.615  0.00  0.00    +0.000 C 
ATOM     21  O   UNL     1       7.968   5.961  18.225  0.00  0.00    +0.000 OA
ENDBRANCH  19  21
ENDBRANCH  18  19
ENDBRANCH   1  18
TORSDOF 3
ENDMDL
MODEL 4
REMARK VINA RESULT:      -7.0      4.064      6.094
REMARK  Name = 
REMARK  4 active torsions:
REMARK  status: ('A' for Active; 'I' for Inactive)
REMARK    1  A    between atoms: C_1  and  O_2
REMARK    2  A    between atoms: O_2  and  C_3
REMARK    3  A    between atoms: C_3  and  C_4
REMARK    4  A    between atoms: C_4  and  N_5
REMARK                            x       y       z     vdW  Elec       q    Type
REMARK                         _______ _______ _______ _____ _____    ______ ____
ROOT
ATOM      1  N   UNL     1       1.061   8.554  20.283  0.00  0.00    +0.000 N 
ATOM      2  C   UNL     1       1.136   9.631  19.407  0.00  0.00    +0.000 A 
ATOM      3  N   UNL     1       0.600  10.798  19.584  0.00  0.00    +0.000 NA
ATOM      4  C   UNL     1       1.893   9.514  18.125  0.00  0.00    +0.000 A 
ATOM      5  C   UNL     1       2.510   8.363  17.837  0.00  0.00    +0.000 A 
ATOM      6  C   UNL     1       2.433   7.232  18.765  0.00  0.00    +0.000 A 
ATOM      7  C   UNL     1       1.711   7.331  19.958  0.00  0.00    +0.000 A 
ATOM      8  N   UNL     1       1.636   6.286  20.810  0.00  0.00    +0.000 NA
ATOM      9  C   UNL     1       2.266   5.141  20.536  0.00  0.00    +0.000 A 
ATOM     10  C   UNL     1       2.199   4.094  21.449  0.00  0.00    +0.000 A 
ATOM     11  C   UNL     1       2.824   2.867  21.205  0.00  0.00    +0.000 A 
ATOM     12  C   UNL     1       3.537   2.673  20.028  0.00  0.00    +0.000 A 
ATOM     13  C   UNL     1       3.631   3.715  19.109  0.00  0.00    +0.000 A 
ATOM     14  C   UNL     1       2.999   4.954  19.360  0.00  0.00    +0.000 A 
ATOM     15  N   UNL     1       3.076   6.035  18.463  0.00  0.00    +0.000 N 
ATOM     16  O   UNL     1       3.746   5.911  17.369  0.00  0.00    +0.000 OA
ATOM     17  H   UNL     1       0.097  10.859  20.468  0.00  0.00    +0.000 HD
ENDROOT
BRANCH   1  18
ATOM     18  C   UNL     1       0.219   8.504  21.483  0.00  0.00    +0.000 C 
BRANCH  18  19
ATOM     19  C   UNL     1       0.829   9.256  22.674  0.00  0.00    +0.000 C 
BRANCH  19  21
ATOM     20  C   UNL     1      -1.039  10.636  23.074  0.00  0.00    +0.000 C 
ATOM     21  O   UNL     1       0.331  10.600  22.690  0.00  0.00    +0.000 OA
ENDBRANCH  19  21
ENDBRANCH  18  19
ENDBRANCH   1  18
TORSDOF 3
ENDMDL
MODEL 5
REMARK VINA RESULT:      -6.9      2.077      3.728
REMARK  Name = 
REMARK  4 active torsions:
REMARK  status: ('A' for Active; 'I' for Inactive)
REMARK    1  A    between atoms: C_1  and  O_2
REMARK    2  A    between atoms: O_2  and  C_3
REMARK    3  A    between atoms: C_3  and  C_4
REMARK    4  A    between atoms: C_4  and  N_5
REMARK                            x       y       z     vdW  Elec       q    Type
REMARK                         _______ _______ _______ _____ _____    ______ ____
ROOT
ATOM      1  N   UNL     1       5.778   4.687  16.281  0.00  0.00    +0.000 N 
ATOM      2  C   UNL     1       6.607   5.803  16.293  0.00  0.00    +0.000 A 
ATOM      3  N   UNL     1       7.618   6.010  15.509  0.00  0.00    +0.000 NA
ATOM      4  C   UNL     1       6.372   6.912  17.264  0.00  0.00    +0.000 A 
ATOM      5  C   UNL     1       5.344   6.825  18.115  0.00  0.00    +0.000 A 
ATOM      6  C   UNL     1       4.469   5.650  18.096  0.00  0.00    +0.000 A 
ATOM      7  C   UNL     1       4.696   4.601  17.200  0.00  0.00    +0.000 A 
ATOM      8  N   UNL     1       3.892   3.516  17.188  0.00  0.00    +0.000 NA
ATOM      9  C   UNL     1       2.852   3.432  18.022  0.00  0.00    +0.000 A 
ATOM     10  C   UNL     1       2.022   2.318  17.963  0.00  0.00    +0.000 A 
ATOM     11  C   UNL     1       0.931   2.170  18.825  0.00  0.00    +0.000 A 
ATOM     12  C   UNL     1       0.653   3.152  19.767  0.00  0.00    +0.000 A 
ATOM     13  C   UNL     1       1.461   4.284  19.832  0.00  0.00    +0.000 A 
ATOM     14  C   UNL     1       2.563   4.430  18.958  0.00  0.00    +0.000 A 
ATOM     15  N   UNL     1       3.399   5.561  18.983  0.00  0.00    +0.000 N 
ATOM     16  O   UNL     1       3.166   6.510  19.823  0.00  0.00    +0.000 OA
ATOM     17  H   UNL     1       7.755   5.247  14.848  0.00  0.00    +0.000 HD
ENDROOT
BRANCH   1  18
ATOM     18  C   UNL     1       6.010   3.476  15.487  0.00  0.00    +0.000 C 
BRANCH  18  19
ATOM     19  C   UNL     1       5.610   3.640  14.014  0.00  0.00    +0.000 C 
BRANCH  19  21
ATOM     20  C   UNL     1       6.725   3.545  11.941  0.00  0.00    +0.000 C 
ATOM     21  O   UNL     1       6.748   4.076  13.261  0.00  0.00    +0.000 OA
ENDBRANCH  19  21
ENDBRANCH  18  19
ENDBRANCH   1  18
TORSDOF 3
ENDMDL
MODEL 6
REMARK VINA RESULT:      -6.9      3.013      5.641
REMARK  Name = 
REMARK  4 active torsions:
REMARK  status: ('A' for Active; 'I' for Inactive)
REMARK    1  A    between atoms: C_1  and  O_2
REMARK    2  A    between atoms: O_2  and  C_3
REMARK    3  A    between atoms: C_3  and  C_4
REMARK    4  A    between atoms: C_4  and  N_5
REMARK                            x       y       z     vdW  Elec       q    Type
REMARK                         _______ _______ _______ _____ _____    ______ ____
ROOT
ATOM      1  N   UNL     1       3.740   2.782  19.486  0.00  0.00    +0.000 N 
ATOM      2  C   UNL     1       2.667   2.201  18.819  0.00  0.00    +0.000 A 
ATOM      3  N   UNL     1       1.853   1.318  19.307  0.00  0.00    +0.000 NA
ATOM      4  C   UNL     1       2.353   2.584  17.411  0.00  0.00    +0.000 A 
ATOM      5  C   UNL     1       3.110   3.503  16.802  0.00  0.00    +0.000 A 
ATOM      6  C   UNL     1       4.237   4.116  17.510  0.00  0.00    +0.000 A 
ATOM      7  C   UNL     1       4.545   3.748  18.823  0.00  0.00    +0.000 A 
ATOM      8  N   UNL     1       5.588   4.311  19.472  0.00  0.00    +0.000 NA
ATOM      9  C   UNL     1       6.335   5.243  18.876  0.00  0.00    +0.000 A 
ATOM     10  C   UNL     1       7.381   5.828  19.581  0.00  0.00    +0.000 A 
ATOM     11  C   UNL     1       8.207   6.795  19.001  0.00  0.00    +0.000 A 
ATOM     12  C   UNL     1       7.990   7.196  17.688  0.00  0.00    +0.000 A 
ATOM     13  C   UNL     1       6.937   6.635  16.970  0.00  0.00    +0.000 A 
ATOM     14  C   UNL     1       6.104   5.658  17.561  0.00  0.00    +0.000 A 
ATOM     15  N   UNL     1       5.024   5.073  16.874  0.00  0.00    +0.000 N 
ATOM     16  O   UNL     1       4.768   5.430  15.663  0.00  0.00    +0.000 OA
ATOM     17  H   UNL     1       2.078   1.080  20.271  0.00  0.00    +0.000 HD
ENDROOT
BRANCH   1  18
ATOM     18  C   UNL     1       4.234   2.368  20.804  0.00  0.00    +0.000 C 
BRANCH  18  19
ATOM     19  C   UNL     1       5.158   1.144  20.739  0.00  0.00    +0.000 C 
BRANCH  19  21
ATOM     20  C   UNL     1       6.365  -0.277  22.180  0.00  0.00    +0.000 C 
ATOM     21  O   UNL     1       5.906   1.051  21.958  0.00  0.00    +0.000 OA
ENDBRANCH  19  21
ENDBRANCH  18  19
ENDBRANCH   1  18
TORSDOF 3
ENDMDL
MODEL 7
REMARK VINA RESULT:      -6.8      4.267      6.553
REMARK  Name = 
REMARK  4 active torsions:
REMARK  status: ('A' for Active; 'I' for Inactive)
REMARK    1  A    between atoms: C_1  and  O_2
REMARK    2  A    between atoms: O_2  and  C_3
REMARK    3  A    between atoms: C_3  and  C_4
REMARK    4  A    between atoms: C_4  and  N_5
REMARK                            x       y       z     vdW  Elec       q    Type
REMARK                         _______ _______ _______ _____ _____    ______ ____
ROOT
ATOM      1  N   UNL     1       2.244   6.497  19.704  0.00  0.00    +0.000 N 
ATOM      2  C   UNL     1       2.909   6.355  18.491  0.00  0.00    +0.000 A 
ATOM      3  N   UNL     1       3.479   5.275  18.055  0.00  0.00    +0.000 NA
ATOM      4  C   UNL     1       3.013   7.504  17.545  0.00  0.00    +0.000 A 
ATOM      5  C   UNL     1       2.446   8.670  17.872  0.00  0.00    +0.000 A 
ATOM      6  C   UNL     1       1.742   8.815  19.149  0.00  0.00    +0.000 A 
ATOM      7  C   UNL     1       1.657   7.746  20.046  0.00  0.00    +0.000 A 
ATOM      8  N   UNL     1       1.013   7.883  21.225  0.00  0.00    +0.000 NA
ATOM      9  C   UNL     1       0.429   9.039  21.549  0.00  0.00    +0.000 A 
ATOM     10  C   UNL     1      -0.257   9.139  22.755  0.00  0.00    +0.000 A 
ATOM     11  C   UNL     1      -0.871  10.330  23.153  0.00  0.00    +0.000 A 
ATOM     12  C   UNL     1      -0.808  11.450  22.334  0.00  0.00    +0.000 A 
ATOM     13  C   UNL     1      -0.142  11.367  21.115  0.00  0.00    +0.000 A 
ATOM     14  C   UNL     1       0.477  10.160  20.716  0.00  0.00    +0.000 A 
ATOM     15  N   UNL     1       1.152  10.030  19.488  0.00  0.00    +0.000 N 
ATOM     16  O   UNL     1       1.217  11.034  18.684  0.00  0.00    +0.000 OA
ATOM     17  H   UNL     1       3.387   4.501  18.711  0.00  0.00    +0.000 HD
ENDROOT
BRANCH   1  18
ATOM     18  C   UNL     1       2.220   5.491  20.772  0.00  0.00    +0.000 C 
BRANCH  18  19
ATOM     19  C   UNL     1       1.203   4.370  20.515  0.00  0.00    +0.000 C 
BRANCH  19  21
ATOM     20  C   UNL     1       0.976   2.668  18.902  0.00  0.00    +0.000 C 
ATOM     21  O   UNL     1       1.853   3.289  19.835  0.00  0.00    +0.000 OA
ENDBRANCH  19  21
ENDBRANCH  18  19
ENDBRANCH   1  18
TORSDOF 3
ENDMDL
MODEL 8
REMARK VINA RESULT:      -6.7      3.504      5.865
REMARK  Name = 
REMARK  4 active torsions:
REMARK  status: ('A' for Active; 'I' for Inactive)
REMARK    1  A    between atoms: C_1  and  O_2
REMARK    2  A    between atoms: O_2  and  C_3
REMARK    3  A    between atoms: C_3  and  C_4
REMARK    4  A    between atoms: C_4  and  N_5
REMARK                            x       y       z     vdW  Elec       q    Type
REMARK                         _______ _______ _______ _____ _____    ______ ____
ROOT
ATOM      1  N   UNL     1       2.773   5.438  19.670  0.00  0.00    +0.000 N 
ATOM      2  C   UNL     1       3.567   5.020  18.609  0.00  0.00    +0.000 A 
ATOM      3  N   UNL     1       4.098   3.845  18.469  0.00  0.00    +0.000 NA
ATOM      4  C   UNL     1       3.877   5.949  17.482  0.00  0.00    +0.000 A 
ATOM      5  C   UNL     1       3.370   7.186  17.500  0.00  0.00    +0.000 A 
ATOM      6  C   UNL     1       2.529   7.622  18.618  0.00  0.00    +0.000 A 
ATOM      7  C   UNL     1       2.250   6.761  19.684  0.00  0.00    +0.000 A 
ATOM      8  N   UNL     1       1.480   7.167  20.716  0.00  0.00    +0.000 NA
ATOM      9  C   UNL     1       0.954   8.394  20.730  0.00  0.00    +0.000 A 
ATOM     10  C   UNL     1       0.137   8.771  21.790  0.00  0.00    +0.000 A 
ATOM     11  C   UNL     1      -0.424  10.049  21.865  0.00  0.00    +0.000 A 
ATOM     12  C   UNL     1      -0.172  10.978  20.863  0.00  0.00    +0.000 A 
ATOM     13  C   UNL     1       0.630  10.615  19.784  0.00  0.00    +0.000 A 
ATOM     14  C   UNL     1       1.194   9.321  19.711  0.00  0.00    +0.000 A 
ATOM     15  N   UNL     1       2.002   8.910  18.635  0.00  0.00    +0.000 N 
ATOM     16  O   UNL     1       2.244   9.728  17.669  0.00  0.00    +0.000 OA
ATOM     17  H   UNL     1       3.865   3.225  19.242  0.00  0.00    +0.000 HD
ENDROOT
BRANCH   1  18
ATOM     18  C   UNL     1       2.538   4.670  20.898  0.00  0.00    +0.000 C 
BRANCH  18  19
ATOM     19  C   UNL     1       1.348   3.708  20.783  0.00  0.00    +0.000 C 
BRANCH  19  21
ATOM     20  C   UNL     1       0.807   2.403  18.897  0.00  0.00    +0.000 C 
ATOM     21  O   UNL     1       1.722   2.588  19.972  0.00  0.00    +0.000 OA
ENDBRANCH  19  21
ENDBRANCH  18  19
ENDBRANCH   1  18
TORSDOF 3
ENDMDL
MODEL 9
REMARK VINA RESULT:      -6.6      1.316      1.400
REMARK  Name = 
REMARK  4 active torsions:
REMARK  status: ('A' for Active; 'I' for Inactive)
REMARK    1  A    between atoms: C_1  and  O_2
REMARK    2  A    between atoms: O_2  and  C_3
REMARK    3  A    between atoms: C_3  and  C_4
REMARK    4  A    between atoms: C_4  and  N_5
REMARK                            x       y       z     vdW  Elec       q    Type
REMARK                         _______ _______ _______ _____ _____    ______ ____
ROOT
ATOM      1  N   UNL     1       6.373   4.447  17.551  0.00  0.00    +0.000 N 
ATOM      2  C   UNL     1       6.638   4.585  16.194  0.00  0.00    +0.000 A 
ATOM      3  N   UNL     1       7.789   4.860  15.665  0.00  0.00    +0.000 NA
ATOM      4  C   UNL     1       5.551   4.405  15.187  0.00  0.00    +0.000 A 
ATOM      5  C   UNL     1       4.319   4.097  15.606  0.00  0.00    +0.000 A 
ATOM      6  C   UNL     1       4.044   3.948  17.038  0.00  0.00    +0.000 A 
ATOM      7  C   UNL     1       5.055   4.132  17.986  0.00  0.00    +0.000 A 
ATOM      8  N   UNL     1       4.799   3.999  19.305  0.00  0.00    +0.000 NA
ATOM      9  C   UNL     1       3.575   3.673  19.729  0.00  0.00    +0.000 A 
ATOM     10  C   UNL     1       3.350   3.510  21.091  0.00  0.00    +0.000 A 
ATOM     11  C   UNL     1       2.085   3.187  21.592  0.00  0.00    +0.000 A 
ATOM     12  C   UNL     1       1.017   3.017  20.721  0.00  0.00    +0.000 A 
ATOM     13  C   UNL     1       1.225   3.158  19.351  0.00  0.00    +0.000 A 
ATOM     14  C   UNL     1       2.505   3.484  18.849  0.00  0.00    +0.000 A 
ATOM     15  N   UNL     1       2.761   3.626  17.473  0.00  0.00    +0.000 N 
ATOM     16  O   UNL     1       1.807   3.454  16.624  0.00  0.00    +0.000 OA
ATOM     17  H   UNL     1       8.518   4.968  16.368  0.00  0.00    +0.000 HD
ENDROOT
BRANCH   1  18
ATOM     18  C   UNL     1       7.319   4.756  18.628  0.00  0.00    +0.000 C 
BRANCH  18  19
ATOM     19  C   UNL     1       7.400   6.257  18.940  0.00  0.00    +0.000 C 
BRANCH  19  21
ATOM     20  C   UNL     1       7.619   8.212  17.644  0.00  0.00    +0.000 C 
ATOM     21  O   UNL     1       8.143   6.915  17.907  0.00  0.00    +0.000 OA
ENDBRANCH  19  21
ENDBRANCH  18  19
ENDBRANCH   1  18
TORSDOF 3
ENDMDL
