MODEL 1
REMARK VINA RESULT:      -8.4      0.000      0.000
REMARK  Name = 
REMARK  5 active torsions:
REMARK  status: ('A' for Active; 'I' for Inactive)
REMARK    1  A    between atoms: C_2  and  C_3
REMARK    2  A    between atoms: N_5  and  C_6
REMARK    3  A    between atoms: C_6  and  C_7
REMARK    4  A    between atoms: C_7  and  C_8
REMARK    5  A    between atoms: C_8  and  C_9
REMARK                            x       y       z     vdW  Elec       q    Type
REMARK                         _______ _______ _______ _____ _____    ______ ____
ROOT
ATOM      1  C   UNL     1       3.092   6.383  18.741  0.00  0.00    +0.000 A 
ATOM      2  C   UNL     1       3.289   5.631  17.578  0.00  0.00    +0.000 A 
ATOM      3  N   UNL     1       4.054   4.592  17.965  0.00  0.00    +0.000 N 
ATOM      4  N   UNL     1       4.262   4.612  19.270  0.00  0.00    +0.000 NA
ATOM      5  N   UNL     1       3.696   5.747  19.785  0.00  0.00    +0.000 NA
ENDROOT
BRANCH   1   7
ATOM      6  O   UNL     1       2.720   8.233  17.558  0.00  0.00    +0.000 OA
ATOM      7  C   UNL     1       2.420   7.663  18.626  0.00  0.00    +0.000 C 
ATOM      8  N   UNL     1       1.539   8.372  19.510  0.00  0.00    +0.000 N 
ATOM      9  C   UNL     1       1.417   9.652  18.889  0.00  0.00    +0.000 C 
ATOM     10  C   UNL     1       0.376  10.508  19.422  0.00  0.00    +0.000 C 
ATOM     11  C   UNL     1      -0.127  10.544  20.793  0.00  0.00    +0.000 A 
ATOM     12  C   UNL     1      -0.673  11.793  21.223  0.00  0.00    +0.000 A 
ATOM     13 CL   UNL     1      -0.651  13.201  20.193  0.00  0.00    +0.000 Cl
ATOM     14  C   UNL     1      -1.114  11.934  22.510  0.00  0.00    +0.000 A 
ATOM     15  C   UNL     1      -1.091  10.792  23.305  0.00  0.00    +0.000 A 
ATOM     16  C   UNL     1      -0.539   9.539  22.838  0.00  0.00    +0.000 A 
ATOM     17  C   UNL     1       0.033   9.398  21.552  0.00  0.00    +0.000 A 
ATOM     18  C   UNL     1       0.801   8.152  20.894  0.00  0.00    +0.000 C 
ENDBRANCH   1   7
BRANCH   3  19
ATOM     19  C   UNL     1       4.563   3.513  17.132  0.00  0.00    +0.000 C 
BRANCH  19  20
ATOM     20  C   UNL     1       5.176   3.975  15.820  0.00  0.00    +0.000 C 
BRANCH  20  21
ATOM     21  C   UNL     1       6.708   4.085  15.856  0.00  0.00    +0.000 C 
BRANCH  21  22
ATOM     22  C   UNL     1       7.133   5.125  16.864  0.00  0.00    +0.000 A 
ATOM     23  C   UNL     1       7.037   6.484  16.534  0.00  0.00    +0.000 A 
ATOM     24  C   UNL     1       7.522   7.451  17.462  0.00  0.00    +0.000 A 
ATOM     25  C   UNL     1       8.023   7.050  18.683  0.00  0.00    +0.000 A 
ATOM     26  C   UNL     1       8.091   5.698  19.017  0.00  0.00    +0.000 A 
ATOM     27  C   UNL     1       7.641   4.739  18.104  0.00  0.00    +0.000 A 
ENDBRANCH  21  22
ENDBRANCH  20  21
ENDBRANCH  19  20
ENDBRANCH   3  19
TORSDOF 5
ENDMDL
MODEL 2
REMARK VINA RESULT:      -8.3      2.183      3.640
REMARK  Name = 
REMARK  5 active torsions:
REMARK  status: ('A' for Active; 'I' for Inactive)
REMARK    1  A    between atoms: C_2  and  C_3
REMARK    2  A    between atoms: N_5  and  C_6
REMARK    3  A    between atoms: C_6  and  C_7
REMARK    4  A    between atoms: C_7  and  C_8
REMARK    5  A    between atoms: C_8  and  C_9
REMARK                            x       y       z     vdW  Elec       q    Type
REMARK                         _______ _______ _______ _____ _____    ______ ____
ROOT
ATOM      1  C   UNL     1       3.706   7.242  17.896  0.00  0.00    +0.000 A 
ATOM      2  C   UNL     1       3.488   5.938  18.352  0.00  0.00    +0.000 A 
ATOM      3  N   UNL     1       4.605   5.265  18.016  0.00  0.00    +0.000 N 
ATOM      4  N   UNL     1       5.503   6.068  17.473  0.00  0.00    +0.000 NA
ATOM      5  N   UNL     1       4.954   7.318  17.353  0.00  0.00    +0.000 NA
ENDROOT
BRANCH   1   7
ATOM      6  O   UNL     1       2.427   8.758  16.884  0.00  0.00    +0.000 OA
ATOM      7  C   UNL     1       2.611   8.191  17.978  0.00  0.00    +0.000 C 
ATOM      8  N   UNL     1       1.768   8.598  19.067  0.00  0.00    +0.000 N 
ATOM      9  C   UNL     1       1.052   9.708  18.525  0.00  0.00    +0.000 C 
ATOM     10  C   UNL     1      -0.071  10.172  19.315  0.00  0.00    +0.000 C 
ATOM     11  C   UNL     1      -0.216  10.116  20.767  0.00  0.00    +0.000 A 
ATOM     12  C   UNL     1      -1.058  11.116  21.347  0.00  0.00    +0.000 A 
ATOM     13 CL   UNL     1      -1.787  12.369  20.377  0.00  0.00    +0.000 Cl
ATOM     14  C   UNL     1      -1.205  11.175  22.706  0.00  0.00    +0.000 A 
ATOM     15  C   UNL     1      -0.587  10.170  23.443  0.00  0.00    +0.000 A 
ATOM     16  C   UNL     1       0.253   9.167  22.826  0.00  0.00    +0.000 A 
ATOM     17  C   UNL     1       0.518   9.154  21.437  0.00  0.00    +0.000 A 
ATOM     18  C   UNL     1       1.505   8.221  20.583  0.00  0.00    +0.000 C 
ENDBRANCH   1   7
BRANCH   3  19
ATOM     19  C   UNL     1       4.890   3.857  18.248  0.00  0.00    +0.000 C 
BRANCH  19  20
ATOM     20  C   UNL     1       4.119   2.909  17.343  0.00  0.00    +0.000 C 
BRANCH  20  21
ATOM     21  C   UNL     1       3.447   1.747  18.090  0.00  0.00    +0.000 C 
BRANCH  21  22
ATOM     22  C   UNL     1       2.652   2.271  19.262  0.00  0.00    +0.000 A 
ATOM     23  C   UNL     1       1.412   2.884  19.034  0.00  0.00    +0.000 A 
ATOM     24  C   UNL     1       0.713   3.449  20.139  0.00  0.00    +0.000 A 
ATOM     25  C   UNL     1       1.227   3.340  21.415  0.00  0.00    +0.000 A 
ATOM     26  C   UNL     1       2.448   2.705  21.640  0.00  0.00    +0.000 A 
ATOM     27  C   UNL     1       3.155   2.168  20.558  0.00  0.00    +0.000 A 
ENDBRANCH  21  22
ENDBRANCH  20  21
ENDBRANCH  19  20
ENDBRANCH   3  19
TORSDOF 5
ENDMDL
MODEL 3
REMARK VINA RESULT:      -8.2      1.640      2.812
REMARK  Name = 
REMARK  5 active torsions:
REMARK  status: ('A' for Active; 'I' for Inactive)
REMARK    1  A    between atoms: C_2  and  C_3
REMARK    2  A    between atoms: N_5  and  C_6
REMARK    3  A    between atoms: C_6  and  C_7
REMARK    4  A    between atoms: C_7  and  C_8
REMARK    5  A    between atoms: C_8  and  C_9
REMARK                            x       y       z     vdW  Elec       q    Type
REMARK                         _______ _______ _______ _____ _____    ______ ____
ROOT
ATOM      1  C   UNL     1       3.219   7.192  18.422  0.00  0.00    +0.000 A 
ATOM      2  C   UNL     1       4.307   7.181  17.543  0.00  0.00    +0.000 A 
ATOM      3  N   UNL     1       5.078   6.158  17.960  0.00  0.00    +0.000 N 
ATOM      4  N   UNL     1       4.508   5.507  18.958  0.00  0.00    +0.000 NA
ATOM      5  N   UNL     1       3.348   6.153  19.296  0.00  0.00    +0.000 NA
ENDROOT
BRANCH   1   7
ATOM      6  O   UNL     1       2.307   8.815  17.200  0.00  0.00    +0.000 OA
ATOM      7  C   UNL     1       2.268   8.284  18.327  0.00  0.00    +0.000 C 
ATOM      8  N   UNL     1       1.360   8.856  19.279  0.00  0.00    +0.000 N 
ATOM      9  C   UNL     1       0.883  10.024  18.611  0.00  0.00    +0.000 C 
ATOM     10  C   UNL     1      -0.254  10.676  19.230  0.00  0.00    +0.000 C 
ATOM     11  C   UNL     1      -0.590  10.715  20.650  0.00  0.00    +0.000 A 
ATOM     12  C   UNL     1      -1.348  11.848  21.080  0.00  0.00    +0.000 A 
ATOM     13 CL   UNL     1      -1.762  13.138  19.981  0.00  0.00    +0.000 Cl
ATOM     14  C   UNL     1      -1.657  11.995  22.404  0.00  0.00    +0.000 A 
ATOM     15  C   UNL     1      -1.288  10.954  23.249  0.00  0.00    +0.000 A 
ATOM     16  C   UNL     1      -0.526   9.816  22.783  0.00  0.00    +0.000 A 
ATOM     17  C   UNL     1      -0.090   9.696  21.442  0.00  0.00    +0.000 A 
ATOM     18  C   UNL     1       0.855   8.596  20.758  0.00  0.00    +0.000 C 
ENDBRANCH   1   7
BRANCH   3  19
ATOM     19  C   UNL     1       6.346   5.723  17.396  0.00  0.00    +0.000 C 
BRANCH  19  20
ATOM     20  C   UNL     1       6.318   4.321  16.808  0.00  0.00    +0.000 C 
BRANCH  20  21
ATOM     21  C   UNL     1       5.285   4.140  15.685  0.00  0.00    +0.000 C 
BRANCH  21  22
ATOM     22  C   UNL     1       5.962   4.211  14.337  0.00  0.00    +0.000 A 
ATOM     23  C   UNL     1       5.445   3.466  13.268  0.00  0.00    +0.000 A 
ATOM     24  C   UNL     1       6.143   3.476  12.025  0.00  0.00    +0.000 A 
ATOM     25  C   UNL     1       7.273   4.253  11.870  0.00  0.00    +0.000 A 
ATOM     26  C   UNL     1       7.767   5.013  12.929  0.00  0.00    +0.000 A 
ATOM     27  C   UNL     1       7.104   4.991  14.161  0.00  0.00    +0.000 A 
ENDBRANCH  21  22
ENDBRANCH  20  21
ENDBRANCH  19  20
ENDBRANCH   3  19
TORSDOF 5
ENDMDL
MODEL 4
REMARK VINA RESULT:      -8.1      2.189      3.747
REMARK  Name = 
REMARK  5 active torsions:
REMARK  status: ('A' for Active; 'I' for Inactive)
REMARK    1  A    between atoms: C_2  and  C_3
REMARK    2  A    between atoms: N_5  and  C_6
REMARK    3  A    between atoms: C_6  and  C_7
REMARK    4  A    between atoms: C_7  and  C_8
REMARK    5  A    between atoms: C_8  and  C_9
REMARK                            x       y       z     vdW  Elec       q    Type
REMARK                         _______ _______ _______ _____ _____    ______ ____
ROOT
ATOM      1  C   UNL     1       2.205   7.963  18.878  0.00  0.00    +0.000 A 
ATOM      2  C   UNL     1       3.004   7.413  17.870  0.00  0.00    +0.000 A 
ATOM      3  N   UNL     1       3.505   6.283  18.406  0.00  0.00    +0.000 N 
ATOM      4  N   UNL     1       3.012   6.067  19.613  0.00  0.00    +0.000 NA
ATOM      5  N   UNL     1       2.213   7.126  19.954  0.00  0.00    +0.000 NA
ENDROOT
BRANCH   1   7
ATOM      6  O   UNL     1       1.940   9.721  17.536  0.00  0.00    +0.000 OA
ATOM      7  C   UNL     1       1.633   9.279  18.661  0.00  0.00    +0.000 C 
ATOM      8  N   UNL     1       0.843  10.137  19.498  0.00  0.00    +0.000 N 
ATOM      9  C   UNL     1       0.802  11.359  18.762  0.00  0.00    +0.000 C 
ATOM     10  C   UNL     1      -0.149  12.344  19.240  0.00  0.00    +0.000 C 
ATOM     11  C   UNL     1      -0.598  12.547  20.615  0.00  0.00    +0.000 A 
ATOM     12  C   UNL     1      -1.028  13.872  20.939  0.00  0.00    +0.000 A 
ATOM     13 CL   UNL     1      -0.931  15.172  19.781  0.00  0.00    +0.000 Cl
ATOM     14  C   UNL     1      -1.411  14.166  22.219  0.00  0.00    +0.000 A 
ATOM     15  C   UNL     1      -1.452  13.104  23.117  0.00  0.00    +0.000 A 
ATOM     16  C   UNL     1      -1.017  11.772  22.756  0.00  0.00    +0.000 A 
ATOM     17  C   UNL     1      -0.504  11.466  21.474  0.00  0.00    +0.000 A 
ATOM     18  C   UNL     1       0.139  10.106  20.916  0.00  0.00    +0.000 C 
ENDBRANCH   1   7
BRANCH   3  19
ATOM     19  C   UNL     1       4.416   5.338  17.778  0.00  0.00    +0.000 C 
BRANCH  19  20
ATOM     20  C   UNL     1       3.724   4.210  17.030  0.00  0.00    +0.000 C 
BRANCH  20  21
ATOM     21  C   UNL     1       3.834   2.845  17.727  0.00  0.00    +0.000 C 
BRANCH  21  22
ATOM     22  C   UNL     1       2.942   2.806  18.944  0.00  0.00    +0.000 A 
ATOM     23  C   UNL     1       1.557   2.964  18.787  0.00  0.00    +0.000 A 
ATOM     24  C   UNL     1       0.737   3.012  19.952  0.00  0.00    +0.000 A 
ATOM     25  C   UNL     1       1.296   2.846  21.202  0.00  0.00    +0.000 A 
ATOM     26  C   UNL     1       2.671   2.662  21.350  0.00  0.00    +0.000 A 
ATOM     27  C   UNL     1       3.489   2.639  20.215  0.00  0.00    +0.000 A 
ENDBRANCH  21  22
ENDBRANCH  20  21
ENDBRANCH  19  20
ENDBRANCH   3  19
TORSDOF 5
ENDMDL
MODEL 5
REMARK VINA RESULT:      -8.1      1.648      2.338
REMARK  Name = 
REMARK  5 active torsions:
REMARK  status: ('A' for Active; 'I' for Inactive)
REMARK    1  A    between atoms: C_2  and  C_3
REMARK    2  A    between atoms: N_5  and  C_6
REMARK    3  A    between atoms: C_6  and  C_7
REMARK    4  A    between atoms: C_7  and  C_8
REMARK    5  A    between atoms: C_8  and  C_9
REMARK                            x       y       z     vdW  Elec       q    Type
REMARK                         _______ _______ _______ _____ _____    ______ ____
ROOT
ATOM      1  C   UNL     1       2.982   4.677  19.005  0.00  0.00    +0.000 A 
ATOM      2  C   UNL     1       3.295   5.201  17.746  0.00  0.00    +0.000 A 
ATOM      3  N   UNL     1       3.916   4.196  17.099  0.00  0.00    +0.000 N 
ATOM      4  N   UNL     1       3.929   3.094  17.828  0.00  0.00    +0.000 NA
ATOM      5  N   UNL     1       3.377   3.372  19.050  0.00  0.00    +0.000 NA
ENDROOT
BRANCH   1   7
ATOM      6  O   UNL     1       2.283   4.989  21.095  0.00  0.00    +0.000 OA
ATOM      7  C   UNL     1       2.430   5.572  20.004  0.00  0.00    +0.000 C 
ATOM      8  N   UNL     1       2.006   6.942  19.942  0.00  0.00    +0.000 N 
ATOM      9  C   UNL     1       1.370   7.142  21.205  0.00  0.00    +0.000 C 
ATOM     10  C   UNL     1       1.065   8.519  21.538  0.00  0.00    +0.000 C 
ATOM     11  C   UNL     1       0.744   9.605  20.616  0.00  0.00    +0.000 A 
ATOM     12  C   UNL     1      -0.074  10.651  21.146  0.00  0.00    +0.000 A 
ATOM     13 CL   UNL     1      -0.714  10.576  22.766  0.00  0.00    +0.000 Cl
ATOM     14  C   UNL     1      -0.471  11.678  20.335  0.00  0.00    +0.000 A 
ATOM     15  C   UNL     1       0.044  11.687  19.042  0.00  0.00    +0.000 A 
ATOM     16  C   UNL     1       0.876  10.617  18.537  0.00  0.00    +0.000 A 
ATOM     17  C   UNL     1       1.205   9.482  19.317  0.00  0.00    +0.000 A 
ATOM     18  C   UNL     1       1.996   8.146  18.913  0.00  0.00    +0.000 C 
ENDBRANCH   1   7
BRANCH   3  19
ATOM     19  C   UNL     1       4.463   4.221  15.751  0.00  0.00    +0.000 C 
BRANCH  19  20
ATOM     20  C   UNL     1       5.856   3.624  15.633  0.00  0.00    +0.000 C 
BRANCH  20  21
ATOM     21  C   UNL     1       6.955   4.661  15.359  0.00  0.00    +0.000 C 
BRANCH  21  22
ATOM     22  C   UNL     1       7.285   5.419  16.621  0.00  0.00    +0.000 A 
ATOM     23  C   UNL     1       7.324   6.821  16.592  0.00  0.00    +0.000 A 
ATOM     24  C   UNL     1       7.720   7.520  17.769  0.00  0.00    +0.000 A 
ATOM     25  C   UNL     1       8.003   6.825  18.927  0.00  0.00    +0.000 A 
ATOM     26  C   UNL     1       7.936   5.433  18.958  0.00  0.00    +0.000 A 
ATOM     27  C   UNL     1       7.573   4.735  17.801  0.00  0.00    +0.000 A 
ENDBRANCH  21  22
ENDBRANCH  20  21
ENDBRANCH  19  20
ENDBRANCH   3  19
TORSDOF 5
ENDMDL
MODEL 6
REMARK VINA RESULT:      -8.0      2.111      3.655
REMARK  Name = 
REMARK  5 active torsions:
REMARK  status: ('A' for Active; 'I' for Inactive)
REMARK    1  A    between atoms: C_2  and  C_3
REMARK    2  A    between atoms: N_5  and  C_6
REMARK    3  A    between atoms: C_6  and  C_7
REMARK    4  A    between atoms: C_7  and  C_8
REMARK    5  A    between atoms: C_8  and  C_9
REMARK                            x       y       z     vdW  Elec       q    Type
REMARK                         _______ _______ _______ _____ _____    ______ ____
ROOT
ATOM      1  C   UNL     1       3.676   6.763  18.102  0.00  0.00    +0.000 A 
ATOM      2  C   UNL     1       3.362   5.577  17.429  0.00  0.00    +0.000 A 
ATOM      3  N   UNL     1       4.491   4.845  17.480  0.00  0.00    +0.000 N 
ATOM      4  N   UNL     1       5.424   5.452  18.192  0.00  0.00    +0.000 NA
ATOM      5  N   UNL     1       4.953   6.681  18.572  0.00  0.00    +0.000 NA
ENDROOT
BRANCH   1   7
ATOM      6  O   UNL     1       2.674   8.412  16.989  0.00  0.00    +0.000 OA
ATOM      7  C   UNL     1       2.699   7.837  18.094  0.00  0.00    +0.000 C 
ATOM      8  N   UNL     1       1.824   8.351  19.109  0.00  0.00    +0.000 N 
ATOM      9  C   UNL     1       1.293   9.533  18.510  0.00  0.00    +0.000 C 
ATOM     10  C   UNL     1       0.172  10.135  19.206  0.00  0.00    +0.000 C 
ATOM     11  C   UNL     1      -0.097  10.111  20.641  0.00  0.00    +0.000 A 
ATOM     12  C   UNL     1      -0.858  11.210  21.149  0.00  0.00    +0.000 A 
ATOM     13 CL   UNL     1      -1.350  12.531  20.124  0.00  0.00    +0.000 Cl
ATOM     14  C   UNL     1      -1.108  11.298  22.491  0.00  0.00    +0.000 A 
ATOM     15  C   UNL     1      -0.678  10.233  23.277  0.00  0.00    +0.000 A 
ATOM     16  C   UNL     1       0.085   9.132  22.731  0.00  0.00    +0.000 A 
ATOM     17  C   UNL     1       0.459   9.074  21.368  0.00  0.00    +0.000 A 
ATOM     18  C   UNL     1       1.395   8.022  20.598  0.00  0.00    +0.000 C 
ENDBRANCH   1   7
BRANCH   3  19
ATOM     19  C   UNL     1       4.711   3.523  16.912  0.00  0.00    +0.000 C 
BRANCH  19  20
ATOM     20  C   UNL     1       3.492   2.616  16.957  0.00  0.00    +0.000 C 
BRANCH  20  21
ATOM     21  C   UNL     1       3.486   1.643  18.146  0.00  0.00    +0.000 C 
BRANCH  21  22
ATOM     22  C   UNL     1       2.724   2.240  19.304  0.00  0.00    +0.000 A 
ATOM     23  C   UNL     1       3.324   2.291  20.570  0.00  0.00    +0.000 A 
ATOM     24  C   UNL     1       2.562   2.778  21.671  0.00  0.00    +0.000 A 
ATOM     25  C   UNL     1       1.277   3.242  21.475  0.00  0.00    +0.000 A 
ATOM     26  C   UNL     1       0.694   3.213  20.209  0.00  0.00    +0.000 A 
ATOM     27  C   UNL     1       1.425   2.714  19.125  0.00  0.00    +0.000 A 
ENDBRANCH  21  22
ENDBRANCH  20  21
ENDBRANCH  19  20
ENDBRANCH   3  19
TORSDOF 5
ENDMDL
MODEL 7
REMARK VINA RESULT:      -8.0      2.473      4.143
REMARK  Name = 
REMARK  5 active torsions:
REMARK  status: ('A' for Active; 'I' for Inactive)
REMARK    1  A    between atoms: C_2  and  C_3
REMARK    2  A    between atoms: N_5  and  C_6
REMARK    3  A    between atoms: C_6  and  C_7
REMARK    4  A    between atoms: C_7  and  C_8
REMARK    5  A    between atoms: C_8  and  C_9
REMARK                            x       y       z     vdW  Elec       q    Type
REMARK                         _______ _______ _______ _____ _____    ______ ____
ROOT
ATOM      1  C   UNL     1       2.398   7.555  19.184  0.00  0.00    +0.000 A 
ATOM      2  C   UNL     1       3.110   6.377  19.433  0.00  0.00    +0.000 A 
ATOM      3  N   UNL     1       3.664   6.052  18.249  0.00  0.00    +0.000 N 
ATOM      4  N   UNL     1       3.413   6.973  17.335  0.00  0.00    +0.000 NA
ATOM      5  N   UNL     1       2.589   7.920  17.884  0.00  0.00    +0.000 NA
ENDROOT
BRANCH   1   7
ATOM      6  O   UNL     1       1.337   7.227  21.114  0.00  0.00    +0.000 OA
ATOM      7  C   UNL     1       1.559   8.088  20.241  0.00  0.00    +0.000 C 
ATOM      8  N   UNL     1       0.936   9.368  20.424  0.00  0.00    +0.000 N 
ATOM      9  C   UNL     1       0.086   9.157  21.551  0.00  0.00    +0.000 C 
ATOM     10  C   UNL     1      -0.485  10.354  22.135  0.00  0.00    +0.000 C 
ATOM     11  C   UNL     1      -0.826  11.599  21.451  0.00  0.00    +0.000 A 
ATOM     12  C   UNL     1      -1.874  12.368  22.045  0.00  0.00    +0.000 A 
ATOM     13 CL   UNL     1      -2.741  11.800  23.448  0.00  0.00    +0.000 Cl
ATOM     14  C   UNL     1      -2.297  13.519  21.440  0.00  0.00    +0.000 A 
ATOM     15  C   UNL     1      -1.593  13.925  20.310  0.00  0.00    +0.000 A 
ATOM     16  C   UNL     1      -0.532  13.127  19.737  0.00  0.00    +0.000 A 
ATOM     17  C   UNL     1      -0.153  11.874  20.274  0.00  0.00    +0.000 A 
ATOM     18  C   UNL     1       0.895  10.790  19.726  0.00  0.00    +0.000 C 
ENDBRANCH   1   7
BRANCH   3  19
ATOM     19  C   UNL     1       4.497   4.897  17.953  0.00  0.00    +0.000 C 
BRANCH  19  20
ATOM     20  C   UNL     1       3.821   3.849  17.083  0.00  0.00    +0.000 C 
BRANCH  20  21
ATOM     21  C   UNL     1       3.635   2.492  17.778  0.00  0.00    +0.000 C 
BRANCH  21  22
ATOM     22  C   UNL     1       2.803   2.655  19.027  0.00  0.00    +0.000 A 
ATOM     23  C   UNL     1       1.448   2.998  18.911  0.00  0.00    +0.000 A 
ATOM     24  C   UNL     1       0.697   3.233  20.099  0.00  0.00    +0.000 A 
ATOM     25  C   UNL     1       1.285   3.066  21.337  0.00  0.00    +0.000 A 
ATOM     26  C   UNL     1       2.625   2.697  21.445  0.00  0.00    +0.000 A 
ATOM     27  C   UNL     1       3.379   2.489  20.285  0.00  0.00    +0.000 A 
ENDBRANCH  21  22
ENDBRANCH  20  21
ENDBRANCH  19  20
ENDBRANCH   3  19
TORSDOF 5
ENDMDL
MODEL 8
REMARK VINA RESULT:      -7.9      1.722      2.660
REMARK  Name = 
REMARK  5 active torsions:
REMARK  status: ('A' for Active; 'I' for Inactive)
REMARK    1  A    between atoms: C_2  and  C_3
REMARK    2  A    between atoms: N_5  and  C_6
REMARK    3  A    between atoms: C_6  and  C_7
REMARK    4  A    between atoms: C_7  and  C_8
REMARK    5  A    between atoms: C_8  and  C_9
REMARK                            x       y       z     vdW  Elec       q    Type
REMARK                         _______ _______ _______ _____ _____    ______ ____
ROOT
ATOM      1  C   UNL     1       3.184   4.317  19.203  0.00  0.00    +0.000 A 
ATOM      2  C   UNL     1       3.212   4.629  17.839  0.00  0.00    +0.000 A 
ATOM      3  N   UNL     1       3.977   3.671  17.283  0.00  0.00    +0.000 N 
ATOM      4  N   UNL     1       4.341   2.770  18.178  0.00  0.00    +0.000 NA
ATOM      5  N   UNL     1       3.885   3.165  19.407  0.00  0.00    +0.000 NA
ENDROOT
BRANCH   1   7
ATOM      6  O   UNL     1       2.296   4.720  21.205  0.00  0.00    +0.000 OA
ATOM      7  C   UNL     1       2.552   5.257  20.110  0.00  0.00    +0.000 C 
ATOM      8  N   UNL     1       2.154   6.627  19.955  0.00  0.00    +0.000 N 
ATOM      9  C   UNL     1       1.405   6.884  21.143  0.00  0.00    +0.000 C 
ATOM     10  C   UNL     1       1.087   8.276  21.392  0.00  0.00    +0.000 C 
ATOM     11  C   UNL     1       0.869   9.327  20.401  0.00  0.00    +0.000 A 
ATOM     12  C   UNL     1       0.018  10.401  20.811  0.00  0.00    +0.000 A 
ATOM     13 CL   UNL     1      -0.771  10.397  22.365  0.00  0.00    +0.000 Cl
ATOM     14  C   UNL     1      -0.287  11.398  19.926  0.00  0.00    +0.000 A 
ATOM     15  C   UNL     1       0.347  11.350  18.689  0.00  0.00    +0.000 A 
ATOM     16  C   UNL     1       1.208  10.252  18.306  0.00  0.00    +0.000 A 
ATOM     17  C   UNL     1       1.447   9.148  19.157  0.00  0.00    +0.000 A 
ATOM     18  C   UNL     1       2.255   7.789  18.883  0.00  0.00    +0.000 C 
ENDBRANCH   1   7
BRANCH   3  19
ATOM     19  C   UNL     1       4.341   3.538  15.880  0.00  0.00    +0.000 C 
BRANCH  19  20
ATOM     20  C   UNL     1       5.259   4.636  15.368  0.00  0.00    +0.000 C 
BRANCH  20  21
ATOM     21  C   UNL     1       6.748   4.380  15.645  0.00  0.00    +0.000 C 
BRANCH  21  22
ATOM     22  C   UNL     1       7.238   5.285  16.748  0.00  0.00    +0.000 A 
ATOM     23  C   UNL     1       7.652   4.725  17.965  0.00  0.00    +0.000 A 
ATOM     24  C   UNL     1       8.030   5.597  19.028  0.00  0.00    +0.000 A 
ATOM     25  C   UNL     1       8.041   6.963  18.834  0.00  0.00    +0.000 A 
ATOM     26  C   UNL     1       7.655   7.513  17.612  0.00  0.00    +0.000 A 
ATOM     27  C   UNL     1       7.257   6.668  16.571  0.00  0.00    +0.000 A 
ENDBRANCH  21  22
ENDBRANCH  20  21
ENDBRANCH  19  20
ENDBRANCH   3  19
TORSDOF 5
ENDMDL
MODEL 9
REMARK VINA RESULT:      -7.9      3.650      9.107
REMARK  Name = 
REMARK  5 active torsions:
REMARK  status: ('A' for Active; 'I' for Inactive)
REMARK    1  A    between atoms: C_2  and  C_3
REMARK    2  A    between atoms: N_5  and  C_6
REMARK    3  A    between atoms: C_6  and  C_7
REMARK    4  A    between atoms: C_7  and  C_8
REMARK    5  A    between atoms: C_8  and  C_9
REMARK                            x       y       z     vdW  Elec       q    Type
REMARK                         _______ _______ _______ _____ _____    ______ ____
ROOT
ATOM      1  C   UNL     1       1.302   8.836  20.973  0.00  0.00    +0.000 A 
ATOM      2  C   UNL     1       0.974   9.825  20.039  0.00  0.00    +0.000 A 
ATOM      3  N   UNL     1       0.687  10.914  20.777  0.00  0.00    +0.000 N 
ATOM      4  N   UNL     1       0.894  10.689  22.062  0.00  0.00    +0.000 NA
ATOM      5  N   UNL     1       1.250   9.376  22.224  0.00  0.00    +0.000 NA
ENDROOT
BRANCH   1   7
ATOM      6  O   UNL     1       0.962   6.651  21.234  0.00  0.00    +0.000 OA
ATOM      7  C   UNL     1       1.521   7.484  20.494  0.00  0.00    +0.000 C 
ATOM      8  N   UNL     1       2.271   6.963  19.387  0.00  0.00    +0.000 N 
ATOM      9  C   UNL     1       2.247   5.554  19.613  0.00  0.00    +0.000 C 
ATOM     10  C   UNL     1       2.710   4.737  18.509  0.00  0.00    +0.000 C 
ATOM     11  C   UNL     1       3.712   5.086  17.506  0.00  0.00    +0.000 A 
ATOM     12  C   UNL     1       4.420   3.989  16.924  0.00  0.00    +0.000 A 
ATOM     13 CL   UNL     1       4.154   2.348  17.453  0.00  0.00    +0.000 Cl
ATOM     14  C   UNL     1       5.416   4.228  16.018  0.00  0.00    +0.000 A 
ATOM     15  C   UNL     1       5.611   5.553  15.641  0.00  0.00    +0.000 A 
ATOM     16  C   UNL     1       4.874   6.642  16.244  0.00  0.00    +0.000 A 
ATOM     17  C   UNL     1       3.921   6.434  17.269  0.00  0.00    +0.000 A 
ATOM     18  C   UNL     1       3.098   7.496  18.145  0.00  0.00    +0.000 C 
ENDBRANCH   1   7
BRANCH   3  19
ATOM     19  C   UNL     1       0.269  12.221  20.293  0.00  0.00    +0.000 C 
BRANCH  19  20
ATOM     20  C   UNL     1      -0.513  12.182  18.990  0.00  0.00    +0.000 C 
BRANCH  20  21
ATOM     21  C   UNL     1      -2.036  12.118  19.182  0.00  0.00    +0.000 C 
BRANCH  21  22
ATOM     22  C   UNL     1      -2.683  11.439  17.999  0.00  0.00    +0.000 A 
ATOM     23  C   UNL     1      -1.957  10.485  17.272  0.00  0.00    +0.000 A 
ATOM     24  C   UNL     1      -2.549   9.916  16.106  0.00  0.00    +0.000 A 
ATOM     25  C   UNL     1      -3.835  10.261  15.742  0.00  0.00    +0.000 A 
ATOM     26  C   UNL     1      -4.561  11.190  16.485  0.00  0.00    +0.000 A 
ATOM     27  C   UNL     1      -3.981  11.774  17.616  0.00  0.00    +0.000 A 
ENDBRANCH  21  22
ENDBRANCH  20  21
ENDBRANCH  19  20
ENDBRANCH   3  19
TORSDOF 5
ENDMDL
