MODEL 1
REMARK VINA RESULT:      -7.4      0.000      0.000
REMARK  Name = 
REMARK  11 active torsions:
REMARK  status: ('A' for Active; 'I' for Inactive)
REMARK    1  A    between atoms: C_1  and  C_2
REMARK    2  A    between atoms: C_2  and  N_3
REMARK    3  A    between atoms: N_3  and  C_4
REMARK    4  A    between atoms: N_3  and  C_6
REMARK    5  A    between atoms: C_4  and  C_5
REMARK    6  A    between atoms: C_6  and  C_7
REMARK    7  A    between atoms: C_7  and  N_8
REMARK    8  A    between atoms: N_8  and  C_9
REMARK    9  A    between atoms: C_14  and  C_15
REMARK   10  A    between atoms: C_20  and  O_21
REMARK   11  A    between atoms: O_21  and  C_22
REMARK                            x       y       z     vdW  Elec       q    Type
REMARK                         _______ _______ _______ _____ _____    ______ ____
ROOT
ATOM      1  C   UNL     1       2.102   6.985  19.792  0.00  0.00    +0.000 A 
ATOM      2  C   UNL     1       1.477   6.169  20.773  0.00  0.00    +0.000 A 
ATOM      3  C   UNL     1       1.643   4.786  20.886  0.00  0.00    +0.000 A 
ATOM      4  C   UNL     1       2.453   4.142  19.967  0.00  0.00    +0.000 A 
ATOM      5  N   UNL     1       2.711   2.820  19.863  0.00  0.00    +0.000 NA
ATOM      6  C   UNL     1       3.442   2.689  18.776  0.00  0.00    +0.000 A 
ATOM      7  C   UNL     1       3.796   1.335  18.259  0.00  0.00    +0.000 C 
ATOM      8  N   UNL     1       3.754   3.925  18.235  0.00  0.00    +0.000 N 
ATOM      9  C   UNL     1       4.563   4.304  17.147  0.00  0.00    +0.000 A 
ATOM     10  C   UNL     1       5.234   3.336  16.377  0.00  0.00    +0.000 A 
ATOM     11  C   UNL     1       6.079   3.693  15.332  0.00  0.00    +0.000 A 
ATOM     12  C   UNL     1       6.282   5.033  15.043  0.00  0.00    +0.000 A 
ATOM     13  C   UNL     1       5.589   6.020  15.799  0.00  0.00    +0.000 A 
ATOM     14  C   UNL     1       4.696   5.679  16.865  0.00  0.00    +0.000 A 
ATOM     15  C   UNL     1       3.895   6.756  17.675  0.00  0.00    +0.000 A 
ATOM     16  O   UNL     1       4.003   7.935  17.371  0.00  0.00    +0.000 OA
ATOM     17  C   UNL     1       2.996   6.289  18.833  0.00  0.00    +0.000 A 
ATOM     18  C   UNL     1       3.080   4.884  18.982  0.00  0.00    +0.000 A 
ENDROOT
BRANCH   1  19
ATOM     19  N   UNL     1       1.733   8.392  19.781  0.00  0.00    +0.000 N 
ATOM     20  H   UNL     1       1.380   8.599  18.843  0.00  0.00    +0.000 HD
BRANCH  19  21
ATOM     21  C   UNL     1       0.734   8.904  20.849  0.00  0.00    +0.000 C 
BRANCH  21  22
ATOM     22  C   UNL     1      -0.229  10.113  20.455  0.00  0.00    +0.000 C 
BRANCH  22  23
ATOM     23  N   UNL     1      -0.368  10.503  18.979  0.00  0.00    +0.000 NA
BRANCH  23  25
ATOM     24  C   UNL     1      -1.968  10.042  16.990  0.00  0.00    +0.000 C 
ATOM     25  C   UNL     1      -1.768  10.308  18.501  0.00  0.00    +0.000 C 
ENDBRANCH  23  25
BRANCH  23  26
ATOM     26  C   UNL     1       0.009  11.927  18.740  0.00  0.00    +0.000 C 
ATOM     27  C   UNL     1      -0.939  13.011  19.245  0.00  0.00    +0.000 C 
ENDBRANCH  23  26
ENDBRANCH  22  23
ENDBRANCH  21  22
ENDBRANCH  19  21
ENDBRANCH   1  19
BRANCH  12  28
ATOM     28  O   UNL     1       7.130   5.452  14.042  0.00  0.00    +0.000 OA
ATOM     29  C   UNL     1       7.193   4.649  12.849  0.00  0.00    +0.000 C 
ENDBRANCH  12  28
TORSDOF 7
ENDMDL
MODEL 2
REMARK VINA RESULT:      -7.3      0.815      1.019
REMARK  Name = 
REMARK  11 active torsions:
REMARK  status: ('A' for Active; 'I' for Inactive)
REMARK    1  A    between atoms: C_1  and  C_2
REMARK    2  A    between atoms: C_2  and  N_3
REMARK    3  A    between atoms: N_3  and  C_4
REMARK    4  A    between atoms: N_3  and  C_6
REMARK    5  A    between atoms: C_4  and  C_5
REMARK    6  A    between atoms: C_6  and  C_7
REMARK    7  A    between atoms: C_7  and  N_8
REMARK    8  A    between atoms: N_8  and  C_9
REMARK    9  A    between atoms: C_14  and  C_15
REMARK   10  A    between atoms: C_20  and  O_21
REMARK   11  A    between atoms: O_21  and  C_22
REMARK                            x       y       z     vdW  Elec       q    Type
REMARK                         _______ _______ _______ _____ _____    ______ ____
ROOT
ATOM      1  C   UNL     1       2.094   6.759  19.976  0.00  0.00    +0.000 A 
ATOM      2  C   UNL     1       1.509   5.890  20.936  0.00  0.00    +0.000 A 
ATOM      3  C   UNL     1       1.709   4.507  20.990  0.00  0.00    +0.000 A 
ATOM      4  C   UNL     1       2.515   3.921  20.029  0.00  0.00    +0.000 A 
ATOM      5  N   UNL     1       2.802   2.610  19.868  0.00  0.00    +0.000 NA
ATOM      6  C   UNL     1       3.514   2.541  18.763  0.00  0.00    +0.000 A 
ATOM      7  C   UNL     1       3.889   1.218  18.184  0.00  0.00    +0.000 C 
ATOM      8  N   UNL     1       3.785   3.805  18.266  0.00  0.00    +0.000 N 
ATOM      9  C   UNL     1       4.563   4.246  17.179  0.00  0.00    +0.000 A 
ATOM     10  C   UNL     1       5.241   3.326  16.357  0.00  0.00    +0.000 A 
ATOM     11  C   UNL     1       6.056   3.745  15.312  0.00  0.00    +0.000 A 
ATOM     12  C   UNL     1       6.221   5.100  15.072  0.00  0.00    +0.000 A 
ATOM     13  C   UNL     1       5.521   6.039  15.881  0.00  0.00    +0.000 A 
ATOM     14  C   UNL     1       4.658   5.634  16.950  0.00  0.00    +0.000 A 
ATOM     15  C   UNL     1       3.848   6.658  17.817  0.00  0.00    +0.000 A 
ATOM     16  O   UNL     1       3.923   7.851  17.560  0.00  0.00    +0.000 OA
ATOM     17  C   UNL     1       2.984   6.123  18.973  0.00  0.00    +0.000 A 
ATOM     18  C   UNL     1       3.104   4.716  19.064  0.00  0.00    +0.000 A 
ENDROOT
BRANCH   1  19
ATOM     19  N   UNL     1       1.692   8.156  20.030  0.00  0.00    +0.000 N 
ATOM     20  H   UNL     1       1.163   8.345  19.174  0.00  0.00    +0.000 HD
BRANCH  19  21
ATOM     21  C   UNL     1       0.899   8.652  21.265  0.00  0.00    +0.000 C 
BRANCH  21  22
ATOM     22  C   UNL     1      -0.190   9.797  21.045  0.00  0.00    +0.000 C 
BRANCH  22  23
ATOM     23  N   UNL     1       0.253  11.143  20.461  0.00  0.00    +0.000 NA
BRANCH  23  25
ATOM     24  C   UNL     1      -1.174  10.377  18.435  0.00  0.00    +0.000 C 
ATOM     25  C   UNL     1       0.017  11.193  18.988  0.00  0.00    +0.000 C 
ENDBRANCH  23  25
BRANCH  23  26
ATOM     26  C   UNL     1      -0.473  12.288  21.085  0.00  0.00    +0.000 C 
ATOM     27  C   UNL     1      -0.899  12.155  22.543  0.00  0.00    +0.000 C 
ENDBRANCH  23  26
ENDBRANCH  22  23
ENDBRANCH  21  22
ENDBRANCH  19  21
ENDBRANCH   1  19
BRANCH  12  28
ATOM     28  O   UNL     1       7.039   5.579  14.073  0.00  0.00    +0.000 OA
ATOM     29  C   UNL     1       7.218   4.749  12.911  0.00  0.00    +0.000 C 
ENDBRANCH  12  28
TORSDOF 7
ENDMDL
MODEL 3
REMARK VINA RESULT:      -7.3      0.705      1.392
REMARK  Name = 
REMARK  11 active torsions:
REMARK  status: ('A' for Active; 'I' for Inactive)
REMARK    1  A    between atoms: C_1  and  C_2
REMARK    2  A    between atoms: C_2  and  N_3
REMARK    3  A    between atoms: N_3  and  C_4
REMARK    4  A    between atoms: N_3  and  C_6
REMARK    5  A    between atoms: C_4  and  C_5
REMARK    6  A    between atoms: C_6  and  C_7
REMARK    7  A    between atoms: C_7  and  N_8
REMARK    8  A    between atoms: N_8  and  C_9
REMARK    9  A    between atoms: C_14  and  C_15
REMARK   10  A    between atoms: C_20  and  O_21
REMARK   11  A    between atoms: O_21  and  C_22
REMARK                            x       y       z     vdW  Elec       q    Type
REMARK                         _______ _______ _______ _____ _____    ______ ____
ROOT
ATOM      1  C   UNL     1       2.146   6.934  19.780  0.00  0.00    +0.000 A 
ATOM      2  C   UNL     1       1.522   6.104  20.749  0.00  0.00    +0.000 A 
ATOM      3  C   UNL     1       1.682   4.718  20.837  0.00  0.00    +0.000 A 
ATOM      4  C   UNL     1       2.485   4.087  19.902  0.00  0.00    +0.000 A 
ATOM      5  N   UNL     1       2.736   2.765  19.774  0.00  0.00    +0.000 NA
ATOM      6  C   UNL     1       3.463   2.651  18.682  0.00  0.00    +0.000 A 
ATOM      7  C   UNL     1       3.808   1.305  18.139  0.00  0.00    +0.000 C 
ATOM      8  N   UNL     1       3.778   3.895  18.162  0.00  0.00    +0.000 N 
ATOM      9  C   UNL     1       4.584   4.290  17.078  0.00  0.00    +0.000 A 
ATOM     10  C   UNL     1       5.248   3.333  16.288  0.00  0.00    +0.000 A 
ATOM     11  C   UNL     1       6.091   3.705  15.246  0.00  0.00    +0.000 A 
ATOM     12  C   UNL     1       6.299   5.049  14.980  0.00  0.00    +0.000 A 
ATOM     13  C   UNL     1       5.613   6.025  15.757  0.00  0.00    +0.000 A 
ATOM     14  C   UNL     1       4.723   5.669  16.820  0.00  0.00    +0.000 A 
ATOM     15  C   UNL     1       3.930   6.735  17.652  0.00  0.00    +0.000 A 
ATOM     16  O   UNL     1       4.043   7.919  17.370  0.00  0.00    +0.000 OA
ATOM     17  C   UNL     1       3.033   6.251  18.806  0.00  0.00    +0.000 A 
ATOM     18  C   UNL     1       3.111   4.844  18.929  0.00  0.00    +0.000 A 
ENDROOT
BRANCH   1  19
ATOM     19  N   UNL     1       1.784   8.343  19.797  0.00  0.00    +0.000 N 
ATOM     20  H   UNL     1       1.203   8.509  18.970  0.00  0.00    +0.000 HD
BRANCH  19  21
ATOM     21  C   UNL     1       1.090   8.914  21.058  0.00  0.00    +0.000 C 
BRANCH  21  22
ATOM     22  C   UNL     1      -0.333   9.614  20.878  0.00  0.00    +0.000 C 
BRANCH  22  23
ATOM     23  N   UNL     1      -0.392  11.124  20.620  0.00  0.00    +0.000 NA
BRANCH  23  25
ATOM     24  C   UNL     1       1.196  13.004  19.800  0.00  0.00    +0.000 C 
ATOM     25  C   UNL     1       0.973  11.727  20.644  0.00  0.00    +0.000 C 
ENDBRANCH  23  25
BRANCH  23  26
ATOM     26  C   UNL     1      -1.015  11.441  19.302  0.00  0.00    +0.000 C 
ATOM     27  C   UNL     1      -0.983  10.366  18.219  0.00  0.00    +0.000 C 
ENDBRANCH  23  26
ENDBRANCH  22  23
ENDBRANCH  21  22
ENDBRANCH  19  21
ENDBRANCH   1  19
BRANCH  12  28
ATOM     28  O   UNL     1       7.145   5.482  13.983  0.00  0.00    +0.000 OA
ATOM     29  C   UNL     1       7.278   4.646  12.819  0.00  0.00    +0.000 C 
ENDBRANCH  12  28
TORSDOF 7
ENDMDL
MODEL 4
REMARK VINA RESULT:      -7.2      2.410      6.917
REMARK  Name = 
REMARK  11 active torsions:
REMARK  status: ('A' for Active; 'I' for Inactive)
REMARK    1  A    between atoms: C_1  and  C_2
REMARK    2  A    between atoms: C_2  and  N_3
REMARK    3  A    between atoms: N_3  and  C_4
REMARK    4  A    between atoms: N_3  and  C_6
REMARK    5  A    between atoms: C_4  and  C_5
REMARK    6  A    between atoms: C_6  and  C_7
REMARK    7  A    between atoms: C_7  and  N_8
REMARK    8  A    between atoms: N_8  and  C_9
REMARK    9  A    between atoms: C_14  and  C_15
REMARK   10  A    between atoms: C_20  and  O_21
REMARK   11  A    between atoms: O_21  and  C_22
REMARK                            x       y       z     vdW  Elec       q    Type
REMARK                         _______ _______ _______ _____ _____    ______ ____
ROOT
ATOM      1  C   UNL     1       4.533   4.324  16.403  0.00  0.00    +0.000 A 
ATOM      2  C   UNL     1       4.578   2.913  16.567  0.00  0.00    +0.000 A 
ATOM      3  C   UNL     1       3.955   2.206  17.599  0.00  0.00    +0.000 A 
ATOM      4  C   UNL     1       3.257   2.921  18.558  0.00  0.00    +0.000 A 
ATOM      5  N   UNL     1       2.628   2.449  19.656  0.00  0.00    +0.000 NA
ATOM      6  C   UNL     1       2.210   3.515  20.306  0.00  0.00    +0.000 A 
ATOM      7  C   UNL     1       1.593   3.384  21.659  0.00  0.00    +0.000 C 
ATOM      8  N   UNL     1       2.466   4.669  19.586  0.00  0.00    +0.000 N 
ATOM      9  C   UNL     1       2.141   6.019  19.816  0.00  0.00    +0.000 A 
ATOM     10  C   UNL     1       1.426   6.402  20.966  0.00  0.00    +0.000 A 
ATOM     11  C   UNL     1       1.050   7.722  21.185  0.00  0.00    +0.000 A 
ATOM     12  C   UNL     1       1.372   8.691  20.247  0.00  0.00    +0.000 A 
ATOM     13  C   UNL     1       2.116   8.319  19.092  0.00  0.00    +0.000 A 
ATOM     14  C   UNL     1       2.535   6.971  18.854  0.00  0.00    +0.000 A 
ATOM     15  C   UNL     1       3.393   6.560  17.608  0.00  0.00    +0.000 A 
ATOM     16  O   UNL     1       3.752   7.421  16.818  0.00  0.00    +0.000 OA
ATOM     17  C   UNL     1       3.752   5.075  17.418  0.00  0.00    +0.000 A 
ATOM     18  C   UNL     1       3.187   4.298  18.457  0.00  0.00    +0.000 A 
ENDROOT
BRANCH   1  19
ATOM     19  N   UNL     1       5.321   4.881  15.315  0.00  0.00    +0.000 N 
ATOM     20  H   UNL     1       4.930   5.804  15.109  0.00  0.00    +0.000 HD
BRANCH  19  21
ATOM     21  C   UNL     1       6.857   4.982  15.489  0.00  0.00    +0.000 C 
BRANCH  21  22
ATOM     22  C   UNL     1       7.465   4.725  16.942  0.00  0.00    +0.000 C 
BRANCH  22  23
ATOM     23  N   UNL     1       7.928   5.924  17.777  0.00  0.00    +0.000 NA
BRANCH  23  25
ATOM     24  C   UNL     1       7.911   8.516  17.694  0.00  0.00    +0.000 C 
ATOM     25  C   UNL     1       7.221   7.172  17.364  0.00  0.00    +0.000 C 
ENDBRANCH  23  25
BRANCH  23  26
ATOM     26  C   UNL     1       7.687   5.716  19.235  0.00  0.00    +0.000 C 
ATOM     27  C   UNL     1       6.294   5.274  19.672  0.00  0.00    +0.000 C 
ENDBRANCH  23  26
ENDBRANCH  22  23
ENDBRANCH  21  22
ENDBRANCH  19  21
ENDBRANCH   1  19
BRANCH  12  28
ATOM     28  O   UNL     1       1.001  10.009  20.390  0.00  0.00    +0.000 OA
ATOM     29  C   UNL     1      -0.090  10.296  21.284  0.00  0.00    +0.000 C 
ENDBRANCH  12  28
TORSDOF 7
ENDMDL
MODEL 5
REMARK VINA RESULT:      -7.2      0.966      1.546
REMARK  Name = 
REMARK  11 active torsions:
REMARK  status: ('A' for Active; 'I' for Inactive)
REMARK    1  A    between atoms: C_1  and  C_2
REMARK    2  A    between atoms: C_2  and  N_3
REMARK    3  A    between atoms: N_3  and  C_4
REMARK    4  A    between atoms: N_3  and  C_6
REMARK    5  A    between atoms: C_4  and  C_5
REMARK    6  A    between atoms: C_6  and  C_7
REMARK    7  A    between atoms: C_7  and  N_8
REMARK    8  A    between atoms: N_8  and  C_9
REMARK    9  A    between atoms: C_14  and  C_15
REMARK   10  A    between atoms: C_20  and  O_21
REMARK   11  A    between atoms: O_21  and  C_22
REMARK                            x       y       z     vdW  Elec       q    Type
REMARK                         _______ _______ _______ _____ _____    ______ ____
ROOT
ATOM      1  C   UNL     1       2.094   7.083  19.787  0.00  0.00    +0.000 A 
ATOM      2  C   UNL     1       1.460   6.279  20.771  0.00  0.00    +0.000 A 
ATOM      3  C   UNL     1       1.601   4.892  20.883  0.00  0.00    +0.000 A 
ATOM      4  C   UNL     1       2.396   4.235  19.960  0.00  0.00    +0.000 A 
ATOM      5  N   UNL     1       2.630   2.908  19.856  0.00  0.00    +0.000 NA
ATOM      6  C   UNL     1       3.355   2.765  18.766  0.00  0.00    +0.000 A 
ATOM      7  C   UNL     1       3.682   1.405  18.247  0.00  0.00    +0.000 C 
ATOM      8  N   UNL     1       3.685   3.995  18.224  0.00  0.00    +0.000 N 
ATOM      9  C   UNL     1       4.497   4.359  17.133  0.00  0.00    +0.000 A 
ATOM     10  C   UNL     1       5.148   3.380  16.360  0.00  0.00    +0.000 A 
ATOM     11  C   UNL     1       5.995   3.722  15.312  0.00  0.00    +0.000 A 
ATOM     12  C   UNL     1       6.220   5.058  15.021  0.00  0.00    +0.000 A 
ATOM     13  C   UNL     1       5.548   6.057  15.780  0.00  0.00    +0.000 A 
ATOM     14  C   UNL     1       4.653   5.732  16.850  0.00  0.00    +0.000 A 
ATOM     15  C   UNL     1       3.874   6.823  17.662  0.00  0.00    +0.000 A 
ATOM     16  O   UNL     1       4.002   8.000  17.359  0.00  0.00    +0.000 OA
ATOM     17  C   UNL     1       2.972   6.371  18.825  0.00  0.00    +0.000 A 
ATOM     18  C   UNL     1       3.031   4.965  18.973  0.00  0.00    +0.000 A 
ENDROOT
BRANCH   1  19
ATOM     19  N   UNL     1       1.750   8.497  19.778  0.00  0.00    +0.000 N 
ATOM     20  H   UNL     1       1.566   8.751  18.803  0.00  0.00    +0.000 HD
BRANCH  19  21
ATOM     21  C   UNL     1       0.589   8.982  20.681  0.00  0.00    +0.000 C 
BRANCH  21  22
ATOM     22  C   UNL     1      -0.494   9.966  20.045  0.00  0.00    +0.000 C 
BRANCH  22  23
ATOM     23  N   UNL     1      -0.562  11.416  20.539  0.00  0.00    +0.000 NA
BRANCH  23  25
ATOM     24  C   UNL     1      -1.494  11.389  22.959  0.00  0.00    +0.000 C 
ATOM     25  C   UNL     1      -0.284  11.499  22.003  0.00  0.00    +0.000 C 
ENDBRANCH  23  25
BRANCH  23  26
ATOM     26  C   UNL     1       0.417  12.293  19.832  0.00  0.00    +0.000 C 
ATOM     27  C   UNL     1       1.526  12.937  20.658  0.00  0.00    +0.000 C 
ENDBRANCH  23  26
ENDBRANCH  22  23
ENDBRANCH  21  22
ENDBRANCH  19  21
ENDBRANCH   1  19
BRANCH  12  28
ATOM     28  O   UNL     1       7.071   5.462  14.016  0.00  0.00    +0.000 OA
ATOM     29  C   UNL     1       7.203   4.597  12.874  0.00  0.00    +0.000 C 
ENDBRANCH  12  28
TORSDOF 7
ENDMDL
MODEL 6
REMARK VINA RESULT:      -7.1      1.467      2.146
REMARK  Name = 
REMARK  11 active torsions:
REMARK  status: ('A' for Active; 'I' for Inactive)
REMARK    1  A    between atoms: C_1  and  C_2
REMARK    2  A    between atoms: C_2  and  N_3
REMARK    3  A    between atoms: N_3  and  C_4
REMARK    4  A    between atoms: N_3  and  C_6
REMARK    5  A    between atoms: C_4  and  C_5
REMARK    6  A    between atoms: C_6  and  C_7
REMARK    7  A    between atoms: C_7  and  N_8
REMARK    8  A    between atoms: N_8  and  C_9
REMARK    9  A    between atoms: C_14  and  C_15
REMARK   10  A    between atoms: C_20  and  O_21
REMARK   11  A    between atoms: O_21  and  C_22
REMARK                            x       y       z     vdW  Elec       q    Type
REMARK                         _______ _______ _______ _____ _____    ______ ____
ROOT
ATOM      1  C   UNL     1       1.466   8.725  19.627  0.00  0.00    +0.000 A 
ATOM      2  C   UNL     1       0.853   8.279  20.829  0.00  0.00    +0.000 A 
ATOM      3  C   UNL     1       1.021   7.010  21.389  0.00  0.00    +0.000 A 
ATOM      4  C   UNL     1       1.821   6.097  20.723  0.00  0.00    +0.000 A 
ATOM      5  N   UNL     1       2.079   4.813  21.058  0.00  0.00    +0.000 NA
ATOM      6  C   UNL     1       2.798   4.330  20.067  0.00  0.00    +0.000 A 
ATOM      7  C   UNL     1       3.147   2.880  20.020  0.00  0.00    +0.000 C 
ATOM      8  N   UNL     1       3.102   5.318  19.146  0.00  0.00    +0.000 N 
ATOM      9  C   UNL     1       3.899   5.316  17.985  0.00  0.00    +0.000 A 
ATOM     10  C   UNL     1       4.562   4.147  17.569  0.00  0.00    +0.000 A 
ATOM     11  C   UNL     1       5.395   4.137  16.456  0.00  0.00    +0.000 A 
ATOM     12  C   UNL     1       5.594   5.307  15.739  0.00  0.00    +0.000 A 
ATOM     13  C   UNL     1       4.909   6.490  16.136  0.00  0.00    +0.000 A 
ATOM     14  C   UNL     1       4.028   6.521  17.265  0.00  0.00    +0.000 A 
ATOM     15  C   UNL     1       3.235   7.807  17.684  0.00  0.00    +0.000 A 
ATOM     16  O   UNL     1       3.339   8.820  17.008  0.00  0.00    +0.000 OA
ATOM     17  C   UNL     1       2.350   7.749  18.941  0.00  0.00    +0.000 A 
ATOM     18  C   UNL     1       2.436   6.472  19.543  0.00  0.00    +0.000 A 
ENDROOT
BRANCH   1  19
ATOM     19  N   UNL     1       1.096  10.051  19.158  0.00  0.00    +0.000 N 
ATOM     20  H   UNL     1       1.604  10.209  18.283  0.00  0.00    +0.000 HD
BRANCH  19  21
ATOM     21  C   UNL     1      -0.407  10.377  18.965  0.00  0.00    +0.000 C 
BRANCH  21  22
ATOM     22  C   UNL     1      -1.126   9.841  17.646  0.00  0.00    +0.000 C 
BRANCH  22  23
ATOM     23  N   UNL     1      -2.180  10.720  16.964  0.00  0.00    +0.000 NA
BRANCH  23  25
ATOM     24  C   UNL     1      -3.075  10.239  14.577  0.00  0.00    +0.000 C 
ATOM     25  C   UNL     1      -3.073   9.906  16.088  0.00  0.00    +0.000 C 
ENDBRANCH  23  25
BRANCH  23  26
ATOM     26  C   UNL     1      -3.034  11.438  17.955  0.00  0.00    +0.000 C 
ATOM     27  C   UNL     1      -4.538  11.185  17.919  0.00  0.00    +0.000 C 
ENDBRANCH  23  26
ENDBRANCH  22  23
ENDBRANCH  21  22
ENDBRANCH  19  21
ENDBRANCH   1  19
BRANCH  12  28
ATOM     28  O   UNL     1       6.430   5.370  14.647  0.00  0.00    +0.000 OA
ATOM     29  C   UNL     1       6.539   4.192  13.828  0.00  0.00    +0.000 C 
ENDBRANCH  12  28
TORSDOF 7
ENDMDL
MODEL 7
REMARK VINA RESULT:      -7.1      0.817      1.402
REMARK  Name = 
REMARK  11 active torsions:
REMARK  status: ('A' for Active; 'I' for Inactive)
REMARK    1  A    between atoms: C_1  and  C_2
REMARK    2  A    between atoms: C_2  and  N_3
REMARK    3  A    between atoms: N_3  and  C_4
REMARK    4  A    between atoms: N_3  and  C_6
REMARK    5  A    between atoms: C_4  and  C_5
REMARK    6  A    between atoms: C_6  and  C_7
REMARK    7  A    between atoms: C_7  and  N_8
REMARK    8  A    between atoms: N_8  and  C_9
REMARK    9  A    between atoms: C_14  and  C_15
REMARK   10  A    between atoms: C_20  and  O_21
REMARK   11  A    between atoms: O_21  and  C_22
REMARK                            x       y       z     vdW  Elec       q    Type
REMARK                         _______ _______ _______ _____ _____    ______ ____
ROOT
ATOM      1  C   UNL     1       2.148   7.021  19.731  0.00  0.00    +0.000 A 
ATOM      2  C   UNL     1       1.442   6.198  20.649  0.00  0.00    +0.000 A 
ATOM      3  C   UNL     1       1.550   4.807  20.724  0.00  0.00    +0.000 A 
ATOM      4  C   UNL     1       2.385   4.162  19.828  0.00  0.00    +0.000 A 
ATOM      5  N   UNL     1       2.599   2.835  19.693  0.00  0.00    +0.000 NA
ATOM      6  C   UNL     1       3.384   2.711  18.643  0.00  0.00    +0.000 A 
ATOM      7  C   UNL     1       3.715   1.362  18.099  0.00  0.00    +0.000 C 
ATOM      8  N   UNL     1       3.769   3.951  18.162  0.00  0.00    +0.000 N 
ATOM      9  C   UNL     1       4.650   4.333  17.132  0.00  0.00    +0.000 A 
ATOM     10  C   UNL     1       5.326   3.365  16.366  0.00  0.00    +0.000 A 
ATOM     11  C   UNL     1       6.240   3.723  15.381  0.00  0.00    +0.000 A 
ATOM     12  C   UNL     1       6.507   5.062  15.148  0.00  0.00    +0.000 A 
ATOM     13  C   UNL     1       5.810   6.051  15.899  0.00  0.00    +0.000 A 
ATOM     14  C   UNL     1       4.848   5.710  16.904  0.00  0.00    +0.000 A 
ATOM     15  C   UNL     1       4.044   6.790  17.706  0.00  0.00    +0.000 A 
ATOM     16  O   UNL     1       4.212   7.974  17.449  0.00  0.00    +0.000 OA
ATOM     17  C   UNL     1       3.067   6.321  18.798  0.00  0.00    +0.000 A 
ATOM     18  C   UNL     1       3.091   4.910  18.904  0.00  0.00    +0.000 A 
ENDROOT
BRANCH   1  19
ATOM     19  N   UNL     1       1.832   8.440  19.749  0.00  0.00    +0.000 N 
ATOM     20  H   UNL     1       2.665   8.925  20.093  0.00  0.00    +0.000 HD
BRANCH  19  21
ATOM     21  C   UNL     1       1.333   9.105  18.441  0.00  0.00    +0.000 C 
BRANCH  21  22
ATOM     22  C   UNL     1       0.434  10.417  18.564  0.00  0.00    +0.000 C 
BRANCH  22  23
ATOM     23  N   UNL     1      -0.951  10.311  19.211  0.00  0.00    +0.000 NA
BRANCH  23  25
ATOM     24  C   UNL     1      -0.383  11.467  21.463  0.00  0.00    +0.000 C 
ATOM     25  C   UNL     1      -1.195  11.448  20.147  0.00  0.00    +0.000 C 
ENDBRANCH  23  25
BRANCH  23  26
ATOM     26  C   UNL     1      -2.044  10.305  18.195  0.00  0.00    +0.000 C 
ATOM     27  C   UNL     1      -2.966  11.519  18.131  0.00  0.00    +0.000 C 
ENDBRANCH  23  26
ENDBRANCH  22  23
ENDBRANCH  21  22
ENDBRANCH  19  21
ENDBRANCH   1  19
BRANCH  12  28
ATOM     28  O   UNL     1       7.423   5.480  14.208  0.00  0.00    +0.000 OA
ATOM     29  C   UNL     1       7.420   4.807  12.937  0.00  0.00    +0.000 C 
ENDBRANCH  12  28
TORSDOF 7
ENDMDL
MODEL 8
REMARK VINA RESULT:      -7.1      0.901      1.374
REMARK  Name = 
REMARK  11 active torsions:
REMARK  status: ('A' for Active; 'I' for Inactive)
REMARK    1  A    between atoms: C_1  and  C_2
REMARK    2  A    between atoms: C_2  and  N_3
REMARK    3  A    between atoms: N_3  and  C_4
REMARK    4  A    between atoms: N_3  and  C_6
REMARK    5  A    between atoms: C_4  and  C_5
REMARK    6  A    between atoms: C_6  and  C_7
REMARK    7  A    between atoms: C_7  and  N_8
REMARK    8  A    between atoms: N_8  and  C_9
REMARK    9  A    between atoms: C_14  and  C_15
REMARK   10  A    between atoms: C_20  and  O_21
REMARK   11  A    between atoms: O_21  and  C_22
REMARK                            x       y       z     vdW  Elec       q    Type
REMARK                         _______ _______ _______ _____ _____    ______ ____
ROOT
ATOM      1  C   UNL     1       2.131   7.075  19.753  0.00  0.00    +0.000 A 
ATOM      2  C   UNL     1       1.471   6.264  20.715  0.00  0.00    +0.000 A 
ATOM      3  C   UNL     1       1.591   4.874  20.808  0.00  0.00    +0.000 A 
ATOM      4  C   UNL     1       2.391   4.220  19.886  0.00  0.00    +0.000 A 
ATOM      5  N   UNL     1       2.607   2.892  19.764  0.00  0.00    +0.000 NA
ATOM      6  C   UNL     1       3.346   2.755  18.683  0.00  0.00    +0.000 A 
ATOM      7  C   UNL     1       3.662   1.399  18.147  0.00  0.00    +0.000 C 
ATOM      8  N   UNL     1       3.702   3.989  18.165  0.00  0.00    +0.000 N 
ATOM      9  C   UNL     1       4.535   4.359  17.092  0.00  0.00    +0.000 A 
ATOM     10  C   UNL     1       5.184   3.383  16.313  0.00  0.00    +0.000 A 
ATOM     11  C   UNL     1       6.051   3.729  15.283  0.00  0.00    +0.000 A 
ATOM     12  C   UNL     1       6.299   5.067  15.017  0.00  0.00    +0.000 A 
ATOM     13  C   UNL     1       5.629   6.063  15.782  0.00  0.00    +0.000 A 
ATOM     14  C   UNL     1       4.714   5.733  16.833  0.00  0.00    +0.000 A 
ATOM     15  C   UNL     1       3.939   6.822  17.651  0.00  0.00    +0.000 A 
ATOM     16  O   UNL     1       4.088   8.002  17.368  0.00  0.00    +0.000 OA
ATOM     17  C   UNL     1       3.013   6.366  18.793  0.00  0.00    +0.000 A 
ATOM     18  C   UNL     1       3.051   4.957  18.920  0.00  0.00    +0.000 A 
ENDROOT
BRANCH   1  19
ATOM     19  N   UNL     1       1.807   8.493  19.762  0.00  0.00    +0.000 N 
ATOM     20  H   UNL     1       2.664   8.991  20.018  0.00  0.00    +0.000 HD
BRANCH  19  21
ATOM     21  C   UNL     1       1.190   9.120  18.486  0.00  0.00    +0.000 C 
BRANCH  21  22
ATOM     22  C   UNL     1       0.070  10.240  18.669  0.00  0.00    +0.000 C 
BRANCH  22  23
ATOM     23  N   UNL     1       0.500  11.681  18.967  0.00  0.00    +0.000 NA
BRANCH  23  25
ATOM     24  C   UNL     1      -0.220  14.157  18.686  0.00  0.00    +0.000 C 
ATOM     25  C   UNL     1      -0.559  12.653  18.565  0.00  0.00    +0.000 C 
ENDBRANCH  23  25
BRANCH  23  26
ATOM     26  C   UNL     1       0.792  11.889  20.416  0.00  0.00    +0.000 C 
ATOM     27  C   UNL     1      -0.213  11.353  21.431  0.00  0.00    +0.000 C 
ENDBRANCH  23  26
ENDBRANCH  22  23
ENDBRANCH  21  22
ENDBRANCH  19  21
ENDBRANCH   1  19
BRANCH  12  28
ATOM     28  O   UNL     1       7.171   5.474  14.031  0.00  0.00    +0.000 OA
ATOM     29  C   UNL     1       7.280   4.644  12.861  0.00  0.00    +0.000 C 
ENDBRANCH  12  28
TORSDOF 7
ENDMDL
MODEL 9
REMARK VINA RESULT:      -7.0      1.474      2.396
REMARK  Name = 
REMARK  11 active torsions:
REMARK  status: ('A' for Active; 'I' for Inactive)
REMARK    1  A    between atoms: C_1  and  C_2
REMARK    2  A    between atoms: C_2  and  N_3
REMARK    3  A    between atoms: N_3  and  C_4
REMARK    4  A    between atoms: N_3  and  C_6
REMARK    5  A    between atoms: C_4  and  C_5
REMARK    6  A    between atoms: C_6  and  C_7
REMARK    7  A    between atoms: C_7  and  N_8
REMARK    8  A    between atoms: N_8  and  C_9
REMARK    9  A    between atoms: C_14  and  C_15
REMARK   10  A    between atoms: C_20  and  O_21
REMARK   11  A    between atoms: O_21  and  C_22
REMARK                            x       y       z     vdW  Elec       q    Type
REMARK                         _______ _______ _______ _____ _____    ______ ____
ROOT
ATOM      1  C   UNL     1       1.417   8.876  19.680  0.00  0.00    +0.000 A 
ATOM      2  C   UNL     1       0.795   8.433  20.878  0.00  0.00    +0.000 A 
ATOM      3  C   UNL     1       0.932   7.154  21.425  0.00  0.00    +0.000 A 
ATOM      4  C   UNL     1       1.709   6.229  20.749  0.00  0.00    +0.000 A 
ATOM      5  N   UNL     1       1.935   4.936  21.070  0.00  0.00    +0.000 NA
ATOM      6  C   UNL     1       2.641   4.446  20.073  0.00  0.00    +0.000 A 
ATOM      7  C   UNL     1       2.953   2.988  20.010  0.00  0.00    +0.000 C 
ATOM      8  N   UNL     1       2.968   5.435  19.161  0.00  0.00    +0.000 N 
ATOM      9  C   UNL     1       3.763   5.425  18.000  0.00  0.00    +0.000 A 
ATOM     10  C   UNL     1       4.397   4.244  17.571  0.00  0.00    +0.000 A 
ATOM     11  C   UNL     1       5.228   4.226  16.456  0.00  0.00    +0.000 A 
ATOM     12  C   UNL     1       5.454   5.397  15.751  0.00  0.00    +0.000 A 
ATOM     13  C   UNL     1       4.799   6.592  16.161  0.00  0.00    +0.000 A 
ATOM     14  C   UNL     1       3.920   6.634  17.292  0.00  0.00    +0.000 A 
ATOM     15  C   UNL     1       3.160   7.934  17.725  0.00  0.00    +0.000 A 
ATOM     16  O   UNL     1       3.288   8.952  17.059  0.00  0.00    +0.000 OA
ATOM     17  C   UNL     1       2.275   7.886  18.983  0.00  0.00    +0.000 A 
ATOM     18  C   UNL     1       2.331   6.600  19.571  0.00  0.00    +0.000 A 
ENDROOT
BRANCH   1  19
ATOM     19  N   UNL     1       1.079  10.216  19.225  0.00  0.00    +0.000 N 
ATOM     20  H   UNL     1       1.661  10.406  18.405  0.00  0.00    +0.000 HD
BRANCH  19  21
ATOM     21  C   UNL     1      -0.403  10.540  18.910  0.00  0.00    +0.000 C 
BRANCH  21  22
ATOM     22  C   UNL     1      -1.076   9.821  17.655  0.00  0.00    +0.000 C 
BRANCH  22  23
ATOM     23  N   UNL     1      -2.575  10.018  17.400  0.00  0.00    +0.000 NA
BRANCH  23  25
ATOM     24  C   UNL     1      -4.151  11.703  18.584  0.00  0.00    +0.000 C 
ATOM     25  C   UNL     1      -2.975  11.440  17.615  0.00  0.00    +0.000 C 
ENDBRANCH  23  25
BRANCH  23  26
ATOM     26  C   UNL     1      -2.960   9.634  16.011  0.00  0.00    +0.000 C 
ATOM     27  C   UNL     1      -3.275  10.753  15.022  0.00  0.00    +0.000 C 
ENDBRANCH  23  26
ENDBRANCH  22  23
ENDBRANCH  21  22
ENDBRANCH  19  21
ENDBRANCH   1  19
BRANCH  12  28
ATOM     28  O   UNL     1       6.291   5.452  14.658  0.00  0.00    +0.000 OA
ATOM     29  C   UNL     1       6.539   4.221  13.954  0.00  0.00    +0.000 C 
ENDBRANCH  12  28
TORSDOF 7
ENDMDL
