MODEL 1
REMARK VINA RESULT:      -7.5      0.000      0.000
REMARK  Name = 
REMARK  8 active torsions:
REMARK  status: ('A' for Active; 'I' for Inactive)
REMARK    1  A    between atoms: C_1  and  N_2
REMARK    2  A    between atoms: N_2  and  C_3
REMARK    3  A    between atoms: N_2  and  C_11
REMARK    4  A    between atoms: C_3  and  C_4
REMARK    5  A    between atoms: C_4  and  C_5
REMARK    6  A    between atoms: N_14  and  C_15
REMARK    7  A    between atoms: C_15  and  C_16
REMARK    8  A    between atoms: C_22  and  O_23
REMARK                            x       y       z     vdW  Elec       q    Type
REMARK                         _______ _______ _______ _____ _____    ______ ____
ROOT
ATOM      1  C   UNL     1       5.583   6.494  18.032  0.00  0.00    +0.000 C 
ATOM      2  C   UNL     1       4.153   6.330  17.476  0.00  0.00    +0.000 C 
ATOM      3  C   UNL     1       3.140   6.178  18.622  0.00  0.00    +0.000 C 
ATOM      4  N   UNL     1       3.688   5.494  19.808  0.00  0.00    +0.000 NA
ATOM      5  C   UNL     1       4.648   4.469  19.386  0.00  0.00    +0.000 C 
ATOM      6  C   UNL     1       5.899   5.159  18.798  0.00  0.00    +0.000 C 
ENDROOT
BRANCH   1   8
ATOM      7  C   UNL     1       7.477   7.936  17.490  0.00  0.00    +0.000 C 
ATOM      8  N   UNL     1       6.565   6.893  16.961  0.00  0.00    +0.000 NA
BRANCH   8   9
ATOM      9  C   UNL     1       7.440   5.775  16.494  0.00  0.00    +0.000 C 
BRANCH   9  10
ATOM     10  C   UNL     1       6.738   4.571  15.848  0.00  0.00    +0.000 C 
BRANCH  10  11
ATOM     11  C   UNL     1       6.935   4.512  14.349  0.00  0.00    +0.000 A 
ATOM     12  C   UNL     1       6.177   3.627  13.587  0.00  0.00    +0.000 A 
ATOM     13  C   UNL     1       6.318   3.633  12.201  0.00  0.00    +0.000 A 
ATOM     14  C   UNL     1       7.210   4.517  11.615  0.00  0.00    +0.000 A 
ATOM     15  C   UNL     1       7.928   5.364  12.444  0.00  0.00    +0.000 A 
ATOM     16  N   UNL     1       7.809   5.387  13.792  0.00  0.00    +0.000 NA
ENDBRANCH  10  11
ENDBRANCH   9  10
ENDBRANCH   8   9
ENDBRANCH   1   8
BRANCH   6  17
ATOM     17  O   UNL     1       6.797   5.425  19.887  0.00  0.00    +0.000 OA
ATOM     18  H   UNL     1       6.808   6.397  19.987  0.00  0.00    +0.000 HD
ENDBRANCH   6  17
BRANCH   4  19
ATOM     19  C   UNL     1       2.625   4.916  20.643  0.00  0.00    +0.000 C 
BRANCH  19  20
ATOM     20  C   UNL     1       1.944   3.769  19.979  0.00  0.00    +0.000 A 
ATOM     21  C   UNL     1       0.649   3.548  19.553  0.00  0.00    +0.000 A 
ATOM     22  C   UNL     1       0.636   2.260  18.966  0.00  0.00    +0.000 A 
ATOM     23  C   UNL     1       1.920   1.779  19.071  0.00  0.00    +0.000 A 
ATOM     24  O   UNL     1       2.722   2.687  19.683  0.00  0.00    +0.000 OA
ENDBRANCH  19  20
ENDBRANCH   4  19
TORSDOF 7
ENDMDL
MODEL 2
REMARK VINA RESULT:      -7.4      2.408      7.032
REMARK  Name = 
REMARK  8 active torsions:
REMARK  status: ('A' for Active; 'I' for Inactive)
REMARK    1  A    between atoms: C_1  and  N_2
REMARK    2  A    between atoms: N_2  and  C_3
REMARK    3  A    between atoms: N_2  and  C_11
REMARK    4  A    between atoms: C_3  and  C_4
REMARK    5  A    between atoms: C_4  and  C_5
REMARK    6  A    between atoms: N_14  and  C_15
REMARK    7  A    between atoms: C_15  and  C_16
REMARK    8  A    between atoms: C_22  and  O_23
REMARK                            x       y       z     vdW  Elec       q    Type
REMARK                         _______ _______ _______ _____ _____    ______ ____
ROOT
ATOM      1  C   UNL     1       5.573   4.951  17.148  0.00  0.00    +0.000 C 
ATOM      2  C   UNL     1       5.059   3.757  16.317  0.00  0.00    +0.000 C 
ATOM      3  C   UNL     1       5.989   3.487  15.123  0.00  0.00    +0.000 C 
ATOM      4  N   UNL     1       6.623   4.704  14.583  0.00  0.00    +0.000 NA
ATOM      5  C   UNL     1       5.697   5.834  14.695  0.00  0.00    +0.000 C 
ATOM      6  C   UNL     1       5.517   6.194  16.187  0.00  0.00    +0.000 C 
ENDROOT
BRANCH   1   8
ATOM      7  C   UNL     1       5.816   5.283  19.554  0.00  0.00    +0.000 C 
ATOM      8  N   UNL     1       4.839   5.090  18.456  0.00  0.00    +0.000 NA
BRANCH   8   9
ATOM      9  C   UNL     1       3.916   6.265  18.511  0.00  0.00    +0.000 C 
BRANCH   9  10
ATOM     10  C   UNL     1       2.411   5.967  18.434  0.00  0.00    +0.000 C 
BRANCH  10  11
ATOM     11  C   UNL     1       2.000   4.797  19.301  0.00  0.00    +0.000 A 
ATOM     12  C   UNL     1       1.425   3.671  18.717  0.00  0.00    +0.000 A 
ATOM     13  C   UNL     1       1.116   2.574  19.518  0.00  0.00    +0.000 A 
ATOM     14  C   UNL     1       1.387   2.630  20.876  0.00  0.00    +0.000 A 
ATOM     15  C   UNL     1       1.958   3.787  21.380  0.00  0.00    +0.000 A 
ATOM     16  N   UNL     1       2.275   4.867  20.628  0.00  0.00    +0.000 NA
ENDBRANCH  10  11
ENDBRANCH   9  10
ENDBRANCH   8   9
ENDBRANCH   1   8
BRANCH   6  17
ATOM     17  O   UNL     1       6.555   7.124  16.536  0.00  0.00    +0.000 OA
ATOM     18  H   UNL     1       6.123   8.000  16.564  0.00  0.00    +0.000 HD
ENDBRANCH   6  17
BRANCH   4  19
ATOM     19  C   UNL     1       7.066   4.515  13.192  0.00  0.00    +0.000 C 
BRANCH  19  20
ATOM     20  C   UNL     1       6.144   3.638  12.419  0.00  0.00    +0.000 A 
ATOM     21  C   UNL     1       4.829   3.760  12.015  0.00  0.00    +0.000 A 
ATOM     22  C   UNL     1       4.527   2.591  11.278  0.00  0.00    +0.000 A 
ATOM     23  C   UNL     1       5.674   1.832  11.278  0.00  0.00    +0.000 A 
ATOM     24  O   UNL     1       6.661   2.459  11.966  0.00  0.00    +0.000 OA
ENDBRANCH  19  20
ENDBRANCH   4  19
TORSDOF 7
ENDMDL
MODEL 3
REMARK VINA RESULT:      -7.4      3.239      7.944
REMARK  Name = 
REMARK  8 active torsions:
REMARK  status: ('A' for Active; 'I' for Inactive)
REMARK    1  A    between atoms: C_1  and  N_2
REMARK    2  A    between atoms: N_2  and  C_3
REMARK    3  A    between atoms: N_2  and  C_11
REMARK    4  A    between atoms: C_3  and  C_4
REMARK    5  A    between atoms: C_4  and  C_5
REMARK    6  A    between atoms: N_14  and  C_15
REMARK    7  A    between atoms: C_15  and  C_16
REMARK    8  A    between atoms: C_22  and  O_23
REMARK                            x       y       z     vdW  Elec       q    Type
REMARK                         _______ _______ _______ _____ _____    ______ ____
ROOT
ATOM      1  C   UNL     1       3.603   5.367  18.174  0.00  0.00    +0.000 C 
ATOM      2  C   UNL     1       4.166   6.712  17.672  0.00  0.00    +0.000 C 
ATOM      3  C   UNL     1       5.130   6.491  16.495  0.00  0.00    +0.000 C 
ATOM      4  N   UNL     1       5.873   5.220  16.571  0.00  0.00    +0.000 NA
ATOM      5  C   UNL     1       6.163   4.902  17.973  0.00  0.00    +0.000 C 
ATOM      6  C   UNL     1       4.843   4.554  18.696  0.00  0.00    +0.000 C 
ENDROOT
BRANCH   1   8
ATOM      7  C   UNL     1       2.765   4.802  20.397  0.00  0.00    +0.000 C 
ATOM      8  N   UNL     1       2.474   5.555  19.153  0.00  0.00    +0.000 NA
BRANCH   8   9
ATOM      9  C   UNL     1       2.262   6.976  19.569  0.00  0.00    +0.000 C 
BRANCH   9  10
ATOM     10  C   UNL     1       1.495   7.205  20.880  0.00  0.00    +0.000 C 
BRANCH  10  11
ATOM     11  C   UNL     1       0.908   8.596  20.981  0.00  0.00    +0.000 A 
ATOM     12  C   UNL     1       0.333   9.019  22.177  0.00  0.00    +0.000 A 
ATOM     13  C   UNL     1      -0.138  10.326  22.278  0.00  0.00    +0.000 A 
ATOM     14  C   UNL     1      -0.026  11.172  21.186  0.00  0.00    +0.000 A 
ATOM     15  C   UNL     1       0.556  10.674  20.032  0.00  0.00    +0.000 A 
ATOM     16  N   UNL     1       1.029   9.413  19.904  0.00  0.00    +0.000 NA
ENDBRANCH  10  11
ENDBRANCH   9  10
ENDBRANCH   8   9
ENDBRANCH   1   8
BRANCH   6  17
ATOM     17  O   UNL     1       4.611   3.147  18.518  0.00  0.00    +0.000 OA
ATOM     18  H   UNL     1       5.291   2.847  17.884  0.00  0.00    +0.000 HD
ENDBRANCH   6  17
BRANCH   4  19
ATOM     19  C   UNL     1       7.106   5.260  15.769  0.00  0.00    +0.000 C 
BRANCH  19  20
ATOM     20  C   UNL     1       6.907   4.710  14.399  0.00  0.00    +0.000 A 
ATOM     21  C   UNL     1       6.092   3.725  13.878  0.00  0.00    +0.000 A 
ATOM     22  C   UNL     1       6.348   3.689  12.487  0.00  0.00    +0.000 A 
ATOM     23  C   UNL     1       7.300   4.651  12.248  0.00  0.00    +0.000 A 
ATOM     24  O   UNL     1       7.646   5.277  13.402  0.00  0.00    +0.000 OA
ENDBRANCH  19  20
ENDBRANCH   4  19
TORSDOF 7
ENDMDL
MODEL 4
REMARK VINA RESULT:      -7.3      3.242      7.972
REMARK  Name = 
REMARK  8 active torsions:
REMARK  status: ('A' for Active; 'I' for Inactive)
REMARK    1  A    between atoms: C_1  and  N_2
REMARK    2  A    between atoms: N_2  and  C_3
REMARK    3  A    between atoms: N_2  and  C_11
REMARK    4  A    between atoms: C_3  and  C_4
REMARK    5  A    between atoms: C_4  and  C_5
REMARK    6  A    between atoms: N_14  and  C_15
REMARK    7  A    between atoms: C_15  and  C_16
REMARK    8  A    between atoms: C_22  and  O_23
REMARK                            x       y       z     vdW  Elec       q    Type
REMARK                         _______ _______ _______ _____ _____    ______ ____
ROOT
ATOM      1  C   UNL     1       3.646   5.419  18.011  0.00  0.00    +0.000 C 
ATOM      2  C   UNL     1       4.345   6.758  17.696  0.00  0.00    +0.000 C 
ATOM      3  C   UNL     1       5.278   6.610  16.483  0.00  0.00    +0.000 C 
ATOM      4  N   UNL     1       5.886   5.271  16.367  0.00  0.00    +0.000 NA
ATOM      5  C   UNL     1       6.144   4.729  17.704  0.00  0.00    +0.000 C 
ATOM      6  C   UNL     1       4.795   4.417  18.391  0.00  0.00    +0.000 C 
ENDROOT
BRANCH   1   8
ATOM      7  C   UNL     1       2.907   4.863  20.271  0.00  0.00    +0.000 C 
ATOM      8  N   UNL     1       2.543   5.580  19.025  0.00  0.00    +0.000 NA
BRANCH   8   9
ATOM      9  C   UNL     1       2.288   6.998  19.423  0.00  0.00    +0.000 C 
BRANCH   9  10
ATOM     10  C   UNL     1       1.594   7.222  20.775  0.00  0.00    +0.000 C 
BRANCH  10  11
ATOM     11  C   UNL     1       1.020   8.615  20.916  0.00  0.00    +0.000 A 
ATOM     12  C   UNL     1       0.923   9.440  19.799  0.00  0.00    +0.000 A 
ATOM     13  C   UNL     1       0.328  10.693  19.931  0.00  0.00    +0.000 A 
ATOM     14  C   UNL     1      -0.151  11.088  21.170  0.00  0.00    +0.000 A 
ATOM     15  C   UNL     1      -0.013  10.210  22.232  0.00  0.00    +0.000 A 
ATOM     16  N   UNL     1       0.554   8.985  22.136  0.00  0.00    +0.000 NA
ENDBRANCH  10  11
ENDBRANCH   9  10
ENDBRANCH   8   9
ENDBRANCH   1   8
BRANCH   6  17
ATOM     17  O   UNL     1       4.419   3.082  18.019  0.00  0.00    +0.000 OA
ATOM     18  H   UNL     1       4.024   3.159  17.128  0.00  0.00    +0.000 HD
ENDBRANCH   6  17
BRANCH   4  19
ATOM     19  C   UNL     1       7.115   5.300  15.558  0.00  0.00    +0.000 C 
BRANCH  19  20
ATOM     20  C   UNL     1       6.911   4.724  14.199  0.00  0.00    +0.000 A 
ATOM     21  C   UNL     1       6.078   3.745  13.695  0.00  0.00    +0.000 A 
ATOM     22  C   UNL     1       6.340   3.675  12.306  0.00  0.00    +0.000 A 
ATOM     23  C   UNL     1       7.313   4.612  12.052  0.00  0.00    +0.000 A 
ATOM     24  O   UNL     1       7.666   5.255  13.194  0.00  0.00    +0.000 OA
ENDBRANCH  19  20
ENDBRANCH   4  19
TORSDOF 7
ENDMDL
MODEL 5
REMARK VINA RESULT:      -7.3      3.656      8.243
REMARK  Name = 
REMARK  8 active torsions:
REMARK  status: ('A' for Active; 'I' for Inactive)
REMARK    1  A    between atoms: C_1  and  N_2
REMARK    2  A    between atoms: N_2  and  C_3
REMARK    3  A    between atoms: N_2  and  C_11
REMARK    4  A    between atoms: C_3  and  C_4
REMARK    5  A    between atoms: C_4  and  C_5
REMARK    6  A    between atoms: N_14  and  C_15
REMARK    7  A    between atoms: C_15  and  C_16
REMARK    8  A    between atoms: C_22  and  O_23
REMARK                            x       y       z     vdW  Elec       q    Type
REMARK                         _______ _______ _______ _____ _____    ______ ____
ROOT
ATOM      1  C   UNL     1       3.290   5.871  19.321  0.00  0.00    +0.000 C 
ATOM      2  C   UNL     1       3.814   4.427  19.461  0.00  0.00    +0.000 C 
ATOM      3  C   UNL     1       5.314   4.359  19.129  0.00  0.00    +0.000 C 
ATOM      4  N   UNL     1       5.736   5.334  18.107  0.00  0.00    +0.000 NA
ATOM      5  C   UNL     1       4.661   5.519  17.128  0.00  0.00    +0.000 C 
ATOM      6  C   UNL     1       3.479   6.248  17.807  0.00  0.00    +0.000 C 
ENDROOT
BRANCH   1   8
ATOM      7  C   UNL     1       1.544   4.824  20.668  0.00  0.00    +0.000 C 
ATOM      8  N   UNL     1       1.897   6.025  19.874  0.00  0.00    +0.000 NA
BRANCH   8   9
ATOM      9  C   UNL     1       1.737   7.192  20.795  0.00  0.00    +0.000 C 
BRANCH   9  10
ATOM     10  C   UNL     1       1.379   8.539  20.148  0.00  0.00    +0.000 C 
BRANCH  10  11
ATOM     11  C   UNL     1       0.555   9.426  21.056  0.00  0.00    +0.000 A 
ATOM     12  C   UNL     1       0.141   8.951  22.297  0.00  0.00    +0.000 A 
ATOM     13  C   UNL     1      -0.556   9.802  23.151  0.00  0.00    +0.000 A 
ATOM     14  C   UNL     1      -0.821  11.100  22.744  0.00  0.00    +0.000 A 
ATOM     15  C   UNL     1      -0.377  11.495  21.493  0.00  0.00    +0.000 A 
ATOM     16  N   UNL     1       0.307  10.695  20.643  0.00  0.00    +0.000 NA
ENDBRANCH  10  11
ENDBRANCH   9  10
ENDBRANCH   8   9
ENDBRANCH   1   8
BRANCH   6  17
ATOM     17  O   UNL     1       3.714   7.660  17.683  0.00  0.00    +0.000 OA
ATOM     18  H   UNL     1       3.373   7.906  16.801  0.00  0.00    +0.000 HD
ENDBRANCH   6  17
BRANCH   4  19
ATOM     19  C   UNL     1       6.988   4.927  17.451  0.00  0.00    +0.000 C 
BRANCH  19  20
ATOM     20  C   UNL     1       6.792   4.597  16.012  0.00  0.00    +0.000 A 
ATOM     21  C   UNL     1       6.058   3.633  15.348  0.00  0.00    +0.000 A 
ATOM     22  C   UNL     1       6.261   3.858  13.966  0.00  0.00    +0.000 A 
ATOM     23  C   UNL     1       7.103   4.941  13.874  0.00  0.00    +0.000 A 
ATOM     24  O   UNL     1       7.430   5.398  15.109  0.00  0.00    +0.000 OA
ENDBRANCH  19  20
ENDBRANCH   4  19
TORSDOF 7
ENDMDL
MODEL 6
REMARK VINA RESULT:      -7.3      3.619      7.816
REMARK  Name = 
REMARK  8 active torsions:
REMARK  status: ('A' for Active; 'I' for Inactive)
REMARK    1  A    between atoms: C_1  and  N_2
REMARK    2  A    between atoms: N_2  and  C_3
REMARK    3  A    between atoms: N_2  and  C_11
REMARK    4  A    between atoms: C_3  and  C_4
REMARK    5  A    between atoms: C_4  and  C_5
REMARK    6  A    between atoms: N_14  and  C_15
REMARK    7  A    between atoms: C_15  and  C_16
REMARK    8  A    between atoms: C_22  and  O_23
REMARK                            x       y       z     vdW  Elec       q    Type
REMARK                         _______ _______ _______ _____ _____    ______ ____
ROOT
ATOM      1  C   UNL     1       3.372   6.169  17.989  0.00  0.00    +0.000 C 
ATOM      2  C   UNL     1       4.327   7.160  17.292  0.00  0.00    +0.000 C 
ATOM      3  C   UNL     1       5.332   6.411  16.404  0.00  0.00    +0.000 C 
ATOM      4  N   UNL     1       5.699   5.079  16.921  0.00  0.00    +0.000 NA
ATOM      5  C   UNL     1       5.723   5.109  18.386  0.00  0.00    +0.000 C 
ATOM      6  C   UNL     1       4.281   5.279  18.912  0.00  0.00    +0.000 C 
ENDROOT
BRANCH   1   8
ATOM      7  C   UNL     1       2.206   6.516  20.106  0.00  0.00    +0.000 C 
ATOM      8  N   UNL     1       2.223   6.870  18.667  0.00  0.00    +0.000 NA
BRANCH   8   9
ATOM      9  C   UNL     1       2.303   8.361  18.607  0.00  0.00    +0.000 C 
BRANCH   9  10
ATOM     10  C   UNL     1       1.256   9.075  17.738  0.00  0.00    +0.000 C 
BRANCH  10  11
ATOM     11  C   UNL     1       0.383  10.023  18.531  0.00  0.00    +0.000 A 
ATOM     12  C   UNL     1      -0.922  10.274  18.113  0.00  0.00    +0.000 A 
ATOM     13  C   UNL     1      -1.737  11.094  18.891  0.00  0.00    +0.000 A 
ATOM     14  C   UNL     1      -1.230  11.639  20.059  0.00  0.00    +0.000 A 
ATOM     15  C   UNL     1       0.079  11.343  20.404  0.00  0.00    +0.000 A 
ATOM     16  N   UNL     1       0.893  10.546  19.673  0.00  0.00    +0.000 NA
ENDBRANCH  10  11
ENDBRANCH   9  10
ENDBRANCH   8   9
ENDBRANCH   1   8
BRANCH   6  17
ATOM     17  O   UNL     1       3.709   3.967  19.038  0.00  0.00    +0.000 OA
ATOM     18  H   UNL     1       4.377   3.354  18.673  0.00  0.00    +0.000 HD
ENDBRANCH   6  17
BRANCH   4  19
ATOM     19  C   UNL     1       6.985   4.618  16.376  0.00  0.00    +0.000 C 
BRANCH  19  20
ATOM     20  C   UNL     1       6.968   4.521  14.890  0.00  0.00    +0.000 A 
ATOM     21  C   UNL     1       6.232   3.772  13.993  0.00  0.00    +0.000 A 
ATOM     22  C   UNL     1       6.666   4.155  12.702  0.00  0.00    +0.000 A 
ATOM     23  C   UNL     1       7.636   5.110  12.892  0.00  0.00    +0.000 A 
ATOM     24  O   UNL     1       7.827   5.341  14.216  0.00  0.00    +0.000 OA
ENDBRANCH  19  20
ENDBRANCH   4  19
TORSDOF 7
ENDMDL
MODEL 7
REMARK VINA RESULT:      -7.2      4.457      6.936
REMARK  Name = 
REMARK  8 active torsions:
REMARK  status: ('A' for Active; 'I' for Inactive)
REMARK    1  A    between atoms: C_1  and  N_2
REMARK    2  A    between atoms: N_2  and  C_3
REMARK    3  A    between atoms: N_2  and  C_11
REMARK    4  A    between atoms: C_3  and  C_4
REMARK    5  A    between atoms: C_4  and  C_5
REMARK    6  A    between atoms: N_14  and  C_15
REMARK    7  A    between atoms: C_15  and  C_16
REMARK    8  A    between atoms: C_22  and  O_23
REMARK                            x       y       z     vdW  Elec       q    Type
REMARK                         _______ _______ _______ _____ _____    ______ ____
ROOT
ATOM      1  C   UNL     1       2.506   7.538  19.489  0.00  0.00    +0.000 C 
ATOM      2  C   UNL     1       2.011   7.940  18.084  0.00  0.00    +0.000 C 
ATOM      3  C   UNL     1       1.853   9.466  17.981  0.00  0.00    +0.000 C 
ATOM      4  N   UNL     1       1.459  10.106  19.250  0.00  0.00    +0.000 NA
ATOM      5  C   UNL     1       0.569   9.212  19.996  0.00  0.00    +0.000 C 
ATOM      6  C   UNL     1       1.375   7.987  20.483  0.00  0.00    +0.000 C 
ENDROOT
BRANCH   1   8
ATOM      7  C   UNL     1       1.901   5.327  20.329  0.00  0.00    +0.000 C 
ATOM      8  N   UNL     1       2.910   6.088  19.554  0.00  0.00    +0.000 NA
BRANCH   8   9
ATOM      9  C   UNL     1       2.995   5.422  18.218  0.00  0.00    +0.000 C 
BRANCH   9  10
ATOM     10  C   UNL     1       4.222   4.532  17.967  0.00  0.00    +0.000 C 
BRANCH  10  11
ATOM     11  C   UNL     1       5.529   5.283  18.103  0.00  0.00    +0.000 A 
ATOM     12  C   UNL     1       5.845   6.293  17.198  0.00  0.00    +0.000 A 
ATOM     13  C   UNL     1       7.018   7.022  17.378  0.00  0.00    +0.000 A 
ATOM     14  C   UNL     1       7.843   6.724  18.451  0.00  0.00    +0.000 A 
ATOM     15  C   UNL     1       7.459   5.703  19.304  0.00  0.00    +0.000 A 
ATOM     16  N   UNL     1       6.324   4.980  19.161  0.00  0.00    +0.000 NA
ENDBRANCH  10  11
ENDBRANCH   9  10
ENDBRANCH   8   9
ENDBRANCH   1   8
BRANCH   6  17
ATOM     17  O   UNL     1       1.952   8.327  21.754  0.00  0.00    +0.000 OA
ATOM     18  H   UNL     1       1.207   8.340  22.386  0.00  0.00    +0.000 HD
ENDBRANCH   6  17
BRANCH   4  19
ATOM     19  C   UNL     1       0.831  11.417  19.027  0.00  0.00    +0.000 C 
BRANCH  19  20
ATOM     20  C   UNL     1       1.821  12.530  19.053  0.00  0.00    +0.000 A 
ATOM     21  C   UNL     1       2.475  13.246  18.070  0.00  0.00    +0.000 A 
ATOM     22  C   UNL     1       3.275  14.203  18.739  0.00  0.00    +0.000 A 
ATOM     23  C   UNL     1       3.060  14.010  20.083  0.00  0.00    +0.000 A 
ATOM     24  O   UNL     1       2.178  12.998  20.285  0.00  0.00    +0.000 OA
ENDBRANCH  19  20
ENDBRANCH   4  19
TORSDOF 7
ENDMDL
MODEL 8
REMARK VINA RESULT:      -7.2      4.570      6.480
REMARK  Name = 
REMARK  8 active torsions:
REMARK  status: ('A' for Active; 'I' for Inactive)
REMARK    1  A    between atoms: C_1  and  N_2
REMARK    2  A    between atoms: N_2  and  C_3
REMARK    3  A    between atoms: N_2  and  C_11
REMARK    4  A    between atoms: C_3  and  C_4
REMARK    5  A    between atoms: C_4  and  C_5
REMARK    6  A    between atoms: N_14  and  C_15
REMARK    7  A    between atoms: C_15  and  C_16
REMARK    8  A    between atoms: C_22  and  O_23
REMARK                            x       y       z     vdW  Elec       q    Type
REMARK                         _______ _______ _______ _____ _____    ______ ____
ROOT
ATOM      1  C   UNL     1       2.409   7.601  19.571  0.00  0.00    +0.000 C 
ATOM      2  C   UNL     1       1.874   7.896  18.154  0.00  0.00    +0.000 C 
ATOM      3  C   UNL     1       1.674   9.407  17.954  0.00  0.00    +0.000 C 
ATOM      4  N   UNL     1       1.290  10.120  19.186  0.00  0.00    +0.000 NA
ATOM      5  C   UNL     1       0.440   9.256  20.011  0.00  0.00    +0.000 C 
ATOM      6  C   UNL     1       1.288   8.087  20.559  0.00  0.00    +0.000 C 
ENDROOT
BRANCH   1   8
ATOM      7  C   UNL     1       1.837   5.415  20.496  0.00  0.00    +0.000 C 
ATOM      8  N   UNL     1       2.853   6.169  19.723  0.00  0.00    +0.000 NA
BRANCH   8   9
ATOM      9  C   UNL     1       3.010   5.442  18.426  0.00  0.00    +0.000 C 
BRANCH   9  10
ATOM     10  C   UNL     1       4.246   4.541  18.284  0.00  0.00    +0.000 C 
BRANCH  10  11
ATOM     11  C   UNL     1       5.542   5.323  18.258  0.00  0.00    +0.000 A 
ATOM     12  C   UNL     1       5.709   6.353  17.336  0.00  0.00    +0.000 A 
ATOM     13  C   UNL     1       6.878   7.109  17.370  0.00  0.00    +0.000 A 
ATOM     14  C   UNL     1       7.847   6.817  18.318  0.00  0.00    +0.000 A 
ATOM     15  C   UNL     1       7.605   5.774  19.197  0.00  0.00    +0.000 A 
ATOM     16  N   UNL     1       6.477   5.026  19.194  0.00  0.00    +0.000 NA
ENDBRANCH  10  11
ENDBRANCH   9  10
ENDBRANCH   8   9
ENDBRANCH   1   8
BRANCH   6  17
ATOM     17  O   UNL     1       1.883   8.526  21.791  0.00  0.00    +0.000 OA
ATOM     18  H   UNL     1       2.341   7.743  22.155  0.00  0.00    +0.000 HD
ENDBRANCH   6  17
BRANCH   4  19
ATOM     19  C   UNL     1       0.623  11.397  18.891  0.00  0.00    +0.000 C 
BRANCH  19  20
ATOM     20  C   UNL     1      -0.811  11.216  18.529  0.00  0.00    +0.000 A 
ATOM     21  C   UNL     1      -1.470  10.397  17.634  0.00  0.00    +0.000 A 
ATOM     22  C   UNL     1      -2.850  10.678  17.777  0.00  0.00    +0.000 A 
ATOM     23  C   UNL     1      -2.944  11.648  18.747  0.00  0.00    +0.000 A 
ATOM     24  O   UNL     1      -1.713  11.981  19.211  0.00  0.00    +0.000 OA
ENDBRANCH  19  20
ENDBRANCH   4  19
TORSDOF 7
ENDMDL
MODEL 9
REMARK VINA RESULT:      -7.2      4.367      7.864
REMARK  Name = 
REMARK  8 active torsions:
REMARK  status: ('A' for Active; 'I' for Inactive)
REMARK    1  A    between atoms: C_1  and  N_2
REMARK    2  A    between atoms: N_2  and  C_3
REMARK    3  A    between atoms: N_2  and  C_11
REMARK    4  A    between atoms: C_3  and  C_4
REMARK    5  A    between atoms: C_4  and  C_5
REMARK    6  A    between atoms: N_14  and  C_15
REMARK    7  A    between atoms: C_15  and  C_16
REMARK    8  A    between atoms: C_22  and  O_23
REMARK                            x       y       z     vdW  Elec       q    Type
REMARK                         _______ _______ _______ _____ _____    ______ ____
ROOT
ATOM      1  C   UNL     1       2.042   7.246  19.989  0.00  0.00    +0.000 C 
ATOM      2  C   UNL     1       1.621   5.870  20.546  0.00  0.00    +0.000 C 
ATOM      3  C   UNL     1       2.762   4.852  20.394  0.00  0.00    +0.000 C 
ATOM      4  N   UNL     1       3.603   5.080  19.204  0.00  0.00    +0.000 NA
ATOM      5  C   UNL     1       2.776   5.594  18.108  0.00  0.00    +0.000 C 
ATOM      6  C   UNL     1       2.306   7.024  18.456  0.00  0.00    +0.000 C 
ENDROOT
BRANCH   1   8
ATOM      7  C   UNL     1       1.330   8.823  21.713  0.00  0.00    +0.000 C 
ATOM      8  N   UNL     1       1.053   8.327  20.343  0.00  0.00    +0.000 NA
BRANCH   8   9
ATOM      9  C   UNL     1       1.118   9.524  19.449  0.00  0.00    +0.000 C 
BRANCH   9  10
ATOM     10  C   UNL     1       0.158  10.679  19.770  0.00  0.00    +0.000 C 
BRANCH  10  11
ATOM     11  C   UNL     1      -1.031  10.731  18.835  0.00  0.00    +0.000 A 
ATOM     12  C   UNL     1      -1.055   9.922  17.702  0.00  0.00    +0.000 A 
ATOM     13  C   UNL     1      -2.187   9.929  16.889  0.00  0.00    +0.000 A 
ATOM     14  C   UNL     1      -3.258  10.740  17.226  0.00  0.00    +0.000 A 
ATOM     15  C   UNL     1      -3.154  11.516  18.369  0.00  0.00    +0.000 A 
ATOM     16  N   UNL     1      -2.073  11.528  19.182  0.00  0.00    +0.000 NA
ENDBRANCH  10  11
ENDBRANCH   9  10
ENDBRANCH   8   9
ENDBRANCH   1   8
BRANCH   6  17
ATOM     17  O   UNL     1       3.318   7.935  18.001  0.00  0.00    +0.000 OA
ATOM     18  H   UNL     1       2.855   8.577  17.428  0.00  0.00    +0.000 HD
ENDBRANCH   6  17
BRANCH   4  19
ATOM     19  C   UNL     1       4.321   3.861  18.803  0.00  0.00    +0.000 C 
BRANCH  19  20
ATOM     20  C   UNL     1       5.504   4.158  17.947  0.00  0.00    +0.000 A 
ATOM     21  C   UNL     1       5.693   4.247  16.582  0.00  0.00    +0.000 A 
ATOM     22  C   UNL     1       7.052   4.591  16.389  0.00  0.00    +0.000 A 
ATOM     23  C   UNL     1       7.604   4.691  17.644  0.00  0.00    +0.000 A 
ATOM     24  O   UNL     1       6.673   4.431  18.597  0.00  0.00    +0.000 OA
ENDBRANCH  19  20
ENDBRANCH   4  19
TORSDOF 7
ENDMDL
