MODEL 1
REMARK VINA RESULT:      -8.7      0.000      0.000
REMARK  Name = 
REMARK  7 active torsions:
REMARK  status: ('A' for Active; 'I' for Inactive)
REMARK    1  A    between atoms: C_1  and  S_2
REMARK    2  A    between atoms: S_2  and  C_3
REMARK    3  A    between atoms: N_6  and  C_7
REMARK    4  A    between atoms: C_7  and  C_8
REMARK    5  A    between atoms: N_17  and  C_18
REMARK    6  A    between atoms: C_18  and  C_19
REMARK    7  A    between atoms: C_19  and  C_21
REMARK                            x       y       z     vdW  Elec       q    Type
REMARK                         _______ _______ _______ _____ _____    ______ ____
ROOT
ATOM      1  C   UNL     1       3.194   4.054  19.898  0.00  0.00    +0.000 A 
ATOM      2  N   UNL     1       2.616   5.144  20.460  0.00  0.00    +0.000 NA
ATOM      3  C   UNL     1       2.687   6.332  19.817  0.00  0.00    +0.000 A 
ATOM      4  N   UNL     1       2.103   7.490  20.319  0.00  0.00    +0.000 N 
ATOM      5  C   UNL     1       3.355   6.368  18.588  0.00  0.00    +0.000 A 
ATOM      6  C   UNL     1       3.645   7.320  17.590  0.00  0.00    +0.000 A 
ATOM      7  N   UNL     1       4.272   6.790  16.532  0.00  0.00    +0.000 NA
ATOM      8  N   UNL     1       4.391   5.481  16.867  0.00  0.00    +0.000 N 
ATOM      9  C   UNL     1       3.866   5.185  18.099  0.00  0.00    +0.000 A 
ATOM     10  N   UNL     1       3.821   3.991  18.706  0.00  0.00    +0.000 NA
ATOM     11  H   UNL     1       2.814   8.078  20.746  0.00  0.00    +0.000 HD
ENDROOT
BRANCH   1  13
ATOM     12  C   UNL     1       1.448   2.745  21.563  0.00  0.00    +0.000 C 
ATOM     13  S   UNL     1       3.096   2.541  20.837  0.00  0.00    +0.000 S 
ENDBRANCH   1  13
BRANCH   4  14
ATOM     14  C   UNL     1       0.953   7.336  21.197  0.00  0.00    +0.000 C 
BRANCH  14  15
ATOM     15  C   UNL     1       0.365   8.715  21.424  0.00  0.00    +0.000 A 
ATOM     16  C   UNL     1      -0.127   9.062  22.696  0.00  0.00    +0.000 A 
ATOM     17  C   UNL     1      -0.684  10.320  22.934  0.00  0.00    +0.000 A 
ATOM     18  C   UNL     1      -0.753  11.252  21.902  0.00  0.00    +0.000 A 
ATOM     19  C   UNL     1      -0.267  10.927  20.637  0.00  0.00    +0.000 A 
ATOM     20  C   UNL     1       0.290   9.663  20.396  0.00  0.00    +0.000 A 
ENDBRANCH  14  15
ENDBRANCH   4  14
BRANCH   8  21
ATOM     21  C   UNL     1       4.915   4.538  15.897  0.00  0.00    +0.000 C 
BRANCH  21  22
ATOM     22  C   UNL     1       6.442   4.438  15.906  0.00  0.00    +0.000 C 
ATOM     23 CL   UNL     1       7.125   4.842  14.289  0.00  0.00    +0.000 Cl
BRANCH  22  24
ATOM     24  C   UNL     1       7.085   5.347  16.942  0.00  0.00    +0.000 A 
ATOM     25  C   UNL     1       7.266   6.712  16.662  0.00  0.00    +0.000 A 
ATOM     26  C   UNL     1       7.819   7.572  17.616  0.00  0.00    +0.000 A 
ATOM     27  C   UNL     1       8.202   7.081  18.861  0.00  0.00    +0.000 A 
ATOM     28  C   UNL     1       8.041   5.728  19.152  0.00  0.00    +0.000 A 
ATOM     29  C   UNL     1       7.488   4.868  18.201  0.00  0.00    +0.000 A 
ENDBRANCH  22  24
ENDBRANCH  21  22
ENDBRANCH   8  21
TORSDOF 6
ENDMDL
MODEL 2
REMARK VINA RESULT:      -8.7      3.580      5.936
REMARK  Name = 
REMARK  7 active torsions:
REMARK  status: ('A' for Active; 'I' for Inactive)
REMARK    1  A    between atoms: C_1  and  S_2
REMARK    2  A    between atoms: S_2  and  C_3
REMARK    3  A    between atoms: N_6  and  C_7
REMARK    4  A    between atoms: C_7  and  C_8
REMARK    5  A    between atoms: N_17  and  C_18
REMARK    6  A    between atoms: C_18  and  C_19
REMARK    7  A    between atoms: C_19  and  C_21
REMARK                            x       y       z     vdW  Elec       q    Type
REMARK                         _______ _______ _______ _____ _____    ______ ____
ROOT
ATOM      1  C   UNL     1       0.226   9.535  21.412  0.00  0.00    +0.000 A 
ATOM      2  N   UNL     1      -0.226  10.540  20.622  0.00  0.00    +0.000 NA
ATOM      3  C   UNL     1       0.217  10.625  19.346  0.00  0.00    +0.000 A 
ATOM      4  N   UNL     1      -0.215  11.614  18.470  0.00  0.00    +0.000 N 
ATOM      5  C   UNL     1       1.123   9.655  18.906  0.00  0.00    +0.000 A 
ATOM      6  C   UNL     1       1.804   9.332  17.716  0.00  0.00    +0.000 A 
ATOM      7  N   UNL     1       2.521   8.205  17.815  0.00  0.00    +0.000 NA
ATOM      8  N   UNL     1       2.300   7.811  19.093  0.00  0.00    +0.000 N 
ATOM      9  C   UNL     1       1.478   8.658  19.790  0.00  0.00    +0.000 A 
ATOM     10  N   UNL     1       1.065   8.540  21.060  0.00  0.00    +0.000 NA
ATOM     11  H   UNL     1       0.492  12.339  18.392  0.00  0.00    +0.000 HD
ENDROOT
BRANCH   1  13
ATOM     12  C   UNL     1      -1.267  11.104  23.099  0.00  0.00    +0.000 C 
ATOM     13  S   UNL     1      -0.371   9.528  23.092  0.00  0.00    +0.000 S 
ENDBRANCH   1  13
BRANCH   4  14
ATOM     14  C   UNL     1      -1.532  12.188  18.701  0.00  0.00    +0.000 C 
BRANCH  14  15
ATOM     15  C   UNL     1      -2.478  11.586  17.680  0.00  0.00    +0.000 A 
ATOM     16  C   UNL     1      -1.965  10.789  16.639  0.00  0.00    +0.000 A 
ATOM     17  C   UNL     1      -2.809  10.229  15.679  0.00  0.00    +0.000 A 
ATOM     18  C   UNL     1      -4.181  10.454  15.747  0.00  0.00    +0.000 A 
ATOM     19  C   UNL     1      -4.707  11.237  16.773  0.00  0.00    +0.000 A 
ATOM     20  C   UNL     1      -3.861  11.802  17.737  0.00  0.00    +0.000 A 
ENDBRANCH  14  15
ENDBRANCH   4  14
BRANCH   8  21
ATOM     21  C   UNL     1       2.818   6.533  19.547  0.00  0.00    +0.000 C 
BRANCH  21  22
ATOM     22  C   UNL     1       3.351   5.652  18.415  0.00  0.00    +0.000 C 
ATOM     23 CL   UNL     1       5.151   5.603  18.428  0.00  0.00    +0.000 Cl
BRANCH  22  24
ATOM     24  C   UNL     1       2.828   4.226  18.483  0.00  0.00    +0.000 A 
ATOM     25  C   UNL     1       3.728   3.148  18.489  0.00  0.00    +0.000 A 
ATOM     26  C   UNL     1       3.269   1.831  18.591  0.00  0.00    +0.000 A 
ATOM     27  C   UNL     1       1.904   1.572  18.684  0.00  0.00    +0.000 A 
ATOM     28  C   UNL     1       0.996   2.627  18.668  0.00  0.00    +0.000 A 
ATOM     29  C   UNL     1       1.452   3.944  18.568  0.00  0.00    +0.000 A 
ENDBRANCH  22  24
ENDBRANCH  21  22
ENDBRANCH   8  21
TORSDOF 6
ENDMDL
MODEL 3
REMARK VINA RESULT:      -8.6      3.518      5.943
REMARK  Name = 
REMARK  7 active torsions:
REMARK  status: ('A' for Active; 'I' for Inactive)
REMARK    1  A    between atoms: C_1  and  S_2
REMARK    2  A    between atoms: S_2  and  C_3
REMARK    3  A    between atoms: N_6  and  C_7
REMARK    4  A    between atoms: C_7  and  C_8
REMARK    5  A    between atoms: N_17  and  C_18
REMARK    6  A    between atoms: C_18  and  C_19
REMARK    7  A    between atoms: C_19  and  C_21
REMARK                            x       y       z     vdW  Elec       q    Type
REMARK                         _______ _______ _______ _____ _____    ______ ____
ROOT
ATOM      1  C   UNL     1       0.253   9.689  21.432  0.00  0.00    +0.000 A 
ATOM      2  N   UNL     1      -0.175  10.741  20.691  0.00  0.00    +0.000 NA
ATOM      3  C   UNL     1       0.262  10.868  19.416  0.00  0.00    +0.000 A 
ATOM      4  N   UNL     1      -0.147  11.907  18.587  0.00  0.00    +0.000 N 
ATOM      5  C   UNL     1       1.136   9.892  18.927  0.00  0.00    +0.000 A 
ATOM      6  C   UNL     1       1.798   9.602  17.717  0.00  0.00    +0.000 A 
ATOM      7  N   UNL     1       2.482   8.451  17.761  0.00  0.00    +0.000 NA
ATOM      8  N   UNL     1       2.258   8.007  19.023  0.00  0.00    +0.000 N 
ATOM      9  C   UNL     1       1.467   8.848  19.763  0.00  0.00    +0.000 A 
ATOM     10  N   UNL     1       1.060   8.686  21.030  0.00  0.00    +0.000 NA
ATOM     11  H   UNL     1       0.582  12.614  18.535  0.00  0.00    +0.000 HD
ENDROOT
BRANCH   1  13
ATOM     12  C   UNL     1      -1.368  11.113  23.129  0.00  0.00    +0.000 C 
ATOM     13  S   UNL     1      -0.333   9.626  23.115  0.00  0.00    +0.000 S 
ENDBRANCH   1  13
BRANCH   4  14
ATOM     14  C   UNL     1      -1.444  12.509  18.854  0.00  0.00    +0.000 C 
BRANCH  14  15
ATOM     15  C   UNL     1      -2.457  11.826  17.956  0.00  0.00    +0.000 A 
ATOM     16  C   UNL     1      -3.798  11.719  18.372  0.00  0.00    +0.000 A 
ATOM     17  C   UNL     1      -4.751  11.087  17.573  0.00  0.00    +0.000 A 
ATOM     18  C   UNL     1      -4.380  10.556  16.341  0.00  0.00    +0.000 A 
ATOM     19  C   UNL     1      -3.058  10.657  15.911  0.00  0.00    +0.000 A 
ATOM     20  C   UNL     1      -2.098  11.289  16.714  0.00  0.00    +0.000 A 
ENDBRANCH  14  15
ENDBRANCH   4  14
BRANCH   8  21
ATOM     21  C   UNL     1       2.740   6.696  19.417  0.00  0.00    +0.000 C 
BRANCH  21  22
ATOM     22  C   UNL     1       3.051   5.778  18.232  0.00  0.00    +0.000 C 
ATOM     23 CL   UNL     1       4.826   5.661  17.953  0.00  0.00    +0.000 Cl
BRANCH  22  24
ATOM     24  C   UNL     1       2.496   4.374  18.415  0.00  0.00    +0.000 A 
ATOM     25  C   UNL     1       1.476   4.139  19.352  0.00  0.00    +0.000 A 
ATOM     26  C   UNL     1       0.926   2.863  19.508  0.00  0.00    +0.000 A 
ATOM     27  C   UNL     1       1.389   1.803  18.734  0.00  0.00    +0.000 A 
ATOM     28  C   UNL     1       2.407   2.015  17.808  0.00  0.00    +0.000 A 
ATOM     29  C   UNL     1       2.958   3.288  17.650  0.00  0.00    +0.000 A 
ENDBRANCH  22  24
ENDBRANCH  21  22
ENDBRANCH   8  21
TORSDOF 6
ENDMDL
MODEL 4
REMARK VINA RESULT:      -8.6      0.214      1.295
REMARK  Name = 
REMARK  7 active torsions:
REMARK  status: ('A' for Active; 'I' for Inactive)
REMARK    1  A    between atoms: C_1  and  S_2
REMARK    2  A    between atoms: S_2  and  C_3
REMARK    3  A    between atoms: N_6  and  C_7
REMARK    4  A    between atoms: C_7  and  C_8
REMARK    5  A    between atoms: N_17  and  C_18
REMARK    6  A    between atoms: C_18  and  C_19
REMARK    7  A    between atoms: C_19  and  C_21
REMARK                            x       y       z     vdW  Elec       q    Type
REMARK                         _______ _______ _______ _____ _____    ______ ____
ROOT
ATOM      1  C   UNL     1       3.122   4.148  20.012  0.00  0.00    +0.000 A 
ATOM      2  N   UNL     1       2.534   5.251  20.537  0.00  0.00    +0.000 NA
ATOM      3  C   UNL     1       2.598   6.418  19.854  0.00  0.00    +0.000 A 
ATOM      4  N   UNL     1       2.003   7.587  20.316  0.00  0.00    +0.000 N 
ATOM      5  C   UNL     1       3.270   6.419  18.628  0.00  0.00    +0.000 A 
ATOM      6  C   UNL     1       3.557   7.339  17.600  0.00  0.00    +0.000 A 
ATOM      7  N   UNL     1       4.192   6.780  16.563  0.00  0.00    +0.000 NA
ATOM      8  N   UNL     1       4.320   5.484  16.941  0.00  0.00    +0.000 N 
ATOM      9  C   UNL     1       3.793   5.225  18.180  0.00  0.00    +0.000 A 
ATOM     10  N   UNL     1       3.754   4.050  18.825  0.00  0.00    +0.000 NA
ATOM     11  H   UNL     1       2.708   8.194  20.726  0.00  0.00    +0.000 HD
ENDROOT
BRANCH   1  13
ATOM     12  C   UNL     1       1.297   2.755  21.518  0.00  0.00    +0.000 C 
ATOM     13  S   UNL     1       3.032   2.666  21.000  0.00  0.00    +0.000 S 
ENDBRANCH   1  13
BRANCH   4  14
ATOM     14  C   UNL     1       0.851   7.453  21.195  0.00  0.00    +0.000 C 
BRANCH  14  15
ATOM     15  C   UNL     1       0.367   8.851  21.528  0.00  0.00    +0.000 A 
ATOM     16  C   UNL     1       0.644   9.913  20.648  0.00  0.00    +0.000 A 
ATOM     17  C   UNL     1       0.220  11.213  20.933  0.00  0.00    +0.000 A 
ATOM     18  C   UNL     1      -0.492  11.469  22.101  0.00  0.00    +0.000 A 
ATOM     19  C   UNL     1      -0.779  10.427  22.982  0.00  0.00    +0.000 A 
ATOM     20  C   UNL     1      -0.352   9.123  22.699  0.00  0.00    +0.000 A 
ENDBRANCH  14  15
ENDBRANCH   4  14
BRANCH   8  21
ATOM     21  C   UNL     1       4.855   4.514  16.004  0.00  0.00    +0.000 C 
BRANCH  21  22
ATOM     22  C   UNL     1       6.385   4.459  15.989  0.00  0.00    +0.000 C 
ATOM     23 CL   UNL     1       7.030   4.891  14.364  0.00  0.00    +0.000 Cl
BRANCH  22  24
ATOM     24  C   UNL     1       7.016   5.380  17.021  0.00  0.00    +0.000 A 
ATOM     25  C   UNL     1       7.411   4.870  18.269  0.00  0.00    +0.000 A 
ATOM     26  C   UNL     1       8.029   5.692  19.216  0.00  0.00    +0.000 A 
ATOM     27  C   UNL     1       8.258   7.036  18.932  0.00  0.00    +0.000 A 
ATOM     28  C   UNL     1       7.863   7.562  17.705  0.00  0.00    +0.000 A 
ATOM     29  C   UNL     1       7.247   6.742  16.757  0.00  0.00    +0.000 A 
ENDBRANCH  22  24
ENDBRANCH  21  22
ENDBRANCH   8  21
TORSDOF 6
ENDMDL
MODEL 5
REMARK VINA RESULT:      -8.5      1.737      2.947
REMARK  Name = 
REMARK  7 active torsions:
REMARK  status: ('A' for Active; 'I' for Inactive)
REMARK    1  A    between atoms: C_1  and  S_2
REMARK    2  A    between atoms: S_2  and  C_3
REMARK    3  A    between atoms: N_6  and  C_7
REMARK    4  A    between atoms: C_7  and  C_8
REMARK    5  A    between atoms: N_17  and  C_18
REMARK    6  A    between atoms: C_18  and  C_19
REMARK    7  A    between atoms: C_19  and  C_21
REMARK                            x       y       z     vdW  Elec       q    Type
REMARK                         _______ _______ _______ _____ _____    ______ ____
ROOT
ATOM      1  C   UNL     1       2.249   4.258  19.910  0.00  0.00    +0.000 A 
ATOM      2  N   UNL     1       1.777   5.375  20.517  0.00  0.00    +0.000 NA
ATOM      3  C   UNL     1       2.164   6.588  20.057  0.00  0.00    +0.000 A 
ATOM      4  N   UNL     1       1.707   7.778  20.613  0.00  0.00    +0.000 N 
ATOM      5  C   UNL     1       3.035   6.622  18.963  0.00  0.00    +0.000 A 
ATOM      6  C   UNL     1       3.657   7.597  18.159  0.00  0.00    +0.000 A 
ATOM      7  N   UNL     1       4.361   7.069  17.150  0.00  0.00    +0.000 NA
ATOM      8  N   UNL     1       4.192   5.735  17.322  0.00  0.00    +0.000 N 
ATOM      9  C   UNL     1       3.415   5.419  18.406  0.00  0.00    +0.000 A 
ATOM     10  N   UNL     1       3.058   4.200  18.832  0.00  0.00    +0.000 NA
ATOM     11  H   UNL     1       2.421   8.171  21.220  0.00  0.00    +0.000 HD
ENDROOT
BRANCH   1  13
ATOM     12  C   UNL     1       1.136   1.880  19.110  0.00  0.00    +0.000 C 
ATOM     13  S   UNL     1       1.728   2.704  20.612  0.00  0.00    +0.000 S 
ENDBRANCH   1  13
BRANCH   4  14
ATOM     14  C   UNL     1       0.410   7.758  21.273  0.00  0.00    +0.000 C 
BRANCH  14  15
ATOM     15  C   UNL     1       0.044   9.192  21.602  0.00  0.00    +0.000 A 
ATOM     16  C   UNL     1       0.362  10.219  20.694  0.00  0.00    +0.000 A 
ATOM     17  C   UNL     1       0.047  11.550  20.974  0.00  0.00    +0.000 A 
ATOM     18  C   UNL     1      -0.597  11.873  22.165  0.00  0.00    +0.000 A 
ATOM     19  C   UNL     1      -0.923  10.868  23.073  0.00  0.00    +0.000 A 
ATOM     20  C   UNL     1      -0.605   9.532  22.796  0.00  0.00    +0.000 A 
ENDBRANCH  14  15
ENDBRANCH   4  14
BRANCH   8  21
ATOM     21  C   UNL     1       4.711   4.814  16.327  0.00  0.00    +0.000 C 
BRANCH  21  22
ATOM     22  C   UNL     1       6.111   5.178  15.829  0.00  0.00    +0.000 C 
ATOM     23 CL   UNL     1       7.380   4.469  16.893  0.00  0.00    +0.000 Cl
BRANCH  22  24
ATOM     24  C   UNL     1       6.366   4.718  14.401  0.00  0.00    +0.000 A 
ATOM     25  C   UNL     1       7.461   5.229  13.684  0.00  0.00    +0.000 A 
ATOM     26  C   UNL     1       7.734   4.790  12.385  0.00  0.00    +0.000 A 
ATOM     27  C   UNL     1       6.916   3.838  11.782  0.00  0.00    +0.000 A 
ATOM     28  C   UNL     1       5.820   3.329  12.474  0.00  0.00    +0.000 A 
ATOM     29  C   UNL     1       5.545   3.765  13.772  0.00  0.00    +0.000 A 
ENDBRANCH  22  24
ENDBRANCH  21  22
ENDBRANCH   8  21
TORSDOF 6
ENDMDL
MODEL 6
REMARK VINA RESULT:      -8.5      3.479      6.004
REMARK  Name = 
REMARK  7 active torsions:
REMARK  status: ('A' for Active; 'I' for Inactive)
REMARK    1  A    between atoms: C_1  and  S_2
REMARK    2  A    between atoms: S_2  and  C_3
REMARK    3  A    between atoms: N_6  and  C_7
REMARK    4  A    between atoms: C_7  and  C_8
REMARK    5  A    between atoms: N_17  and  C_18
REMARK    6  A    between atoms: C_18  and  C_19
REMARK    7  A    between atoms: C_19  and  C_21
REMARK                            x       y       z     vdW  Elec       q    Type
REMARK                         _______ _______ _______ _____ _____    ______ ____
ROOT
ATOM      1  C   UNL     1       0.450   9.479  21.317  0.00  0.00    +0.000 A 
ATOM      2  N   UNL     1      -0.103  10.495  20.610  0.00  0.00    +0.000 NA
ATOM      3  C   UNL     1       0.266  10.677  19.321  0.00  0.00    +0.000 A 
ATOM      4  N   UNL     1      -0.271  11.683  18.525  0.00  0.00    +0.000 N 
ATOM      5  C   UNL     1       1.204   9.791  18.781  0.00  0.00    +0.000 A 
ATOM      6  C   UNL     1       1.838   9.577  17.541  0.00  0.00    +0.000 A 
ATOM      7  N   UNL     1       2.626   8.494  17.540  0.00  0.00    +0.000 NA
ATOM      8  N   UNL     1       2.498   8.017  18.802  0.00  0.00    +0.000 N 
ATOM      9  C   UNL     1       1.664   8.772  19.587  0.00  0.00    +0.000 A 
ATOM     10  N   UNL     1       1.328   8.560  20.867  0.00  0.00    +0.000 NA
ATOM     11  H   UNL     1       0.386  12.455  18.454  0.00  0.00    +0.000 HD
ENDROOT
BRANCH   1  13
ATOM     12  C   UNL     1      -1.170  10.769  23.119  0.00  0.00    +0.000 C 
ATOM     13  S   UNL     1      -0.055   9.343  23.022  0.00  0.00    +0.000 S 
ENDBRANCH   1  13
BRANCH   4  14
ATOM     14  C   UNL     1      -1.606  12.160  18.854  0.00  0.00    +0.000 C 
BRANCH  14  15
ATOM     15  C   UNL     1      -2.553  11.633  17.794  0.00  0.00    +0.000 A 
ATOM     16  C   UNL     1      -3.941  11.809  17.948  0.00  0.00    +0.000 A 
ATOM     17  C   UNL     1      -4.838  11.327  16.994  0.00  0.00    +0.000 A 
ATOM     18  C   UNL     1      -4.361  10.665  15.867  0.00  0.00    +0.000 A 
ATOM     19  C   UNL     1      -2.989  10.485  15.695  0.00  0.00    +0.000 A 
ATOM     20  C   UNL     1      -2.087  10.967  16.654  0.00  0.00    +0.000 A 
ENDBRANCH  14  15
ENDBRANCH   4  14
BRANCH   8  21
ATOM     21  C   UNL     1       3.114   6.752  19.156  0.00  0.00    +0.000 C 
BRANCH  21  22
ATOM     22  C   UNL     1       2.444   5.542  18.501  0.00  0.00    +0.000 C 
ATOM     23 CL   UNL     1       3.526   4.793  17.270  0.00  0.00    +0.000 Cl
BRANCH  22  24
ATOM     24  C   UNL     1       2.045   4.474  19.507  0.00  0.00    +0.000 A 
ATOM     25  C   UNL     1       1.252   3.388  19.100  0.00  0.00    +0.000 A 
ATOM     26  C   UNL     1       0.906   2.376  20.001  0.00  0.00    +0.000 A 
ATOM     27  C   UNL     1       1.345   2.436  21.321  0.00  0.00    +0.000 A 
ATOM     28  C   UNL     1       2.122   3.510  21.745  0.00  0.00    +0.000 A 
ATOM     29  C   UNL     1       2.469   4.522  20.847  0.00  0.00    +0.000 A 
ENDBRANCH  22  24
ENDBRANCH  21  22
ENDBRANCH   8  21
TORSDOF 6
ENDMDL
MODEL 7
REMARK VINA RESULT:      -8.5      1.738      2.875
REMARK  Name = 
REMARK  7 active torsions:
REMARK  status: ('A' for Active; 'I' for Inactive)
REMARK    1  A    between atoms: C_1  and  S_2
REMARK    2  A    between atoms: S_2  and  C_3
REMARK    3  A    between atoms: N_6  and  C_7
REMARK    4  A    between atoms: C_7  and  C_8
REMARK    5  A    between atoms: N_17  and  C_18
REMARK    6  A    between atoms: C_18  and  C_19
REMARK    7  A    between atoms: C_19  and  C_21
REMARK                            x       y       z     vdW  Elec       q    Type
REMARK                         _______ _______ _______ _____ _____    ______ ____
ROOT
ATOM      1  C   UNL     1       2.351   4.121  19.757  0.00  0.00    +0.000 A 
ATOM      2  N   UNL     1       1.878   5.209  20.413  0.00  0.00    +0.000 NA
ATOM      3  C   UNL     1       2.249   6.442  19.995  0.00  0.00    +0.000 A 
ATOM      4  N   UNL     1       1.791   7.605  20.603  0.00  0.00    +0.000 N 
ATOM      5  C   UNL     1       3.104   6.525  18.892  0.00  0.00    +0.000 A 
ATOM      6  C   UNL     1       3.706   7.537  18.118  0.00  0.00    +0.000 A 
ATOM      7  N   UNL     1       4.401   7.054  17.079  0.00  0.00    +0.000 NA
ATOM      8  N   UNL     1       4.245   5.713  17.201  0.00  0.00    +0.000 N 
ATOM      9  C   UNL     1       3.485   5.349  18.283  0.00  0.00    +0.000 A 
ATOM     10  N   UNL     1       3.144   4.110  18.666  0.00  0.00    +0.000 NA
ATOM     11  H   UNL     1       2.510   7.981  21.215  0.00  0.00    +0.000 HD
ENDROOT
BRANCH   1  13
ATOM     12  C   UNL     1       0.694   2.031  19.104  0.00  0.00    +0.000 C 
ATOM     13  S   UNL     1       1.852   2.536  20.404  0.00  0.00    +0.000 S 
ENDBRANCH   1  13
BRANCH   4  14
ATOM     14  C   UNL     1       0.504   7.549  21.280  0.00  0.00    +0.000 C 
BRANCH  14  15
ATOM     15  C   UNL     1       0.052   8.975  21.522  0.00  0.00    +0.000 A 
ATOM     16  C   UNL     1      -0.349   9.370  22.812  0.00  0.00    +0.000 A 
ATOM     17  C   UNL     1      -0.780  10.674  23.064  0.00  0.00    +0.000 A 
ATOM     18  C   UNL     1      -0.810  11.605  22.030  0.00  0.00    +0.000 A 
ATOM     19  C   UNL     1      -0.412  11.233  20.748  0.00  0.00    +0.000 A 
ATOM     20  C   UNL     1       0.018   9.924  20.492  0.00  0.00    +0.000 A 
ENDBRANCH  14  15
ENDBRANCH   4  14
BRANCH   8  21
ATOM     21  C   UNL     1       4.756   4.835  16.164  0.00  0.00    +0.000 C 
BRANCH  21  22
ATOM     22  C   UNL     1       6.186   5.170  15.732  0.00  0.00    +0.000 C 
ATOM     23 CL   UNL     1       7.388   4.437  16.855  0.00  0.00    +0.000 Cl
BRANCH  22  24
ATOM     24  C   UNL     1       6.498   4.702  14.319  0.00  0.00    +0.000 A 
ATOM     25  C   UNL     1       5.719   3.693  13.726  0.00  0.00    +0.000 A 
ATOM     26  C   UNL     1       5.965   3.276  12.414  0.00  0.00    +0.000 A 
ATOM     27  C   UNL     1       6.993   3.858  11.677  0.00  0.00    +0.000 A 
ATOM     28  C   UNL     1       7.782   4.851  12.251  0.00  0.00    +0.000 A 
ATOM     29  C   UNL     1       7.538   5.270  13.561  0.00  0.00    +0.000 A 
ENDBRANCH  22  24
ENDBRANCH  21  22
ENDBRANCH   8  21
TORSDOF 6
ENDMDL
MODEL 8
REMARK VINA RESULT:      -8.5      1.704      2.793
REMARK  Name = 
REMARK  7 active torsions:
REMARK  status: ('A' for Active; 'I' for Inactive)
REMARK    1  A    between atoms: C_1  and  S_2
REMARK    2  A    between atoms: S_2  and  C_3
REMARK    3  A    between atoms: N_6  and  C_7
REMARK    4  A    between atoms: C_7  and  C_8
REMARK    5  A    between atoms: N_17  and  C_18
REMARK    6  A    between atoms: C_18  and  C_19
REMARK    7  A    between atoms: C_19  and  C_21
REMARK                            x       y       z     vdW  Elec       q    Type
REMARK                         _______ _______ _______ _____ _____    ______ ____
ROOT
ATOM      1  C   UNL     1       2.236   4.093  19.637  0.00  0.00    +0.000 A 
ATOM      2  N   UNL     1       1.795   5.182  20.314  0.00  0.00    +0.000 NA
ATOM      3  C   UNL     1       2.226   6.409  19.940  0.00  0.00    +0.000 A 
ATOM      4  N   UNL     1       1.803   7.574  20.571  0.00  0.00    +0.000 N 
ATOM      5  C   UNL     1       3.108   6.487  18.857  0.00  0.00    +0.000 A 
ATOM      6  C   UNL     1       3.768   7.493  18.125  0.00  0.00    +0.000 A 
ATOM      7  N   UNL     1       4.464   7.010  17.088  0.00  0.00    +0.000 NA
ATOM      8  N   UNL     1       4.250   5.674  17.168  0.00  0.00    +0.000 N 
ATOM      9  C   UNL     1       3.453   5.313  18.223  0.00  0.00    +0.000 A 
ATOM     10  N   UNL     1       3.052   4.080  18.564  0.00  0.00    +0.000 NA
ATOM     11  H   UNL     1       2.523   7.902  21.208  0.00  0.00    +0.000 HD
ENDROOT
BRANCH   1  13
ATOM     12  C   UNL     1       1.833   2.779  22.013  0.00  0.00    +0.000 C 
ATOM     13  S   UNL     1       1.658   2.514  20.229  0.00  0.00    +0.000 S 
ENDBRANCH   1  13
BRANCH   4  14
ATOM     14  C   UNL     1       0.500   7.552  21.219  0.00  0.00    +0.000 C 
BRANCH  14  15
ATOM     15  C   UNL     1       0.118   8.988  21.522  0.00  0.00    +0.000 A 
ATOM     16  C   UNL     1      -0.449   9.310  22.769  0.00  0.00    +0.000 A 
ATOM     17  C   UNL     1      -0.821  10.621  23.074  0.00  0.00    +0.000 A 
ATOM     18  C   UNL     1      -0.626  11.631  22.137  0.00  0.00    +0.000 A 
ATOM     19  C   UNL     1      -0.062  11.331  20.898  0.00  0.00    +0.000 A 
ATOM     20  C   UNL     1       0.310  10.015  20.589  0.00  0.00    +0.000 A 
ENDBRANCH  14  15
ENDBRANCH   4  14
BRANCH   8  21
ATOM     21  C   UNL     1       4.748   4.805  16.117  0.00  0.00    +0.000 C 
BRANCH  21  22
ATOM     22  C   UNL     1       6.170   5.145  15.666  0.00  0.00    +0.000 C 
ATOM     23 CL   UNL     1       7.391   4.378  16.747  0.00  0.00    +0.000 Cl
BRANCH  22  24
ATOM     24  C   UNL     1       6.452   4.713  14.236  0.00  0.00    +0.000 A 
ATOM     25  C   UNL     1       7.515   5.294  13.523  0.00  0.00    +0.000 A 
ATOM     26  C   UNL     1       7.815   4.883  12.221  0.00  0.00    +0.000 A 
ATOM     27  C   UNL     1       7.056   3.888  11.610  0.00  0.00    +0.000 A 
ATOM     28  C   UNL     1       5.993   3.308  12.297  0.00  0.00    +0.000 A 
ATOM     29  C   UNL     1       5.692   3.716  13.598  0.00  0.00    +0.000 A 
ENDBRANCH  22  24
ENDBRANCH  21  22
ENDBRANCH   8  21
TORSDOF 6
ENDMDL
MODEL 9
REMARK VINA RESULT:      -8.4      3.435      5.129
REMARK  Name = 
REMARK  7 active torsions:
REMARK  status: ('A' for Active; 'I' for Inactive)
REMARK    1  A    between atoms: C_1  and  S_2
REMARK    2  A    between atoms: S_2  and  C_3
REMARK    3  A    between atoms: N_6  and  C_7
REMARK    4  A    between atoms: C_7  and  C_8
REMARK    5  A    between atoms: N_17  and  C_18
REMARK    6  A    between atoms: C_18  and  C_19
REMARK    7  A    between atoms: C_19  and  C_21
REMARK                            x       y       z     vdW  Elec       q    Type
REMARK                         _______ _______ _______ _____ _____    ______ ____
ROOT
ATOM      1  C   UNL     1       0.606   9.161  21.520  0.00  0.00    +0.000 A 
ATOM      2  N   UNL     1       0.108  10.072  20.649  0.00  0.00    +0.000 NA
ATOM      3  C   UNL     1       0.478  10.011  19.349  0.00  0.00    +0.000 A 
ATOM      4  N   UNL     1      -0.006  10.896  18.392  0.00  0.00    +0.000 N 
ATOM      5  C   UNL     1       1.361   8.994  18.971  0.00  0.00    +0.000 A 
ATOM      6  C   UNL     1       1.973   8.536  17.787  0.00  0.00    +0.000 A 
ATOM      7  N   UNL     1       2.698   7.426  17.972  0.00  0.00    +0.000 NA
ATOM      8  N   UNL     1       2.551   7.178  19.297  0.00  0.00    +0.000 N 
ATOM      9  C   UNL     1       1.767   8.102  19.940  0.00  0.00    +0.000 A 
ATOM     10  N   UNL     1       1.427   8.129  21.236  0.00  0.00    +0.000 NA
ATOM     11  H   UNL     1       0.694  11.606  18.193  0.00  0.00    +0.000 HD
ENDROOT
BRANCH   1  13
ATOM     12  C   UNL     1      -1.039  10.741  23.048  0.00  0.00    +0.000 C 
ATOM     13  S   UNL     1       0.105   9.345  23.221  0.00  0.00    +0.000 S 
ENDBRANCH   1  13
BRANCH   4  14
ATOM     14  C   UNL     1      -1.309  11.498  18.630  0.00  0.00    +0.000 C 
BRANCH  14  15
ATOM     15  C   UNL     1      -2.231  11.045  17.516  0.00  0.00    +0.000 A 
ATOM     16  C   UNL     1      -3.505  11.630  17.383  0.00  0.00    +0.000 A 
ATOM     17  C   UNL     1      -4.380  11.227  16.374  0.00  0.00    +0.000 A 
ATOM     18  C   UNL     1      -3.994  10.235  15.477  0.00  0.00    +0.000 A 
ATOM     19  C   UNL     1      -2.735   9.648  15.591  0.00  0.00    +0.000 A 
ATOM     20  C   UNL     1      -1.855  10.049  16.605  0.00  0.00    +0.000 A 
ENDBRANCH  14  15
ENDBRANCH   4  14
BRANCH   8  21
ATOM     21  C   UNL     1       3.097   5.958  19.863  0.00  0.00    +0.000 C 
BRANCH  21  22
ATOM     22  C   UNL     1       3.087   4.776  18.890  0.00  0.00    +0.000 C 
ATOM     23 CL   UNL     1       1.678   4.872  17.772  0.00  0.00    +0.000 Cl
BRANCH  22  24
ATOM     24  C   UNL     1       4.358   4.688  18.060  0.00  0.00    +0.000 A 
ATOM     25  C   UNL     1       5.598   5.005  18.639  0.00  0.00    +0.000 A 
ATOM     26  C   UNL     1       6.782   4.893  17.904  0.00  0.00    +0.000 A 
ATOM     27  C   UNL     1       6.745   4.466  16.579  0.00  0.00    +0.000 A 
ATOM     28  C   UNL     1       5.524   4.158  15.985  0.00  0.00    +0.000 A 
ATOM     29  C   UNL     1       4.339   4.269  16.718  0.00  0.00    +0.000 A 
ENDBRANCH  22  24
ENDBRANCH  21  22
ENDBRANCH   8  21
TORSDOF 6
ENDMDL
