MODEL 1
REMARK VINA RESULT:      -6.9      0.000      0.000
REMARK  Name = 
REMARK  16 active torsions:
REMARK  status: ('A' for Active; 'I' for Inactive)
REMARK    1  A    between atoms: C_1  and  C_2
REMARK    2  A    between atoms: C_2  and  N_3
REMARK    3  A    between atoms: N_3  and  C_4
REMARK    4  A    between atoms: N_3  and  C_6
REMARK    5  A    between atoms: C_4  and  C_5
REMARK    6  A    between atoms: C_9  and  C_10
REMARK    7  A    between atoms: C_15  and  C_16
REMARK    8  A    between atoms: C_19  and  N_20
REMARK    9  A    between atoms: N_20  and  C_21
REMARK   10  A    between atoms: N_20  and  C_26
REMARK   11  A    between atoms: C_21  and  C_22
REMARK   12  A    between atoms: C_22  and  C_23
REMARK   13  A    between atoms: C_23  and  O_25
REMARK   14  A    between atoms: C_26  and  C_27
REMARK   15  A    between atoms: C_27  and  C_28
REMARK   16  A    between atoms: C_28  and  O_30
REMARK                            x       y       z     vdW  Elec       q    Type
REMARK                         _______ _______ _______ _____ _____    ______ ____
ROOT
ATOM      1  C   UNL     1      -1.991  12.197  19.706  0.00  0.00    +0.000 C 
ATOM      2  C   UNL     1      -0.927  11.385  19.672  0.00  0.00    +0.000 C 
ATOM      3  C   UNL     1       0.063  11.064  20.750  0.00  0.00    +0.000 C 
ATOM      4  C   UNL     1       1.062  10.080  20.137  0.00  0.00    +0.000 C 
ATOM      5  C   UNL     1       0.561   9.772  18.761  0.00  0.00    +0.000 C 
ATOM      6  C   UNL     1       0.980   8.853  17.880  0.00  0.00    +0.000 C 
ATOM      7  C   UNL     1      -0.601  10.629  18.446  0.00  0.00    +0.000 C 
ATOM      8  O   UNL     1      -1.189  10.686  17.381  0.00  0.00    +0.000 OA
ENDROOT
BRANCH   1  12
ATOM      9  C   UNL     1      -2.947  14.422  23.251  0.00  0.00    +0.000 A 
ATOM     10  C   UNL     1      -1.837  14.741  22.452  0.00  0.00    +0.000 A 
ATOM     11  C   UNL     1      -1.531  14.025  21.293  0.00  0.00    +0.000 A 
ATOM     12  C   UNL     1      -2.343  12.968  20.892  0.00  0.00    +0.000 A 
ATOM     13  C   UNL     1      -3.466  12.642  21.649  0.00  0.00    +0.000 A 
ATOM     14  C   UNL     1      -3.758  13.361  22.814  0.00  0.00    +0.000 A 
BRANCH   9  15
ATOM     15  N   UNL     1      -3.218  15.125  24.417  0.00  0.00    +0.000 N 
BRANCH  15  17
ATOM     16  C   UNL     1      -4.287  17.178  23.527  0.00  0.00    +0.000 C 
ATOM     17  C   UNL     1      -4.395  15.998  24.481  0.00  0.00    +0.000 C 
ENDBRANCH  15  17
BRANCH  15  18
ATOM     18  C   UNL     1      -2.408  14.939  25.622  0.00  0.00    +0.000 C 
ATOM     19  C   UNL     1      -1.549  16.169  25.892  0.00  0.00    +0.000 C 
ENDBRANCH  15  18
ENDBRANCH   9  15
ENDBRANCH   1  12
BRANCH   6  20
ATOM     20  C   UNL     1       2.062   7.919  18.165  0.00  0.00    +0.000 A 
ATOM     21  C   UNL     1       3.147   7.814  17.295  0.00  0.00    +0.000 A 
ATOM     22  C   UNL     1       4.176   6.896  17.551  0.00  0.00    +0.000 A 
ATOM     23  C   UNL     1       4.168   6.064  18.682  0.00  0.00    +0.000 A 
ATOM     24  C   UNL     1       3.069   6.218  19.550  0.00  0.00    +0.000 A 
ATOM     25  C   UNL     1       2.024   7.115  19.295  0.00  0.00    +0.000 A 
BRANCH  23  26
ATOM     26  N   UNL     1       5.166   5.120  18.914  0.00  0.00    +0.000 N 
BRANCH  26  27
ATOM     27  C   UNL     1       6.591   5.511  19.029  0.00  0.00    +0.000 C 
BRANCH  27  28
ATOM     28  C   UNL     1       7.482   4.719  18.072  0.00  0.00    +0.000 C 
BRANCH  28  29
ATOM     29  C   UNL     1       7.106   4.991  16.638  0.00  0.00    +0.000 C 
ATOM     30  O   UNL     1       6.531   4.209  15.897  0.00  0.00    +0.000 OA
BRANCH  29  31
ATOM     31  O   UNL     1       7.477   6.228  16.229  0.00  0.00    +0.000 OA
ATOM     32  H   UNL     1       8.253   6.587  16.701  0.00  0.00    +0.000 HD
ENDBRANCH  29  31
ENDBRANCH  28  29
ENDBRANCH  27  28
ENDBRANCH  26  27
BRANCH  26  33
ATOM     33  C   UNL     1       4.824   3.733  19.293  0.00  0.00    +0.000 C 
BRANCH  33  34
ATOM     34  C   UNL     1       3.953   3.051  18.232  0.00  0.00    +0.000 C 
BRANCH  34  35
ATOM     35  C   UNL     1       2.685   2.533  18.852  0.00  0.00    +0.000 C 
ATOM     36  O   UNL     1       1.715   2.119  18.231  0.00  0.00    +0.000 OA
BRANCH  35  37
ATOM     37  O   UNL     1       2.716   2.560  20.205  0.00  0.00    +0.000 OA
ATOM     38  H   UNL     1       1.858   2.773  20.618  0.00  0.00    +0.000 HD
ENDBRANCH  35  37
ENDBRANCH  34  35
ENDBRANCH  33  34
ENDBRANCH  26  33
ENDBRANCH  23  26
ENDBRANCH   6  20
TORSDOF 14
ENDMDL
MODEL 2
REMARK VINA RESULT:      -6.8      2.225      3.022
REMARK  Name = 
REMARK  16 active torsions:
REMARK  status: ('A' for Active; 'I' for Inactive)
REMARK    1  A    between atoms: C_1  and  C_2
REMARK    2  A    between atoms: C_2  and  N_3
REMARK    3  A    between atoms: N_3  and  C_4
REMARK    4  A    between atoms: N_3  and  C_6
REMARK    5  A    between atoms: C_4  and  C_5
REMARK    6  A    between atoms: C_9  and  C_10
REMARK    7  A    between atoms: C_15  and  C_16
REMARK    8  A    between atoms: C_19  and  N_20
REMARK    9  A    between atoms: N_20  and  C_21
REMARK   10  A    between atoms: N_20  and  C_26
REMARK   11  A    between atoms: C_21  and  C_22
REMARK   12  A    between atoms: C_22  and  C_23
REMARK   13  A    between atoms: C_23  and  O_25
REMARK   14  A    between atoms: C_26  and  C_27
REMARK   15  A    between atoms: C_27  and  C_28
REMARK   16  A    between atoms: C_28  and  O_30
REMARK                            x       y       z     vdW  Elec       q    Type
REMARK                         _______ _______ _______ _____ _____    ______ ____
ROOT
ATOM      1  C   UNL     1      -1.066  12.026  22.605  0.00  0.00    +0.000 C 
ATOM      2  C   UNL     1      -0.464  11.174  21.764  0.00  0.00    +0.000 C 
ATOM      3  C   UNL     1       0.003  11.392  20.358  0.00  0.00    +0.000 C 
ATOM      4  C   UNL     1       0.609  10.065  19.895  0.00  0.00    +0.000 C 
ATOM      5  C   UNL     1       0.580   9.153  21.080  0.00  0.00    +0.000 C 
ATOM      6  C   UNL     1       1.134   7.944  21.247  0.00  0.00    +0.000 C 
ATOM      7  C   UNL     1      -0.150   9.797  22.192  0.00  0.00    +0.000 C 
ATOM      8  O   UNL     1      -0.422   9.291  23.266  0.00  0.00    +0.000 OA
ENDROOT
BRANCH   1  12
ATOM      9  C   UNL     1      -2.044  16.019  21.368  0.00  0.00    +0.000 A 
ATOM     10  C   UNL     1      -2.944  14.953  21.212  0.00  0.00    +0.000 A 
ATOM     11  C   UNL     1      -2.632  13.656  21.623  0.00  0.00    +0.000 A 
ATOM     12  C   UNL     1      -1.402  13.391  22.219  0.00  0.00    +0.000 A 
ATOM     13  C   UNL     1      -0.497  14.432  22.412  0.00  0.00    +0.000 A 
ATOM     14  C   UNL     1      -0.817  15.726  21.987  0.00  0.00    +0.000 A 
BRANCH   9  15
ATOM     15  N   UNL     1      -2.359  17.296  20.925  0.00  0.00    +0.000 N 
BRANCH  15  17
ATOM     16  C   UNL     1      -4.489  18.390  20.281  0.00  0.00    +0.000 C 
ATOM     17  C   UNL     1      -3.574  17.955  21.416  0.00  0.00    +0.000 C 
ENDBRANCH  15  17
BRANCH  15  18
ATOM     18  C   UNL     1      -1.453  18.043  20.050  0.00  0.00    +0.000 C 
ATOM     19  C   UNL     1      -1.283  17.332  18.713  0.00  0.00    +0.000 C 
ENDBRANCH  15  18
ENDBRANCH   9  15
ENDBRANCH   1  12
BRANCH   6  20
ATOM     20  C   UNL     1       1.939   7.293  20.221  0.00  0.00    +0.000 A 
ATOM     21  C   UNL     1       2.111   7.895  18.975  0.00  0.00    +0.000 A 
ATOM     22  C   UNL     1       2.862   7.259  17.976  0.00  0.00    +0.000 A 
ATOM     23  C   UNL     1       3.477   6.014  18.186  0.00  0.00    +0.000 A 
ATOM     24  C   UNL     1       3.303   5.450  19.465  0.00  0.00    +0.000 A 
ATOM     25  C   UNL     1       2.537   6.064  20.464  0.00  0.00    +0.000 A 
BRANCH  23  26
ATOM     26  N   UNL     1       4.185   5.359  17.180  0.00  0.00    +0.000 N 
BRANCH  26  27
ATOM     27  C   UNL     1       5.178   6.073  16.342  0.00  0.00    +0.000 C 
BRANCH  27  28
ATOM     28  C   UNL     1       5.663   5.214  15.174  0.00  0.00    +0.000 C 
BRANCH  28  29
ATOM     29  C   UNL     1       7.154   5.002  15.244  0.00  0.00    +0.000 C 
ATOM     30  O   UNL     1       7.748   4.457  16.160  0.00  0.00    +0.000 OA
BRANCH  29  31
ATOM     31  O   UNL     1       7.799   5.490  14.157  0.00  0.00    +0.000 OA
ATOM     32  H   UNL     1       7.208   5.873  13.481  0.00  0.00    +0.000 HD
ENDBRANCH  29  31
ENDBRANCH  28  29
ENDBRANCH  27  28
ENDBRANCH  26  27
BRANCH  26  33
ATOM     33  C   UNL     1       4.155   3.886  17.068  0.00  0.00    +0.000 C 
BRANCH  33  34
ATOM     34  C   UNL     1       2.725   3.339  17.132  0.00  0.00    +0.000 C 
BRANCH  34  35
ATOM     35  C   UNL     1       2.656   2.167  18.071  0.00  0.00    +0.000 C 
ATOM     36  O   UNL     1       1.666   1.831  18.707  0.00  0.00    +0.000 OA
BRANCH  35  37
ATOM     37  O   UNL     1       3.825   1.490  18.147  0.00  0.00    +0.000 OA
ATOM     38  H   UNL     1       4.014   0.934  17.367  0.00  0.00    +0.000 HD
ENDBRANCH  35  37
ENDBRANCH  34  35
ENDBRANCH  33  34
ENDBRANCH  26  33
ENDBRANCH  23  26
ENDBRANCH   6  20
TORSDOF 14
ENDMDL
MODEL 3
REMARK VINA RESULT:      -6.8      1.640      2.223
REMARK  Name = 
REMARK  16 active torsions:
REMARK  status: ('A' for Active; 'I' for Inactive)
REMARK    1  A    between atoms: C_1  and  C_2
REMARK    2  A    between atoms: C_2  and  N_3
REMARK    3  A    between atoms: N_3  and  C_4
REMARK    4  A    between atoms: N_3  and  C_6
REMARK    5  A    between atoms: C_4  and  C_5
REMARK    6  A    between atoms: C_9  and  C_10
REMARK    7  A    between atoms: C_15  and  C_16
REMARK    8  A    between atoms: C_19  and  N_20
REMARK    9  A    between atoms: N_20  and  C_21
REMARK   10  A    between atoms: N_20  and  C_26
REMARK   11  A    between atoms: C_21  and  C_22
REMARK   12  A    between atoms: C_22  and  C_23
REMARK   13  A    between atoms: C_23  and  O_25
REMARK   14  A    between atoms: C_26  and  C_27
REMARK   15  A    between atoms: C_27  and  C_28
REMARK   16  A    between atoms: C_28  and  O_30
REMARK                            x       y       z     vdW  Elec       q    Type
REMARK                         _______ _______ _______ _____ _____    ______ ____
ROOT
ATOM      1  C   UNL     1      -1.010  12.697  19.861  0.00  0.00    +0.000 C 
ATOM      2  C   UNL     1      -0.322  11.551  19.773  0.00  0.00    +0.000 C 
ATOM      3  C   UNL     1      -0.476  10.283  20.556  0.00  0.00    +0.000 C 
ATOM      4  C   UNL     1       0.586   9.318  20.025  0.00  0.00    +0.000 C 
ATOM      5  C   UNL     1       1.248  10.010  18.876  0.00  0.00    +0.000 C 
ATOM      6  C   UNL     1       2.124   9.538  17.978  0.00  0.00    +0.000 C 
ATOM      7  C   UNL     1       0.756  11.400  18.776  0.00  0.00    +0.000 C 
ATOM      8  O   UNL     1       1.153  12.252  18.002  0.00  0.00    +0.000 OA
ENDROOT
BRANCH   1  12
ATOM      9  C   UNL     1      -4.162  13.366  22.697  0.00  0.00    +0.000 A 
ATOM     10  C   UNL     1      -4.424  13.158  21.334  0.00  0.00    +0.000 A 
ATOM     11  C   UNL     1      -3.401  12.930  20.411  0.00  0.00    +0.000 A 
ATOM     12  C   UNL     1      -2.075  12.891  20.836  0.00  0.00    +0.000 A 
ATOM     13  C   UNL     1      -1.785  13.068  22.187  0.00  0.00    +0.000 A 
ATOM     14  C   UNL     1      -2.818  13.305  23.100  0.00  0.00    +0.000 A 
BRANCH   9  15
ATOM     15  N   UNL     1      -5.190  13.622  23.594  0.00  0.00    +0.000 N 
BRANCH  15  17
ATOM     16  C   UNL     1      -4.619  15.938  24.274  0.00  0.00    +0.000 C 
ATOM     17  C   UNL     1      -5.690  14.992  23.753  0.00  0.00    +0.000 C 
ENDBRANCH  15  17
BRANCH  15  18
ATOM     18  C   UNL     1      -5.856  12.538  24.319  0.00  0.00    +0.000 C 
ATOM     19  C   UNL     1      -7.302  12.390  23.862  0.00  0.00    +0.000 C 
ENDBRANCH  15  18
ENDBRANCH   9  15
ENDBRANCH   1  12
BRANCH   6  20
ATOM     20  C   UNL     1       2.580   8.154  17.969  0.00  0.00    +0.000 A 
ATOM     21  C   UNL     1       3.931   7.860  17.788  0.00  0.00    +0.000 A 
ATOM     22  C   UNL     1       4.370   6.529  17.751  0.00  0.00    +0.000 A 
ATOM     23  C   UNL     1       3.486   5.449  17.906  0.00  0.00    +0.000 A 
ATOM     24  C   UNL     1       2.135   5.786  18.113  0.00  0.00    +0.000 A 
ATOM     25  C   UNL     1       1.680   7.110  18.130  0.00  0.00    +0.000 A 
BRANCH  23  26
ATOM     26  N   UNL     1       3.914   4.125  17.823  0.00  0.00    +0.000 N 
BRANCH  26  27
ATOM     27  C   UNL     1       5.295   3.781  17.408  0.00  0.00    +0.000 C 
BRANCH  27  28
ATOM     28  C   UNL     1       5.489   3.915  15.898  0.00  0.00    +0.000 C 
BRANCH  28  29
ATOM     29  C   UNL     1       6.791   4.605  15.581  0.00  0.00    +0.000 C 
ATOM     30  O   UNL     1       7.821   4.501  16.228  0.00  0.00    +0.000 OA
BRANCH  29  31
ATOM     31  O   UNL     1       6.713   5.377  14.472  0.00  0.00    +0.000 OA
ATOM     32  H   UNL     1       5.929   5.959  14.446  0.00  0.00    +0.000 HD
ENDBRANCH  29  31
ENDBRANCH  28  29
ENDBRANCH  27  28
ENDBRANCH  26  27
BRANCH  26  33
ATOM     33  C   UNL     1       3.093   3.028  18.376  0.00  0.00    +0.000 C 
BRANCH  33  34
ATOM     34  C   UNL     1       3.378   2.797  19.864  0.00  0.00    +0.000 C 
BRANCH  34  35
ATOM     35  C   UNL     1       2.095   2.795  20.647  0.00  0.00    +0.000 C 
ATOM     36  O   UNL     1       0.990   3.053  20.189  0.00  0.00    +0.000 OA
BRANCH  35  37
ATOM     37  O   UNL     1       2.276   2.465  21.946  0.00  0.00    +0.000 OA
ATOM     38  H   UNL     1       2.223   1.506  22.124  0.00  0.00    +0.000 HD
ENDBRANCH  35  37
ENDBRANCH  34  35
ENDBRANCH  33  34
ENDBRANCH  26  33
ENDBRANCH  23  26
ENDBRANCH   6  20
TORSDOF 14
ENDMDL
MODEL 4
REMARK VINA RESULT:      -6.7      0.752      2.957
REMARK  Name = 
REMARK  16 active torsions:
REMARK  status: ('A' for Active; 'I' for Inactive)
REMARK    1  A    between atoms: C_1  and  C_2
REMARK    2  A    between atoms: C_2  and  N_3
REMARK    3  A    between atoms: N_3  and  C_4
REMARK    4  A    between atoms: N_3  and  C_6
REMARK    5  A    between atoms: C_4  and  C_5
REMARK    6  A    between atoms: C_9  and  C_10
REMARK    7  A    between atoms: C_15  and  C_16
REMARK    8  A    between atoms: C_19  and  N_20
REMARK    9  A    between atoms: N_20  and  C_21
REMARK   10  A    between atoms: N_20  and  C_26
REMARK   11  A    between atoms: C_21  and  C_22
REMARK   12  A    between atoms: C_22  and  C_23
REMARK   13  A    between atoms: C_23  and  O_25
REMARK   14  A    between atoms: C_26  and  C_27
REMARK   15  A    between atoms: C_27  and  C_28
REMARK   16  A    between atoms: C_28  and  O_30
REMARK                            x       y       z     vdW  Elec       q    Type
REMARK                         _______ _______ _______ _____ _____    ______ ____
ROOT
ATOM      1  C   UNL     1      -2.088  12.204  19.280  0.00  0.00    +0.000 C 
ATOM      2  C   UNL     1      -1.017  11.400  19.292  0.00  0.00    +0.000 C 
ATOM      3  C   UNL     1       0.038  11.233  20.342  0.00  0.00    +0.000 C 
ATOM      4  C   UNL     1       1.013  10.181  19.809  0.00  0.00    +0.000 C 
ATOM      5  C   UNL     1       0.436   9.686  18.520  0.00  0.00    +0.000 C 
ATOM      6  C   UNL     1       0.815   8.659  17.748  0.00  0.00    +0.000 C 
ATOM      7  C   UNL     1      -0.754  10.487  18.162  0.00  0.00    +0.000 C 
ATOM      8  O   UNL     1      -1.404  10.396  17.137  0.00  0.00    +0.000 OA
ENDROOT
BRANCH   1  12
ATOM      9  C   UNL     1      -3.029  14.960  22.434  0.00  0.00    +0.000 A 
ATOM     10  C   UNL     1      -3.813  13.822  22.186  0.00  0.00    +0.000 A 
ATOM     11  C   UNL     1      -3.503  12.919  21.167  0.00  0.00    +0.000 A 
ATOM     12  C   UNL     1      -2.380  13.127  20.370  0.00  0.00    +0.000 A 
ATOM     13  C   UNL     1      -1.567  14.233  20.607  0.00  0.00    +0.000 A 
ATOM     14  C   UNL     1      -1.894  15.136  21.625  0.00  0.00    +0.000 A 
BRANCH   9  15
ATOM     15  N   UNL     1      -3.370  15.863  23.431  0.00  0.00    +0.000 N 
BRANCH  15  17
ATOM     16  C   UNL     1      -5.735  16.127  24.132  0.00  0.00    +0.000 C 
ATOM     17  C   UNL     1      -4.587  16.670  23.294  0.00  0.00    +0.000 C 
ENDBRANCH  15  17
BRANCH  15  18
ATOM     18  C   UNL     1      -2.593  15.961  24.668  0.00  0.00    +0.000 C 
ATOM     19  C   UNL     1      -2.707  14.677  25.482  0.00  0.00    +0.000 C 
ENDBRANCH  15  18
ENDBRANCH   9  15
ENDBRANCH   1  12
BRANCH   6  20
ATOM     20  C   UNL     1       1.923   7.777  18.090  0.00  0.00    +0.000 A 
ATOM     21  C   UNL     1       3.102   7.808  17.346  0.00  0.00    +0.000 A 
ATOM     22  C   UNL     1       4.161   6.942  17.656  0.00  0.00    +0.000 A 
ATOM     23  C   UNL     1       4.088   6.028  18.719  0.00  0.00    +0.000 A 
ATOM     24  C   UNL     1       2.893   6.044  19.463  0.00  0.00    +0.000 A 
ATOM     25  C   UNL     1       1.820   6.888  19.151  0.00  0.00    +0.000 A 
BRANCH  23  26
ATOM     26  N   UNL     1       5.121   5.135  18.999  0.00  0.00    +0.000 N 
BRANCH  26  27
ATOM     27  C   UNL     1       4.923   3.669  18.910  0.00  0.00    +0.000 C 
BRANCH  27  28
ATOM     28  C   UNL     1       4.241   3.261  17.604  0.00  0.00    +0.000 C 
BRANCH  28  29
ATOM     29  C   UNL     1       2.953   2.525  17.875  0.00  0.00    +0.000 C 
ATOM     30  O   UNL     1       1.834   2.947  17.631  0.00  0.00    +0.000 OA
BRANCH  29  31
ATOM     31  O   UNL     1       3.158   1.309  18.435  0.00  0.00    +0.000 OA
ATOM     32  H   UNL     1       2.342   0.787  18.561  0.00  0.00    +0.000 HD
ENDBRANCH  29  31
ENDBRANCH  28  29
ENDBRANCH  27  28
ENDBRANCH  26  27
BRANCH  26  33
ATOM     33  C   UNL     1       6.512   5.610  19.156  0.00  0.00    +0.000 C 
BRANCH  33  34
ATOM     34  C   UNL     1       7.463   4.923  18.170  0.00  0.00    +0.000 C 
BRANCH  34  35
ATOM     35  C   UNL     1       7.332   5.535  16.804  0.00  0.00    +0.000 C 
ATOM     36  O   UNL     1       7.583   6.701  16.528  0.00  0.00    +0.000 OA
BRANCH  35  37
ATOM     37  O   UNL     1       6.903   4.651  15.874  0.00  0.00    +0.000 OA
ATOM     38  H   UNL     1       5.940   4.677  15.714  0.00  0.00    +0.000 HD
ENDBRANCH  35  37
ENDBRANCH  34  35
ENDBRANCH  33  34
ENDBRANCH  26  33
ENDBRANCH  23  26
ENDBRANCH   6  20
TORSDOF 14
ENDMDL
MODEL 5
REMARK VINA RESULT:      -6.7      1.777      3.706
REMARK  Name = 
REMARK  16 active torsions:
REMARK  status: ('A' for Active; 'I' for Inactive)
REMARK    1  A    between atoms: C_1  and  C_2
REMARK    2  A    between atoms: C_2  and  N_3
REMARK    3  A    between atoms: N_3  and  C_4
REMARK    4  A    between atoms: N_3  and  C_6
REMARK    5  A    between atoms: C_4  and  C_5
REMARK    6  A    between atoms: C_9  and  C_10
REMARK    7  A    between atoms: C_15  and  C_16
REMARK    8  A    between atoms: C_19  and  N_20
REMARK    9  A    between atoms: N_20  and  C_21
REMARK   10  A    between atoms: N_20  and  C_26
REMARK   11  A    between atoms: C_21  and  C_22
REMARK   12  A    between atoms: C_22  and  C_23
REMARK   13  A    between atoms: C_23  and  O_25
REMARK   14  A    between atoms: C_26  and  C_27
REMARK   15  A    between atoms: C_27  and  C_28
REMARK   16  A    between atoms: C_28  and  O_30
REMARK                            x       y       z     vdW  Elec       q    Type
REMARK                         _______ _______ _______ _____ _____    ______ ____
ROOT
ATOM      1  C   UNL     1      -1.235  13.086  19.666  0.00  0.00    +0.000 C 
ATOM      2  C   UNL     1      -0.569  11.924  19.697  0.00  0.00    +0.000 C 
ATOM      3  C   UNL     1      -0.852  10.684  20.487  0.00  0.00    +0.000 C 
ATOM      4  C   UNL     1       0.246   9.682  20.122  0.00  0.00    +0.000 C 
ATOM      5  C   UNL     1       1.065  10.326  19.050  0.00  0.00    +0.000 C 
ATOM      6  C   UNL     1       2.036   9.811  18.284  0.00  0.00    +0.000 C 
ATOM      7  C   UNL     1       0.623  11.723  18.850  0.00  0.00    +0.000 C 
ATOM      8  O   UNL     1       1.136  12.544  18.112  0.00  0.00    +0.000 OA
ENDROOT
BRANCH   1  12
ATOM      9  C   UNL     1      -4.657  13.744  22.174  0.00  0.00    +0.000 A 
ATOM     10  C   UNL     1      -3.422  14.361  22.428  0.00  0.00    +0.000 A 
ATOM     11  C   UNL     1      -2.311  14.157  21.608  0.00  0.00    +0.000 A 
ATOM     12  C   UNL     1      -2.411  13.330  20.492  0.00  0.00    +0.000 A 
ATOM     13  C   UNL     1      -3.630  12.723  20.197  0.00  0.00    +0.000 A 
ATOM     14  C   UNL     1      -4.734  12.928  21.033  0.00  0.00    +0.000 A 
BRANCH   9  15
ATOM     15  N   UNL     1      -5.742  13.934  23.018  0.00  0.00    +0.000 N 
BRANCH  15  17
ATOM     16  C   UNL     1      -6.164  16.173  22.039  0.00  0.00    +0.000 C 
ATOM     17  C   UNL     1      -6.764  14.928  22.675  0.00  0.00    +0.000 C 
ENDBRANCH  15  17
BRANCH  15  18
ATOM     18  C   UNL     1      -5.942  13.094  24.201  0.00  0.00    +0.000 C 
ATOM     19  C   UNL     1      -4.649  12.386  24.587  0.00  0.00    +0.000 C 
ENDBRANCH  15  18
ENDBRANCH   9  15
ENDBRANCH   1  12
BRANCH   6  20
ATOM     20  C   UNL     1       2.457   8.418  18.370  0.00  0.00    +0.000 A 
ATOM     21  C   UNL     1       2.125   7.651  19.486  0.00  0.00    +0.000 A 
ATOM     22  C   UNL     1       2.552   6.318  19.585  0.00  0.00    +0.000 A 
ATOM     23  C   UNL     1       3.310   5.703  18.576  0.00  0.00    +0.000 A 
ATOM     24  C   UNL     1       3.603   6.501  17.453  0.00  0.00    +0.000 A 
ATOM     25  C   UNL     1       3.202   7.839  17.352  0.00  0.00    +0.000 A 
BRANCH  23  26
ATOM     26  N   UNL     1       3.774   4.394  18.694  0.00  0.00    +0.000 N 
BRANCH  26  27
ATOM     27  C   UNL     1       2.842   3.243  18.743  0.00  0.00    +0.000 C 
BRANCH  27  28
ATOM     28  C   UNL     1       2.926   2.494  20.073  0.00  0.00    +0.000 C 
BRANCH  28  29
ATOM     29  C   UNL     1       1.903   3.014  21.050  0.00  0.00    +0.000 C 
ATOM     30  O   UNL     1       2.132   3.350  22.201  0.00  0.00    +0.000 OA
BRANCH  29  31
ATOM     31  O   UNL     1       0.660   3.080  20.515  0.00  0.00    +0.000 OA
ATOM     32  H   UNL     1       0.489   2.412  19.824  0.00  0.00    +0.000 HD
ENDBRANCH  29  31
ENDBRANCH  28  29
ENDBRANCH  27  28
ENDBRANCH  26  27
BRANCH  26  33
ATOM     33  C   UNL     1       5.209   4.081  18.530  0.00  0.00    +0.000 C 
BRANCH  33  34
ATOM     34  C   UNL     1       6.100   5.114  19.229  0.00  0.00    +0.000 C 
BRANCH  34  35
ATOM     35  C   UNL     1       7.339   5.370  18.416  0.00  0.00    +0.000 C 
ATOM     36  O   UNL     1       7.842   4.577  17.632  0.00  0.00    +0.000 OA
BRANCH  35  37
ATOM     37  O   UNL     1       7.861   6.599  18.632  0.00  0.00    +0.000 OA
ATOM     38  H   UNL     1       7.720   6.937  19.538  0.00  0.00    +0.000 HD
ENDBRANCH  35  37
ENDBRANCH  34  35
ENDBRANCH  33  34
ENDBRANCH  26  33
ENDBRANCH  23  26
ENDBRANCH   6  20
TORSDOF 14
ENDMDL
MODEL 6
REMARK VINA RESULT:      -6.6      2.896      3.983
REMARK  Name = 
REMARK  16 active torsions:
REMARK  status: ('A' for Active; 'I' for Inactive)
REMARK    1  A    between atoms: C_1  and  C_2
REMARK    2  A    between atoms: C_2  and  N_3
REMARK    3  A    between atoms: N_3  and  C_4
REMARK    4  A    between atoms: N_3  and  C_6
REMARK    5  A    between atoms: C_4  and  C_5
REMARK    6  A    between atoms: C_9  and  C_10
REMARK    7  A    between atoms: C_15  and  C_16
REMARK    8  A    between atoms: C_19  and  N_20
REMARK    9  A    between atoms: N_20  and  C_21
REMARK   10  A    between atoms: N_20  and  C_26
REMARK   11  A    between atoms: C_21  and  C_22
REMARK   12  A    between atoms: C_22  and  C_23
REMARK   13  A    between atoms: C_23  and  O_25
REMARK   14  A    between atoms: C_26  and  C_27
REMARK   15  A    between atoms: C_27  and  C_28
REMARK   16  A    between atoms: C_28  and  O_30
REMARK                            x       y       z     vdW  Elec       q    Type
REMARK                         _______ _______ _______ _____ _____    ______ ____
ROOT
ATOM      1  C   UNL     1      -0.393  10.956  21.298  0.00  0.00    +0.000 C 
ATOM      2  C   UNL     1       0.335  10.193  20.472  0.00  0.00    +0.000 C 
ATOM      3  C   UNL     1       1.001  10.552  19.179  0.00  0.00    +0.000 C 
ATOM      4  C   UNL     1       1.683   9.277  18.678  0.00  0.00    +0.000 C 
ATOM      5  C   UNL     1       1.490   8.248  19.746  0.00  0.00    +0.000 C 
ATOM      6  C   UNL     1       2.027   7.026  19.869  0.00  0.00    +0.000 C 
ATOM      7  C   UNL     1       0.598   8.778  20.799  0.00  0.00    +0.000 C 
ATOM      8  O   UNL     1       0.177   8.165  21.764  0.00  0.00    +0.000 OA
ENDROOT
BRANCH   1  12
ATOM      9  C   UNL     1      -1.268  15.092  20.548  0.00  0.00    +0.000 A 
ATOM     10  C   UNL     1      -0.071  14.687  21.161  0.00  0.00    +0.000 A 
ATOM     11  C   UNL     1       0.220  13.342  21.396  0.00  0.00    +0.000 A 
ATOM     12  C   UNL     1      -0.683  12.355  21.008  0.00  0.00    +0.000 A 
ATOM     13  C   UNL     1      -1.869  12.723  20.376  0.00  0.00    +0.000 A 
ATOM     14  C   UNL     1      -2.153  14.075  20.154  0.00  0.00    +0.000 A 
BRANCH   9  15
ATOM     15  N   UNL     1      -1.554  16.436  20.351  0.00  0.00    +0.000 N 
BRANCH  15  17
ATOM     16  C   UNL     1      -3.633  17.700  19.874  0.00  0.00    +0.000 C 
ATOM     17  C   UNL     1      -2.777  17.009  20.924  0.00  0.00    +0.000 C 
ENDBRANCH  15  17
BRANCH  15  18
ATOM     18  C   UNL     1      -0.612  17.322  19.665  0.00  0.00    +0.000 C 
ATOM     19  C   UNL     1      -0.468  16.929  18.200  0.00  0.00    +0.000 C 
ENDBRANCH  15  18
ENDBRANCH   9  15
ENDBRANCH   1  12
BRANCH   6  20
ATOM     20  C   UNL     1       2.981   6.481  18.912  0.00  0.00    +0.000 A 
ATOM     21  C   UNL     1       3.623   7.320  18.003  0.00  0.00    +0.000 A 
ATOM     22  C   UNL     1       4.521   6.795  17.062  0.00  0.00    +0.000 A 
ATOM     23  C   UNL     1       4.820   5.424  17.002  0.00  0.00    +0.000 A 
ATOM     24  C   UNL     1       4.172   4.612  17.954  0.00  0.00    +0.000 A 
ATOM     25  C   UNL     1       3.257   5.121  18.884  0.00  0.00    +0.000 A 
BRANCH  23  26
ATOM     26  N   UNL     1       5.676   4.895  16.039  0.00  0.00    +0.000 N 
BRANCH  26  27
ATOM     27  C   UNL     1       5.180   4.481  14.705  0.00  0.00    +0.000 C 
BRANCH  27  28
ATOM     28  C   UNL     1       6.324   4.117  13.757  0.00  0.00    +0.000 C 
BRANCH  28  29
ATOM     29  C   UNL     1       5.808   3.372  12.552  0.00  0.00    +0.000 C 
ATOM     30  O   UNL     1       4.697   3.502  12.063  0.00  0.00    +0.000 OA
BRANCH  29  31
ATOM     31  O   UNL     1       6.723   2.514  12.041  0.00  0.00    +0.000 OA
ATOM     32  H   UNL     1       7.366   2.931  11.436  0.00  0.00    +0.000 HD
ENDBRANCH  29  31
ENDBRANCH  28  29
ENDBRANCH  27  28
ENDBRANCH  26  27
BRANCH  26  33
ATOM     33  C   UNL     1       7.142   4.951  16.216  0.00  0.00    +0.000 C 
BRANCH  33  34
ATOM     34  C   UNL     1       7.560   4.544  17.633  0.00  0.00    +0.000 C 
BRANCH  34  35
ATOM     35  C   UNL     1       7.859   5.763  18.460  0.00  0.00    +0.000 C 
ATOM     36  O   UNL     1       7.777   6.918  18.066  0.00  0.00    +0.000 OA
BRANCH  35  37
ATOM     37  O   UNL     1       8.233   5.458  19.724  0.00  0.00    +0.000 OA
ATOM     38  H   UNL     1       8.503   4.527  19.845  0.00  0.00    +0.000 HD
ENDBRANCH  35  37
ENDBRANCH  34  35
ENDBRANCH  33  34
ENDBRANCH  26  33
ENDBRANCH  23  26
ENDBRANCH   6  20
TORSDOF 14
ENDMDL
MODEL 7
REMARK VINA RESULT:      -6.6      1.634      3.652
REMARK  Name = 
REMARK  16 active torsions:
REMARK  status: ('A' for Active; 'I' for Inactive)
REMARK    1  A    between atoms: C_1  and  C_2
REMARK    2  A    between atoms: C_2  and  N_3
REMARK    3  A    between atoms: N_3  and  C_4
REMARK    4  A    between atoms: N_3  and  C_6
REMARK    5  A    between atoms: C_4  and  C_5
REMARK    6  A    between atoms: C_9  and  C_10
REMARK    7  A    between atoms: C_15  and  C_16
REMARK    8  A    between atoms: C_19  and  N_20
REMARK    9  A    between atoms: N_20  and  C_21
REMARK   10  A    between atoms: N_20  and  C_26
REMARK   11  A    between atoms: C_21  and  C_22
REMARK   12  A    between atoms: C_22  and  C_23
REMARK   13  A    between atoms: C_23  and  O_25
REMARK   14  A    between atoms: C_26  and  C_27
REMARK   15  A    between atoms: C_27  and  C_28
REMARK   16  A    between atoms: C_28  and  O_30
REMARK                            x       y       z     vdW  Elec       q    Type
REMARK                         _______ _______ _______ _____ _____    ______ ____
ROOT
ATOM      1  C   UNL     1      -0.929  12.637  19.826  0.00  0.00    +0.000 C 
ATOM      2  C   UNL     1      -0.226  11.499  19.747  0.00  0.00    +0.000 C 
ATOM      3  C   UNL     1      -0.347  10.246  20.557  0.00  0.00    +0.000 C 
ATOM      4  C   UNL     1       0.718   9.284  20.025  0.00  0.00    +0.000 C 
ATOM      5  C   UNL     1       1.348   9.963  18.850  0.00  0.00    +0.000 C 
ATOM      6  C   UNL     1       2.212   9.485  17.944  0.00  0.00    +0.000 C 
ATOM      7  C   UNL     1       0.834  11.344  18.731  0.00  0.00    +0.000 C 
ATOM      8  O   UNL     1       1.204  12.186  17.934  0.00  0.00    +0.000 OA
ENDROOT
BRANCH   1  12
ATOM      9  C   UNL     1      -4.043  13.313  22.701  0.00  0.00    +0.000 A 
ATOM     10  C   UNL     1      -4.325  12.925  21.382  0.00  0.00    +0.000 A 
ATOM     11  C   UNL     1      -3.313  12.695  20.448  0.00  0.00    +0.000 A 
ATOM     12  C   UNL     1      -1.977  12.836  20.818  0.00  0.00    +0.000 A 
ATOM     13  C   UNL     1      -1.665  13.195  22.127  0.00  0.00    +0.000 A 
ATOM     14  C   UNL     1      -2.688  13.432  23.051  0.00  0.00    +0.000 A 
BRANCH   9  15
ATOM     15  N   UNL     1      -5.063  13.569  23.607  0.00  0.00    +0.000 N 
BRANCH  15  17
ATOM     16  C   UNL     1      -5.200  15.902  22.780  0.00  0.00    +0.000 C 
ATOM     17  C   UNL     1      -5.397  14.954  23.953  0.00  0.00    +0.000 C 
ENDBRANCH  15  17
BRANCH  15  18
ATOM     18  C   UNL     1      -5.883  12.486  24.155  0.00  0.00    +0.000 C 
ATOM     19  C   UNL     1      -7.366  12.780  23.965  0.00  0.00    +0.000 C 
ENDBRANCH  15  18
ENDBRANCH   9  15
ENDBRANCH   1  12
BRANCH   6  20
ATOM     20  C   UNL     1       2.688   8.107  17.953  0.00  0.00    +0.000 A 
ATOM     21  C   UNL     1       4.052   7.834  17.867  0.00  0.00    +0.000 A 
ATOM     22  C   UNL     1       4.512   6.509  17.848  0.00  0.00    +0.000 A 
ATOM     23  C   UNL     1       3.635   5.415  17.926  0.00  0.00    +0.000 A 
ATOM     24  C   UNL     1       2.267   5.732  18.039  0.00  0.00    +0.000 A 
ATOM     25  C   UNL     1       1.793   7.050  18.037  0.00  0.00    +0.000 A 
BRANCH  23  26
ATOM     26  N   UNL     1       4.086   4.099  17.860  0.00  0.00    +0.000 N 
BRANCH  26  27
ATOM     27  C   UNL     1       3.687   3.091  18.871  0.00  0.00    +0.000 C 
BRANCH  27  28
ATOM     28  C   UNL     1       2.644   2.115  18.326  0.00  0.00    +0.000 C 
BRANCH  28  29
ATOM     29  C   UNL     1       1.319   2.298  19.022  0.00  0.00    +0.000 C 
ATOM     30  O   UNL     1       0.226   2.262  18.481  0.00  0.00    +0.000 OA
BRANCH  29  31
ATOM     31  O   UNL     1       1.457   2.513  20.352  0.00  0.00    +0.000 OA
ATOM     32  H   UNL     1       0.764   3.085  20.737  0.00  0.00    +0.000 HD
ENDBRANCH  29  31
ENDBRANCH  28  29
ENDBRANCH  27  28
ENDBRANCH  26  27
BRANCH  26  33
ATOM     33  C   UNL     1       4.779   3.594  16.656  0.00  0.00    +0.000 C 
BRANCH  33  34
ATOM     34  C   UNL     1       5.307   4.738  15.782  0.00  0.00    +0.000 C 
BRANCH  34  35
ATOM     35  C   UNL     1       6.810   4.740  15.780  0.00  0.00    +0.000 C 
ATOM     36  O   UNL     1       7.513   5.184  14.881  0.00  0.00    +0.000 OA
BRANCH  35  37
ATOM     37  O   UNL     1       7.335   4.196  16.902  0.00  0.00    +0.000 OA
ATOM     38  H   UNL     1       7.733   4.847  17.512  0.00  0.00    +0.000 HD
ENDBRANCH  35  37
ENDBRANCH  34  35
ENDBRANCH  33  34
ENDBRANCH  26  33
ENDBRANCH  23  26
ENDBRANCH   6  20
TORSDOF 14
ENDMDL
MODEL 8
REMARK VINA RESULT:      -6.6      1.631      2.326
REMARK  Name = 
REMARK  16 active torsions:
REMARK  status: ('A' for Active; 'I' for Inactive)
REMARK    1  A    between atoms: C_1  and  C_2
REMARK    2  A    between atoms: C_2  and  N_3
REMARK    3  A    between atoms: N_3  and  C_4
REMARK    4  A    between atoms: N_3  and  C_6
REMARK    5  A    between atoms: C_4  and  C_5
REMARK    6  A    between atoms: C_9  and  C_10
REMARK    7  A    between atoms: C_15  and  C_16
REMARK    8  A    between atoms: C_19  and  N_20
REMARK    9  A    between atoms: N_20  and  C_21
REMARK   10  A    between atoms: N_20  and  C_26
REMARK   11  A    between atoms: C_21  and  C_22
REMARK   12  A    between atoms: C_22  and  C_23
REMARK   13  A    between atoms: C_23  and  O_25
REMARK   14  A    between atoms: C_26  and  C_27
REMARK   15  A    between atoms: C_27  and  C_28
REMARK   16  A    between atoms: C_28  and  O_30
REMARK                            x       y       z     vdW  Elec       q    Type
REMARK                         _______ _______ _______ _____ _____    ______ ____
ROOT
ATOM      1  C   UNL     1      -0.876  12.786  19.813  0.00  0.00    +0.000 C 
ATOM      2  C   UNL     1      -0.194  11.638  19.715  0.00  0.00    +0.000 C 
ATOM      3  C   UNL     1      -0.373  10.355  20.467  0.00  0.00    +0.000 C 
ATOM      4  C   UNL     1       0.694   9.394  19.938  0.00  0.00    +0.000 C 
ATOM      5  C   UNL     1       1.386  10.106  18.819  0.00  0.00    +0.000 C 
ATOM      6  C   UNL     1       2.278   9.648  17.930  0.00  0.00    +0.000 C 
ATOM      7  C   UNL     1       0.905  11.501  18.738  0.00  0.00    +0.000 C 
ATOM      8  O   UNL     1       1.324  12.368  17.992  0.00  0.00    +0.000 OA
ENDROOT
BRANCH   1  12
ATOM      9  C   UNL     1      -4.098  13.407  22.582  0.00  0.00    +0.000 A 
ATOM     10  C   UNL     1      -4.327  13.013  21.254  0.00  0.00    +0.000 A 
ATOM     11  C   UNL     1      -3.281  12.800  20.355  0.00  0.00    +0.000 A 
ATOM     12  C   UNL     1      -1.961  12.966  20.769  0.00  0.00    +0.000 A 
ATOM     13  C   UNL     1      -1.700  13.332  22.088  0.00  0.00    +0.000 A 
ATOM     14  C   UNL     1      -2.758  13.551  22.977  0.00  0.00    +0.000 A 
BRANCH   9  15
ATOM     15  N   UNL     1      -5.152  13.644  23.452  0.00  0.00    +0.000 N 
BRANCH  15  17
ATOM     16  C   UNL     1      -4.870  15.932  24.367  0.00  0.00    +0.000 C 
ATOM     17  C   UNL     1      -5.732  14.988  23.541  0.00  0.00    +0.000 C 
ENDBRANCH  15  17
BRANCH  15  18
ATOM     18  C   UNL     1      -5.767  12.557  24.217  0.00  0.00    +0.000 C 
ATOM     19  C   UNL     1      -7.276  12.531  24.004  0.00  0.00    +0.000 C 
ENDBRANCH  15  18
ENDBRANCH   9  15
ENDBRANCH   1  12
BRANCH   6  20
ATOM     20  C   UNL     1       2.726   8.261  17.901  0.00  0.00    +0.000 A 
ATOM     21  C   UNL     1       1.844   7.230  18.224  0.00  0.00    +0.000 A 
ATOM     22  C   UNL     1       2.279   5.897  18.224  0.00  0.00    +0.000 A 
ATOM     23  C   UNL     1       3.597   5.544  17.892  0.00  0.00    +0.000 A 
ATOM     24  C   UNL     1       4.450   6.609  17.546  0.00  0.00    +0.000 A 
ATOM     25  C   UNL     1       4.035   7.947  17.563  0.00  0.00    +0.000 A 
BRANCH  23  26
ATOM     26  N   UNL     1       4.042   4.224  17.936  0.00  0.00    +0.000 N 
BRANCH  26  27
ATOM     27  C   UNL     1       5.191   3.766  17.119  0.00  0.00    +0.000 C 
BRANCH  27  28
ATOM     28  C   UNL     1       5.018   4.116  15.641  0.00  0.00    +0.000 C 
BRANCH  28  29
ATOM     29  C   UNL     1       6.354   4.205  14.948  0.00  0.00    +0.000 C 
ATOM     30  O   UNL     1       6.559   3.947  13.773  0.00  0.00    +0.000 OA
BRANCH  29  31
ATOM     31  O   UNL     1       7.344   4.611  15.779  0.00  0.00    +0.000 OA
ATOM     32  H   UNL     1       7.063   5.274  16.438  0.00  0.00    +0.000 HD
ENDBRANCH  29  31
ENDBRANCH  28  29
ENDBRANCH  27  28
ENDBRANCH  26  27
BRANCH  26  33
ATOM     33  C   UNL     1       3.549   3.292  18.972  0.00  0.00    +0.000 C 
BRANCH  33  34
ATOM     34  C   UNL     1       2.626   2.221  18.381  0.00  0.00    +0.000 C 
BRANCH  34  35
ATOM     35  C   UNL     1       1.260   2.309  19.001  0.00  0.00    +0.000 C 
ATOM     36  O   UNL     1       0.204   2.152  18.404  0.00  0.00    +0.000 OA
BRANCH  35  37
ATOM     37  O   UNL     1       1.305   2.580  20.327  0.00  0.00    +0.000 OA
ATOM     38  H   UNL     1       1.264   3.532  20.540  0.00  0.00    +0.000 HD
ENDBRANCH  35  37
ENDBRANCH  34  35
ENDBRANCH  33  34
ENDBRANCH  26  33
ENDBRANCH  23  26
ENDBRANCH   6  20
TORSDOF 14
ENDMDL
MODEL 9
REMARK VINA RESULT:      -6.6      2.259      4.018
REMARK  Name = 
REMARK  16 active torsions:
REMARK  status: ('A' for Active; 'I' for Inactive)
REMARK    1  A    between atoms: C_1  and  C_2
REMARK    2  A    between atoms: C_2  and  N_3
REMARK    3  A    between atoms: N_3  and  C_4
REMARK    4  A    between atoms: N_3  and  C_6
REMARK    5  A    between atoms: C_4  and  C_5
REMARK    6  A    between atoms: C_9  and  C_10
REMARK    7  A    between atoms: C_15  and  C_16
REMARK    8  A    between atoms: C_19  and  N_20
REMARK    9  A    between atoms: N_20  and  C_21
REMARK   10  A    between atoms: N_20  and  C_26
REMARK   11  A    between atoms: C_21  and  C_22
REMARK   12  A    between atoms: C_22  and  C_23
REMARK   13  A    between atoms: C_23  and  O_25
REMARK   14  A    between atoms: C_26  and  C_27
REMARK   15  A    between atoms: C_27  and  C_28
REMARK   16  A    between atoms: C_28  and  O_30
REMARK                            x       y       z     vdW  Elec       q    Type
REMARK                         _______ _______ _______ _____ _____    ______ ____
ROOT
ATOM      1  C   UNL     1      -1.283  12.300  22.753  0.00  0.00    +0.000 C 
ATOM      2  C   UNL     1      -0.861  11.282  21.992  0.00  0.00    +0.000 C 
ATOM      3  C   UNL     1      -1.012  11.067  20.517  0.00  0.00    +0.000 C 
ATOM      4  C   UNL     1      -0.337   9.729  20.206  0.00  0.00    +0.000 C 
ATOM      5  C   UNL     1       0.283   9.263  21.485  0.00  0.00    +0.000 C 
ATOM      6  C   UNL     1       1.117   8.239  21.712  0.00  0.00    +0.000 C 
ATOM      7  C   UNL     1      -0.107  10.163  22.591  0.00  0.00    +0.000 C 
ATOM      8  O   UNL     1       0.160  10.017  23.769  0.00  0.00    +0.000 OA
ENDROOT
BRANCH   1  12
ATOM      9  C   UNL     1      -3.467  15.660  21.212  0.00  0.00    +0.000 A 
ATOM     10  C   UNL     1      -2.078  15.538  21.043  0.00  0.00    +0.000 A 
ATOM     11  C   UNL     1      -1.368  14.441  21.534  0.00  0.00    +0.000 A 
ATOM     12  C   UNL     1      -2.038  13.420  22.204  0.00  0.00    +0.000 A 
ATOM     13  C   UNL     1      -3.419  13.499  22.366  0.00  0.00    +0.000 A 
ATOM     14  C   UNL     1      -4.119  14.609  21.877  0.00  0.00    +0.000 A 
BRANCH   9  15
ATOM     15  N   UNL     1      -4.151  16.773  20.744  0.00  0.00    +0.000 N 
BRANCH  15  17
ATOM     16  C   UNL     1      -3.781  18.190  22.745  0.00  0.00    +0.000 C 
ATOM     17  C   UNL     1      -3.782  18.108  21.227  0.00  0.00    +0.000 C 
ENDBRANCH  15  17
BRANCH  15  18
ATOM     18  C   UNL     1      -5.174  16.656  19.703  0.00  0.00    +0.000 C 
ATOM     19  C   UNL     1      -5.206  17.906  18.832  0.00  0.00    +0.000 C 
ENDBRANCH  15  18
ENDBRANCH   9  15
ENDBRANCH   1  12
BRANCH   6  20
ATOM     20  C   UNL     1       1.609   7.368  20.651  0.00  0.00    +0.000 A 
ATOM     21  C   UNL     1       1.560   5.983  20.799  0.00  0.00    +0.000 A 
ATOM     22  C   UNL     1       2.058   5.143  19.792  0.00  0.00    +0.000 A 
ATOM     23  C   UNL     1       2.608   5.650  18.604  0.00  0.00    +0.000 A 
ATOM     24  C   UNL     1       2.616   7.053  18.480  0.00  0.00    +0.000 A 
ATOM     25  C   UNL     1       2.142   7.903  19.487  0.00  0.00    +0.000 A 
BRANCH  23  26
ATOM     26  N   UNL     1       3.145   4.818  17.623  0.00  0.00    +0.000 N 
BRANCH  26  27
ATOM     27  C   UNL     1       2.406   3.635  17.121  0.00  0.00    +0.000 C 
BRANCH  27  28
ATOM     28  C   UNL     1       2.091   2.640  18.239  0.00  0.00    +0.000 C 
BRANCH  28  29
ATOM     29  C   UNL     1       3.330   1.892  18.659  0.00  0.00    +0.000 C 
ATOM     30  O   UNL     1       3.886   1.023  18.007  0.00  0.00    +0.000 OA
BRANCH  29  31
ATOM     31  O   UNL     1       3.788   2.286  19.871  0.00  0.00    +0.000 OA
ATOM     32  H   UNL     1       3.159   2.134  20.603  0.00  0.00    +0.000 HD
ENDBRANCH  29  31
ENDBRANCH  28  29
ENDBRANCH  27  28
ENDBRANCH  26  27
BRANCH  26  33
ATOM     33  C   UNL     1       4.356   5.214  16.874  0.00  0.00    +0.000 C 
BRANCH  33  34
ATOM     34  C   UNL     1       5.602   4.475  17.375  0.00  0.00    +0.000 C 
BRANCH  34  35
ATOM     35  C   UNL     1       6.546   4.213  16.235  0.00  0.00    +0.000 C 
ATOM     36  O   UNL     1       7.539   4.879  15.976  0.00  0.00    +0.000 OA
BRANCH  35  37
ATOM     37  O   UNL     1       6.192   3.132  15.502  0.00  0.00    +0.000 OA
ATOM     38  H   UNL     1       6.548   2.288  15.840  0.00  0.00    +0.000 HD
ENDBRANCH  35  37
ENDBRANCH  34  35
ENDBRANCH  33  34
ENDBRANCH  26  33
ENDBRANCH  23  26
ENDBRANCH   6  20
TORSDOF 14
ENDMDL
