MODEL 1
REMARK VINA RESULT:      -5.2      0.000      0.000
REMARK  Name = 
REMARK  7 active torsions:
REMARK  status: ('A' for Active; 'I' for Inactive)
REMARK    1  A    between atoms: O_1  and  N_2
REMARK    2  A    between atoms: C_3  and  C_4
REMARK    3  A    between atoms: N_7  and  C_8
REMARK    4  A    between atoms: C_8  and  C_9
REMARK    5  A    between atoms: C_9  and  O_10
REMARK    6  A    between atoms: O_10  and  C_11
REMARK    7  A    between atoms: C_11  and  C_12
REMARK                            x       y       z     vdW  Elec       q    Type
REMARK                         _______ _______ _______ _____ _____    ______ ____
ROOT
ATOM      1  C   UNL     1       5.918   4.858  16.938  0.00  0.00    +0.000 A 
ATOM      2  C   UNL     1       4.623   5.226  16.588  0.00  0.00    +0.000 A 
ATOM      3  C   UNL     1       3.679   5.387  17.588  0.00  0.00    +0.000 A 
ATOM      4  N   UNL     1       3.999   5.164  18.883  0.00  0.00    +0.000 N 
ATOM      5  C   UNL     1       5.253   4.782  19.227  0.00  0.00    +0.000 A 
ATOM      6  C   UNL     1       6.241   4.624  18.258  0.00  0.00    +0.000 A 
ENDROOT
BRANCH   1   8
ATOM      7  N   UNL     1       6.790   5.511  14.829  0.00  0.00    +0.000 NA
ATOM      8  C   UNL     1       6.972   4.831  15.908  0.00  0.00    +0.000 C 
BRANCH   7   9
ATOM      9  O   UNL     1       7.952   5.517  14.053  0.00  0.00    +0.000 OA
ATOM     10  H   UNL     1       8.476   6.233  14.495  0.00  0.00    +0.000 HD
ENDBRANCH   7   9
ENDBRANCH   1   8
BRANCH   4  11
ATOM     11  C   UNL     1       3.004   5.442  19.953  0.00  0.00    +0.000 C 
BRANCH  11  12
ATOM     12  C   UNL     1       1.672   4.742  19.699  0.00  0.00    +0.000 C 
BRANCH  12  13
ATOM     13  O   UNL     1       1.391   3.773  20.708  0.00  0.00    +0.000 OA
BRANCH  13  14
ATOM     14  C   UNL     1       1.859   2.474  20.300  0.00  0.00    +0.000 C 
BRANCH  14  15
ATOM     15  C   UNL     1       1.613   2.230  18.816  0.00  0.00    +0.000 C 
ATOM     16 CL   UNL     1       3.133   1.832  17.977  0.00  0.00    +0.000 Cl
ENDBRANCH  14  15
ENDBRANCH  13  14
ENDBRANCH  12  13
ENDBRANCH  11  12
ENDBRANCH   4  11
TORSDOF 7
ENDMDL
MODEL 2
REMARK VINA RESULT:      -5.2      1.554      1.837
REMARK  Name = 
REMARK  7 active torsions:
REMARK  status: ('A' for Active; 'I' for Inactive)
REMARK    1  A    between atoms: O_1  and  N_2
REMARK    2  A    between atoms: C_3  and  C_4
REMARK    3  A    between atoms: N_7  and  C_8
REMARK    4  A    between atoms: C_8  and  C_9
REMARK    5  A    between atoms: C_9  and  O_10
REMARK    6  A    between atoms: O_10  and  C_11
REMARK    7  A    between atoms: C_11  and  C_12
REMARK                            x       y       z     vdW  Elec       q    Type
REMARK                         _______ _______ _______ _____ _____    ______ ____
ROOT
ATOM      1  C   UNL     1       6.440   4.437  15.652  0.00  0.00    +0.000 A 
ATOM      2  C   UNL     1       5.120   4.002  15.730  0.00  0.00    +0.000 A 
ATOM      3  C   UNL     1       4.540   3.845  16.979  0.00  0.00    +0.000 A 
ATOM      4  N   UNL     1       5.250   4.083  18.105  0.00  0.00    +0.000 N 
ATOM      5  C   UNL     1       6.543   4.484  18.034  0.00  0.00    +0.000 A 
ATOM      6  C   UNL     1       7.164   4.672  16.802  0.00  0.00    +0.000 A 
ENDROOT
BRANCH   1   8
ATOM      7  N   UNL     1       7.944   5.657  14.278  0.00  0.00    +0.000 NA
ATOM      8  C   UNL     1       7.024   4.755  14.337  0.00  0.00    +0.000 C 
BRANCH   7   9
ATOM      9  O   UNL     1       8.505   5.699  12.999  0.00  0.00    +0.000 OA
ATOM     10  H   UNL     1       8.778   6.651  12.940  0.00  0.00    +0.000 HD
ENDBRANCH   7   9
ENDBRANCH   1   8
BRANCH   4  11
ATOM     11  C   UNL     1       4.582   4.012  19.432  0.00  0.00    +0.000 C 
BRANCH  11  12
ATOM     12  C   UNL     1       3.950   2.646  19.688  0.00  0.00    +0.000 C 
BRANCH  12  13
ATOM     13  O   UNL     1       3.078   2.678  20.817  0.00  0.00    +0.000 OA
BRANCH  13  14
ATOM     14  C   UNL     1       1.787   3.191  20.438  0.00  0.00    +0.000 C 
BRANCH  14  15
ATOM     15  C   UNL     1       1.321   2.611  19.108  0.00  0.00    +0.000 C 
ATOM     16 CL   UNL     1       1.151   3.891  17.882  0.00  0.00    +0.000 Cl
ENDBRANCH  14  15
ENDBRANCH  13  14
ENDBRANCH  12  13
ENDBRANCH  11  12
ENDBRANCH   4  11
TORSDOF 7
ENDMDL
MODEL 3
REMARK VINA RESULT:      -5.2      1.309      1.758
REMARK  Name = 
REMARK  7 active torsions:
REMARK  status: ('A' for Active; 'I' for Inactive)
REMARK    1  A    between atoms: O_1  and  N_2
REMARK    2  A    between atoms: C_3  and  C_4
REMARK    3  A    between atoms: N_7  and  C_8
REMARK    4  A    between atoms: C_8  and  C_9
REMARK    5  A    between atoms: C_9  and  O_10
REMARK    6  A    between atoms: O_10  and  C_11
REMARK    7  A    between atoms: C_11  and  C_12
REMARK                            x       y       z     vdW  Elec       q    Type
REMARK                         _______ _______ _______ _____ _____    ______ ____
ROOT
ATOM      1  C   UNL     1       5.019   5.911  17.139  0.00  0.00    +0.000 A 
ATOM      2  C   UNL     1       5.145   5.018  18.198  0.00  0.00    +0.000 A 
ATOM      3  C   UNL     1       4.243   5.091  19.247  0.00  0.00    +0.000 A 
ATOM      4  N   UNL     1       3.272   6.032  19.259  0.00  0.00    +0.000 N 
ATOM      5  C   UNL     1       3.160   6.921  18.241  0.00  0.00    +0.000 A 
ATOM      6  C   UNL     1       4.033   6.875  17.157  0.00  0.00    +0.000 A 
ENDROOT
BRANCH   1   8
ATOM      7  N   UNL     1       7.149   5.806  16.096  0.00  0.00    +0.000 NA
ATOM      8  C   UNL     1       5.870   5.752  15.947  0.00  0.00    +0.000 C 
BRANCH   7   9
ATOM      9  O   UNL     1       7.795   5.458  14.907  0.00  0.00    +0.000 OA
ATOM     10  H   UNL     1       7.297   4.639  14.649  0.00  0.00    +0.000 HD
ENDBRANCH   7   9
ENDBRANCH   1   8
BRANCH   4  11
ATOM     11  C   UNL     1       2.249   6.031  20.339  0.00  0.00    +0.000 C 
BRANCH  11  12
ATOM     12  C   UNL     1       2.207   4.704  21.092  0.00  0.00    +0.000 C 
BRANCH  12  13
ATOM     13  O   UNL     1       1.060   3.935  20.732  0.00  0.00    +0.000 OA
BRANCH  13  14
ATOM     14  C   UNL     1       1.460   2.688  20.134  0.00  0.00    +0.000 C 
BRANCH  14  15
ATOM     15  C   UNL     1       0.828   2.496  18.760  0.00  0.00    +0.000 C 
ATOM     16 CL   UNL     1       1.388   3.746  17.622  0.00  0.00    +0.000 Cl
ENDBRANCH  14  15
ENDBRANCH  13  14
ENDBRANCH  12  13
ENDBRANCH  11  12
ENDBRANCH   4  11
TORSDOF 7
ENDMDL
MODEL 4
REMARK VINA RESULT:      -5.2      1.121      1.707
REMARK  Name = 
REMARK  7 active torsions:
REMARK  status: ('A' for Active; 'I' for Inactive)
REMARK    1  A    between atoms: O_1  and  N_2
REMARK    2  A    between atoms: C_3  and  C_4
REMARK    3  A    between atoms: N_7  and  C_8
REMARK    4  A    between atoms: C_8  and  C_9
REMARK    5  A    between atoms: C_9  and  O_10
REMARK    6  A    between atoms: O_10  and  C_11
REMARK    7  A    between atoms: C_11  and  C_12
REMARK                            x       y       z     vdW  Elec       q    Type
REMARK                         _______ _______ _______ _____ _____    ______ ____
ROOT
ATOM      1  C   UNL     1       5.063   5.731  17.403  0.00  0.00    +0.000 A 
ATOM      2  C   UNL     1       5.517   4.932  18.448  0.00  0.00    +0.000 A 
ATOM      3  C   UNL     1       4.693   4.730  19.543  0.00  0.00    +0.000 A 
ATOM      4  N   UNL     1       3.478   5.321  19.611  0.00  0.00    +0.000 N 
ATOM      5  C   UNL     1       3.042   6.119  18.607  0.00  0.00    +0.000 A 
ATOM      6  C   UNL     1       3.828   6.338  17.478  0.00  0.00    +0.000 A 
ENDROOT
BRANCH   1   8
ATOM      7  N   UNL     1       7.143   5.760  16.257  0.00  0.00    +0.000 NA
ATOM      8  C   UNL     1       5.859   5.834  16.167  0.00  0.00    +0.000 C 
BRANCH   7   9
ATOM      9  O   UNL     1       7.719   5.695  14.986  0.00  0.00    +0.000 OA
ATOM     10  H   UNL     1       7.174   6.360  14.493  0.00  0.00    +0.000 HD
ENDBRANCH   7   9
ENDBRANCH   1   8
BRANCH   4  11
ATOM     11  C   UNL     1       2.564   5.010  20.743  0.00  0.00    +0.000 C 
BRANCH  11  12
ATOM     12  C   UNL     1       1.315   4.261  20.288  0.00  0.00    +0.000 C 
BRANCH  12  13
ATOM     13  O   UNL     1       1.626   2.932  19.870  0.00  0.00    +0.000 OA
BRANCH  13  14
ATOM     14  C   UNL     1       1.205   2.724  18.509  0.00  0.00    +0.000 C 
BRANCH  14  15
ATOM     15  C   UNL     1       2.378   2.349  17.610  0.00  0.00    +0.000 C 
ATOM     16 CL   UNL     1       3.584   1.393  18.505  0.00  0.00    +0.000 Cl
ENDBRANCH  14  15
ENDBRANCH  13  14
ENDBRANCH  12  13
ENDBRANCH  11  12
ENDBRANCH   4  11
TORSDOF 7
ENDMDL
MODEL 5
REMARK VINA RESULT:      -5.1      2.187      2.835
REMARK  Name = 
REMARK  7 active torsions:
REMARK  status: ('A' for Active; 'I' for Inactive)
REMARK    1  A    between atoms: O_1  and  N_2
REMARK    2  A    between atoms: C_3  and  C_4
REMARK    3  A    between atoms: N_7  and  C_8
REMARK    4  A    between atoms: C_8  and  C_9
REMARK    5  A    between atoms: C_9  and  O_10
REMARK    6  A    between atoms: O_10  and  C_11
REMARK    7  A    between atoms: C_11  and  C_12
REMARK                            x       y       z     vdW  Elec       q    Type
REMARK                         _______ _______ _______ _____ _____    ______ ____
ROOT
ATOM      1  C   UNL     1       5.937   5.394  17.911  0.00  0.00    +0.000 A 
ATOM      2  C   UNL     1       5.761   4.702  19.105  0.00  0.00    +0.000 A 
ATOM      3  C   UNL     1       4.851   3.658  19.145  0.00  0.00    +0.000 A 
ATOM      4  N   UNL     1       4.124   3.333  18.052  0.00  0.00    +0.000 N 
ATOM      5  C   UNL     1       4.275   4.020  16.893  0.00  0.00    +0.000 A 
ATOM      6  C   UNL     1       5.190   5.066  16.800  0.00  0.00    +0.000 A 
ENDROOT
BRANCH   1   8
ATOM      7  N   UNL     1       6.820   7.413  17.027  0.00  0.00    +0.000 NA
ATOM      8  C   UNL     1       7.006   6.404  17.806  0.00  0.00    +0.000 C 
BRANCH   7   9
ATOM      9  O   UNL     1       7.844   8.350  17.188  0.00  0.00    +0.000 OA
ATOM     10  H   UNL     1       7.453   8.947  17.877  0.00  0.00    +0.000 HD
ENDBRANCH   7   9
ENDBRANCH   1   8
BRANCH   4  11
ATOM     11  C   UNL     1       3.230   2.144  18.081  0.00  0.00    +0.000 C 
BRANCH  11  12
ATOM     12  C   UNL     1       1.777   2.522  18.358  0.00  0.00    +0.000 C 
BRANCH  12  13
ATOM     13  O   UNL     1       1.439   2.325  19.730  0.00  0.00    +0.000 OA
BRANCH  13  14
ATOM     14  C   UNL     1       0.859   3.523  20.280  0.00  0.00    +0.000 C 
BRANCH  14  15
ATOM     15  C   UNL     1       1.912   4.401  20.946  0.00  0.00    +0.000 C 
ATOM     16 CL   UNL     1       2.124   5.927  20.052  0.00  0.00    +0.000 Cl
ENDBRANCH  14  15
ENDBRANCH  13  14
ENDBRANCH  12  13
ENDBRANCH  11  12
ENDBRANCH   4  11
TORSDOF 7
ENDMDL
MODEL 6
REMARK VINA RESULT:      -5.1      1.461      1.762
REMARK  Name = 
REMARK  7 active torsions:
REMARK  status: ('A' for Active; 'I' for Inactive)
REMARK    1  A    between atoms: O_1  and  N_2
REMARK    2  A    between atoms: C_3  and  C_4
REMARK    3  A    between atoms: N_7  and  C_8
REMARK    4  A    between atoms: C_8  and  C_9
REMARK    5  A    between atoms: C_9  and  O_10
REMARK    6  A    between atoms: O_10  and  C_11
REMARK    7  A    between atoms: C_11  and  C_12
REMARK                            x       y       z     vdW  Elec       q    Type
REMARK                         _______ _______ _______ _____ _____    ______ ____
ROOT
ATOM      1  C   UNL     1       6.382   4.517  15.556  0.00  0.00    +0.000 A 
ATOM      2  C   UNL     1       5.073   4.094  15.763  0.00  0.00    +0.000 A 
ATOM      3  C   UNL     1       4.607   3.969  17.062  0.00  0.00    +0.000 A 
ATOM      4  N   UNL     1       5.417   4.226  18.114  0.00  0.00    +0.000 N 
ATOM      5  C   UNL     1       6.701   4.615  17.918  0.00  0.00    +0.000 A 
ATOM      6  C   UNL     1       7.209   4.771  16.630  0.00  0.00    +0.000 A 
ENDROOT
BRANCH   1   8
ATOM      7  N   UNL     1       7.870   5.572  14.036  0.00  0.00    +0.000 NA
ATOM      8  C   UNL     1       6.847   4.802  14.187  0.00  0.00    +0.000 C 
BRANCH   7   9
ATOM      9  O   UNL     1       8.278   5.586  12.700  0.00  0.00    +0.000 OA
ATOM     10  H   UNL     1       9.018   4.925  12.716  0.00  0.00    +0.000 HD
ENDBRANCH   7   9
ENDBRANCH   1   8
BRANCH   4  11
ATOM     11  C   UNL     1       4.872   4.189  19.497  0.00  0.00    +0.000 C 
BRANCH  11  12
ATOM     12  C   UNL     1       3.652   5.092  19.662  0.00  0.00    +0.000 C 
BRANCH  12  13
ATOM     13  O   UNL     1       2.448   4.332  19.754  0.00  0.00    +0.000 OA
BRANCH  13  14
ATOM     14  C   UNL     1       2.728   3.010  20.253  0.00  0.00    +0.000 C 
BRANCH  14  15
ATOM     15  C   UNL     1       2.003   1.940  19.446  0.00  0.00    +0.000 C 
ATOM     16 CL   UNL     1       0.505   2.588  18.733  0.00  0.00    +0.000 Cl
ENDBRANCH  14  15
ENDBRANCH  13  14
ENDBRANCH  12  13
ENDBRANCH  11  12
ENDBRANCH   4  11
TORSDOF 7
ENDMDL
MODEL 7
REMARK VINA RESULT:      -5.1      2.198      2.509
REMARK  Name = 
REMARK  7 active torsions:
REMARK  status: ('A' for Active; 'I' for Inactive)
REMARK    1  A    between atoms: O_1  and  N_2
REMARK    2  A    between atoms: C_3  and  C_4
REMARK    3  A    between atoms: N_7  and  C_8
REMARK    4  A    between atoms: C_8  and  C_9
REMARK    5  A    between atoms: C_9  and  O_10
REMARK    6  A    between atoms: O_10  and  C_11
REMARK    7  A    between atoms: C_11  and  C_12
REMARK                            x       y       z     vdW  Elec       q    Type
REMARK                         _______ _______ _______ _____ _____    ______ ____
ROOT
ATOM      1  C   UNL     1       5.481   5.125  17.382  0.00  0.00    +0.000 A 
ATOM      2  C   UNL     1       4.556   4.527  16.533  0.00  0.00    +0.000 A 
ATOM      3  C   UNL     1       3.772   3.493  17.020  0.00  0.00    +0.000 A 
ATOM      4  N   UNL     1       3.920   3.052  18.289  0.00  0.00    +0.000 N 
ATOM      5  C   UNL     1       4.837   3.616  19.113  0.00  0.00    +0.000 A 
ATOM      6  C   UNL     1       5.637   4.669  18.674  0.00  0.00    +0.000 A 
ENDROOT
BRANCH   1   8
ATOM      7  N   UNL     1       7.080   6.845  17.730  0.00  0.00    +0.000 NA
ATOM      8  C   UNL     1       6.215   6.321  16.932  0.00  0.00    +0.000 C 
BRANCH   7   9
ATOM      9  O   UNL     1       7.802   7.849  17.079  0.00  0.00    +0.000 OA
ATOM     10  H   UNL     1       7.697   7.578  16.131  0.00  0.00    +0.000 HD
ENDBRANCH   7   9
ENDBRANCH   1   8
BRANCH   4  11
ATOM     11  C   UNL     1       2.999   2.015  18.828  0.00  0.00    +0.000 C 
BRANCH  11  12
ATOM     12  C   UNL     1       1.537   2.321  18.512  0.00  0.00    +0.000 C 
BRANCH  12  13
ATOM     13  O   UNL     1       0.936   3.110  19.538  0.00  0.00    +0.000 OA
BRANCH  13  14
ATOM     14  C   UNL     1       1.380   2.668  20.834  0.00  0.00    +0.000 C 
BRANCH  14  15
ATOM     15  C   UNL     1       2.091   3.781  21.594  0.00  0.00    +0.000 C 
ATOM     16 CL   UNL     1       2.027   5.311  20.686  0.00  0.00    +0.000 Cl
ENDBRANCH  14  15
ENDBRANCH  13  14
ENDBRANCH  12  13
ENDBRANCH  11  12
ENDBRANCH   4  11
TORSDOF 7
ENDMDL
MODEL 8
REMARK VINA RESULT:      -5.1      1.655      2.505
REMARK  Name = 
REMARK  7 active torsions:
REMARK  status: ('A' for Active; 'I' for Inactive)
REMARK    1  A    between atoms: O_1  and  N_2
REMARK    2  A    between atoms: C_3  and  C_4
REMARK    3  A    between atoms: N_7  and  C_8
REMARK    4  A    between atoms: C_8  and  C_9
REMARK    5  A    between atoms: C_9  and  O_10
REMARK    6  A    between atoms: O_10  and  C_11
REMARK    7  A    between atoms: C_11  and  C_12
REMARK                            x       y       z     vdW  Elec       q    Type
REMARK                         _______ _______ _______ _____ _____    ______ ____
ROOT
ATOM      1  C   UNL     1       6.058   4.719  16.904  0.00  0.00    +0.000 A 
ATOM      2  C   UNL     1       6.150   4.798  18.290  0.00  0.00    +0.000 A 
ATOM      3  C   UNL     1       5.219   4.121  19.062  0.00  0.00    +0.000 A 
ATOM      4  N   UNL     1       4.220   3.418  18.481  0.00  0.00    +0.000 N 
ATOM      5  C   UNL     1       4.113   3.359  17.131  0.00  0.00    +0.000 A 
ATOM      6  C   UNL     1       5.034   4.008  16.314  0.00  0.00    +0.000 A 
ENDROOT
BRANCH   1   8
ATOM      7  N   UNL     1       7.237   4.900  14.851  0.00  0.00    +0.000 NA
ATOM      8  C   UNL     1       7.123   5.304  16.069  0.00  0.00    +0.000 C 
BRANCH   7   9
ATOM      9  O   UNL     1       8.168   5.681  14.162  0.00  0.00    +0.000 OA
ATOM     10  H   UNL     1       8.004   6.574  14.561  0.00  0.00    +0.000 HD
ENDBRANCH   7   9
ENDBRANCH   1   8
BRANCH   4  11
ATOM     11  C   UNL     1       3.294   2.613  19.321  0.00  0.00    +0.000 C 
BRANCH  11  12
ATOM     12  C   UNL     1       2.641   3.445  20.422  0.00  0.00    +0.000 C 
BRANCH  12  13
ATOM     13  O   UNL     1       1.695   4.369  19.885  0.00  0.00    +0.000 OA
BRANCH  13  14
ATOM     14  C   UNL     1       1.766   5.624  20.589  0.00  0.00    +0.000 C 
BRANCH  14  15
ATOM     15  C   UNL     1       2.449   6.699  19.753  0.00  0.00    +0.000 C 
ATOM     16 CL   UNL     1       2.351   6.311  18.017  0.00  0.00    +0.000 Cl
ENDBRANCH  14  15
ENDBRANCH  13  14
ENDBRANCH  12  13
ENDBRANCH  11  12
ENDBRANCH   4  11
TORSDOF 7
ENDMDL
MODEL 9
REMARK VINA RESULT:      -5.1      1.573      1.734
REMARK  Name = 
REMARK  7 active torsions:
REMARK  status: ('A' for Active; 'I' for Inactive)
REMARK    1  A    between atoms: O_1  and  N_2
REMARK    2  A    between atoms: C_3  and  C_4
REMARK    3  A    between atoms: N_7  and  C_8
REMARK    4  A    between atoms: C_8  and  C_9
REMARK    5  A    between atoms: C_9  and  O_10
REMARK    6  A    between atoms: O_10  and  C_11
REMARK    7  A    between atoms: C_11  and  C_12
REMARK                            x       y       z     vdW  Elec       q    Type
REMARK                         _______ _______ _______ _____ _____    ______ ____
ROOT
ATOM      1  C   UNL     1       5.812   4.910  16.244  0.00  0.00    +0.000 A 
ATOM      2  C   UNL     1       5.002   3.794  16.433  0.00  0.00    +0.000 A 
ATOM      3  C   UNL     1       3.842   3.929  17.177  0.00  0.00    +0.000 A 
ATOM      4  N   UNL     1       3.512   5.115  17.736  0.00  0.00    +0.000 N 
ATOM      5  C   UNL     1       4.311   6.199  17.575  0.00  0.00    +0.000 A 
ATOM      6  C   UNL     1       5.479   6.117  16.821  0.00  0.00    +0.000 A 
ENDROOT
BRANCH   1   8
ATOM      7  N   UNL     1       6.951   5.533  14.256  0.00  0.00    +0.000 NA
ATOM      8  C   UNL     1       6.967   4.825  15.333  0.00  0.00    +0.000 C 
BRANCH   7   9
ATOM      9  O   UNL     1       8.188   5.470  13.610  0.00  0.00    +0.000 OA
ATOM     10  H   UNL     1       8.738   6.059  14.188  0.00  0.00    +0.000 HD
ENDBRANCH   7   9
ENDBRANCH   1   8
BRANCH   4  11
ATOM     11  C   UNL     1       2.212   5.268  18.442  0.00  0.00    +0.000 C 
BRANCH  11  12
ATOM     12  C   UNL     1       2.333   6.132  19.695  0.00  0.00    +0.000 C 
BRANCH  12  13
ATOM     13  O   UNL     1       1.798   5.470  20.840  0.00  0.00    +0.000 OA
BRANCH  13  14
ATOM     14  C   UNL     1       1.152   4.243  20.451  0.00  0.00    +0.000 C 
BRANCH  14  15
ATOM     15  C   UNL     1       1.646   3.062  21.277  0.00  0.00    +0.000 C 
ATOM     16 CL   UNL     1       3.275   2.561  20.759  0.00  0.00    +0.000 Cl
ENDBRANCH  14  15
ENDBRANCH  13  14
ENDBRANCH  12  13
ENDBRANCH  11  12
ENDBRANCH   4  11
TORSDOF 7
ENDMDL
