MODEL 1
REMARK VINA RESULT:      -8.1      0.000      0.000
REMARK  Name = 
REMARK  10 active torsions:
REMARK  status: ('A' for Active; 'I' for Inactive)
REMARK    1  A    between atoms: N_1  and  C_2
REMARK    2  A    between atoms: C_2  and  C_3
REMARK    3  A    between atoms: C_6  and  C_7
REMARK    4  A    between atoms: C_10  and  S_11
REMARK    5  A    between atoms: S_11  and  C_12
REMARK    6  A    between atoms: C_12  and  C_13
REMARK    7  A    between atoms: N_15  and  C_16
REMARK    8  A    between atoms: N_21  and  C_22
REMARK    9  A    between atoms: C_22  and  C_23
REMARK   10  A    between atoms: C_23  and  C_24
REMARK                            x       y       z     vdW  Elec       q    Type
REMARK                         _______ _______ _______ _____ _____    ______ ____
ROOT
ATOM      1  C   UNL     1       2.930   7.593  18.045  0.00  0.00    +0.000 A 
ATOM      2  N   UNL     1       2.523   8.645  17.351  0.00  0.00    +0.000 NA
ATOM      3  N   UNL     1       1.629   9.370  18.106  0.00  0.00    +0.000 NA
ATOM      4  C   UNL     1       1.470   8.751  19.248  0.00  0.00    +0.000 A 
ATOM      5  N   UNL     1       2.254   7.615  19.272  0.00  0.00    +0.000 N 
ENDROOT
BRANCH   1   9
ATOM      6  C   UNL     1       5.590   4.684  16.260  0.00  0.00    +0.000 A 
ATOM      7  C   UNL     1       4.320   4.306  16.706  0.00  0.00    +0.000 A 
ATOM      8  C   UNL     1       3.487   5.226  17.352  0.00  0.00    +0.000 A 
ATOM      9  C   UNL     1       3.871   6.559  17.543  0.00  0.00    +0.000 A 
ATOM     10  C   UNL     1       5.188   6.901  17.199  0.00  0.00    +0.000 A 
ATOM     11  C   UNL     1       6.029   5.985  16.543  0.00  0.00    +0.000 A 
BRANCH   6  12
ATOM     12  C   UNL     1       6.457   3.706  15.510  0.00  0.00    +0.000 C 
BRANCH  12  13
ATOM     13  N   UNL     1       6.141   3.700  14.083  0.00  0.00    +0.000 NA
ATOM     14  H   UNL     1       6.917   3.286  13.571  0.00  0.00    +0.000 HD
ATOM     15  H   UNL     1       6.065   4.663  13.761  0.00  0.00    +0.000 HD
ENDBRANCH  12  13
ENDBRANCH   6  12
ENDBRANCH   1   9
BRANCH   4  16
ATOM     16  S   UNL     1       0.453   9.275  20.550  0.00  0.00    +0.000 S 
BRANCH  16  17
ATOM     17  C   UNL     1       0.536  11.075  20.559  0.00  0.00    +0.000 C 
BRANCH  17  18
ATOM     18  C   UNL     1      -0.209  11.638  19.348  0.00  0.00    +0.000 C 
ATOM     19  O   UNL     1       0.049  12.747  18.865  0.00  0.00    +0.000 OA
ATOM     20  N   UNL     1      -1.240  10.841  18.871  0.00  0.00    +0.000 N 
ATOM     21  H   UNL     1      -1.227   9.867  19.153  0.00  0.00    +0.000 HD
BRANCH  20  22
ATOM     22  C   UNL     1      -2.064  11.211  17.730  0.00  0.00    +0.000 C 
ATOM     23  C   UNL     1      -2.185  10.097  16.693  0.00  0.00    +0.000 C 
ATOM     24  C   UNL     1      -3.460  10.424  15.925  0.00  0.00    +0.000 C 
ATOM     25  C   UNL     1      -4.349  11.209  16.884  0.00  0.00    +0.000 C 
ATOM     26  C   UNL     1      -3.512  11.496  18.127  0.00  0.00    +0.000 C 
ENDBRANCH  20  22
ENDBRANCH  17  18
ENDBRANCH  16  17
ENDBRANCH   4  16
BRANCH   5  27
ATOM     27  C   UNL     1       2.456   6.666  20.355  0.00  0.00    +0.000 C 
BRANCH  27  28
ATOM     28  C   UNL     1       1.358   5.653  20.679  0.00  0.00    +0.000 C 
BRANCH  28  29
ATOM     29  C   UNL     1       1.727   4.284  20.183  0.00  0.00    +0.000 A 
ATOM     30  C   UNL     1       2.995   3.759  20.482  0.00  0.00    +0.000 A 
ATOM     31  C   UNL     1       3.402   2.540  19.938  0.00  0.00    +0.000 A 
ATOM     32  C   UNL     1       2.538   1.855  19.092  0.00  0.00    +0.000 A 
ATOM     33  C   UNL     1       1.253   2.348  18.824  0.00  0.00    +0.000 A 
ATOM     34  C   UNL     1       0.850   3.561  19.375  0.00  0.00    +0.000 A 
ENDBRANCH  28  29
ENDBRANCH  27  28
ENDBRANCH   5  27
TORSDOF 10
ENDMDL
MODEL 2
REMARK VINA RESULT:      -7.9      2.467      2.956
REMARK  Name = 
REMARK  10 active torsions:
REMARK  status: ('A' for Active; 'I' for Inactive)
REMARK    1  A    between atoms: N_1  and  C_2
REMARK    2  A    between atoms: C_2  and  C_3
REMARK    3  A    between atoms: C_6  and  C_7
REMARK    4  A    between atoms: C_10  and  S_11
REMARK    5  A    between atoms: S_11  and  C_12
REMARK    6  A    between atoms: C_12  and  C_13
REMARK    7  A    between atoms: N_15  and  C_16
REMARK    8  A    between atoms: N_21  and  C_22
REMARK    9  A    between atoms: C_22  and  C_23
REMARK   10  A    between atoms: C_23  and  C_24
REMARK                            x       y       z     vdW  Elec       q    Type
REMARK                         _______ _______ _______ _____ _____    ______ ____
ROOT
ATOM      1  C   UNL     1       2.683   7.304  19.092  0.00  0.00    +0.000 A 
ATOM      2  N   UNL     1       2.354   8.525  18.698  0.00  0.00    +0.000 NA
ATOM      3  N   UNL     1       1.338   9.002  19.494  0.00  0.00    +0.000 NA
ATOM      4  C   UNL     1       1.029   8.067  20.357  0.00  0.00    +0.000 A 
ATOM      5  N   UNL     1       1.832   6.964  20.152  0.00  0.00    +0.000 N 
ENDROOT
BRANCH   1   9
ATOM      6  C   UNL     1       5.912   5.104  17.232  0.00  0.00    +0.000 A 
ATOM      7  C   UNL     1       4.901   5.675  16.454  0.00  0.00    +0.000 A 
ATOM      8  C   UNL     1       3.816   6.322  17.056  0.00  0.00    +0.000 A 
ATOM      9  C   UNL     1       3.717   6.456  18.446  0.00  0.00    +0.000 A 
ATOM     10  C   UNL     1       4.672   5.781  19.223  0.00  0.00    +0.000 A 
ATOM     11  C   UNL     1       5.769   5.135  18.627  0.00  0.00    +0.000 A 
BRANCH   6  12
ATOM     12  C   UNL     1       7.109   4.464  16.577  0.00  0.00    +0.000 C 
BRANCH  12  13
ATOM     13  N   UNL     1       7.522   5.203  15.386  0.00  0.00    +0.000 NA
ATOM     14  H   UNL     1       7.694   6.174  15.639  0.00  0.00    +0.000 HD
ATOM     15  H   UNL     1       6.751   5.211  14.722  0.00  0.00    +0.000 HD
ENDBRANCH  12  13
ENDBRANCH   6  12
ENDBRANCH   1   9
BRANCH   4  16
ATOM     16  S   UNL     1      -0.185   8.188  21.588  0.00  0.00    +0.000 S 
BRANCH  16  17
ATOM     17  C   UNL     1       0.431   9.386  22.784  0.00  0.00    +0.000 C 
BRANCH  17  18
ATOM     18  C   UNL     1      -0.174  10.762  22.503  0.00  0.00    +0.000 C 
ATOM     19  O   UNL     1       0.436  11.644  21.887  0.00  0.00    +0.000 OA
ATOM     20  N   UNL     1      -1.434  10.972  23.046  0.00  0.00    +0.000 N 
ATOM     21  H   UNL     1      -1.954  10.144  23.315  0.00  0.00    +0.000 HD
BRANCH  20  22
ATOM     22  C   UNL     1      -2.167  12.219  22.889  0.00  0.00    +0.000 C 
ATOM     23  C   UNL     1      -2.779  12.382  21.500  0.00  0.00    +0.000 C 
ATOM     24  C   UNL     1      -3.912  13.382  21.695  0.00  0.00    +0.000 C 
ATOM     25  C   UNL     1      -4.363  13.243  23.145  0.00  0.00    +0.000 C 
ATOM     26  C   UNL     1      -3.369  12.309  23.829  0.00  0.00    +0.000 C 
ENDBRANCH  20  22
ENDBRANCH  17  18
ENDBRANCH  16  17
ENDBRANCH   4  16
BRANCH   5  27
ATOM     27  C   UNL     1       1.899   5.726  20.912  0.00  0.00    +0.000 C 
BRANCH  27  28
ATOM     28  C   UNL     1       1.059   4.528  20.469  0.00  0.00    +0.000 C 
BRANCH  28  29
ATOM     29  C   UNL     1       1.852   3.619  19.572  0.00  0.00    +0.000 A 
ATOM     30  C   UNL     1       2.874   2.827  20.122  0.00  0.00    +0.000 A 
ATOM     31  C   UNL     1       3.697   2.062  19.294  0.00  0.00    +0.000 A 
ATOM     32  C   UNL     1       3.496   2.099  17.919  0.00  0.00    +0.000 A 
ATOM     33  C   UNL     1       2.450   2.851  17.366  0.00  0.00    +0.000 A 
ATOM     34  C   UNL     1       1.627   3.606  18.197  0.00  0.00    +0.000 A 
ENDBRANCH  28  29
ENDBRANCH  27  28
ENDBRANCH   5  27
TORSDOF 10
ENDMDL
MODEL 3
REMARK VINA RESULT:      -7.8      2.023      2.842
REMARK  Name = 
REMARK  10 active torsions:
REMARK  status: ('A' for Active; 'I' for Inactive)
REMARK    1  A    between atoms: N_1  and  C_2
REMARK    2  A    between atoms: C_2  and  C_3
REMARK    3  A    between atoms: C_6  and  C_7
REMARK    4  A    between atoms: C_10  and  S_11
REMARK    5  A    between atoms: S_11  and  C_12
REMARK    6  A    between atoms: C_12  and  C_13
REMARK    7  A    between atoms: N_15  and  C_16
REMARK    8  A    between atoms: N_21  and  C_22
REMARK    9  A    between atoms: C_22  and  C_23
REMARK   10  A    between atoms: C_23  and  C_24
REMARK                            x       y       z     vdW  Elec       q    Type
REMARK                         _______ _______ _______ _____ _____    ______ ____
ROOT
ATOM      1  C   UNL     1       3.008   7.575  18.153  0.00  0.00    +0.000 A 
ATOM      2  N   UNL     1       2.511   8.645  17.552  0.00  0.00    +0.000 NA
ATOM      3  N   UNL     1       1.567   9.227  18.367  0.00  0.00    +0.000 NA
ATOM      4  C   UNL     1       1.469   8.502  19.452  0.00  0.00    +0.000 A 
ATOM      5  N   UNL     1       2.343   7.437  19.378  0.00  0.00    +0.000 N 
ENDROOT
BRANCH   1   9
ATOM      6  C   UNL     1       5.922   5.096  16.130  0.00  0.00    +0.000 A 
ATOM      7  C   UNL     1       4.628   4.624  16.365  0.00  0.00    +0.000 A 
ATOM      8  C   UNL     1       3.706   5.392  17.084  0.00  0.00    +0.000 A 
ATOM      9  C   UNL     1       4.027   6.669  17.563  0.00  0.00    +0.000 A 
ATOM     10  C   UNL     1       5.360   7.087  17.426  0.00  0.00    +0.000 A 
ATOM     11  C   UNL     1       6.290   6.324  16.698  0.00  0.00    +0.000 A 
BRANCH   6  12
ATOM     12  C   UNL     1       6.890   4.291  15.301  0.00  0.00    +0.000 C 
BRANCH  12  13
ATOM     13  N   UNL     1       7.611   5.138  14.354  0.00  0.00    +0.000 NA
ATOM     14  H   UNL     1       8.094   5.875  14.865  0.00  0.00    +0.000 HD
ATOM     15  H   UNL     1       6.935   5.603  13.750  0.00  0.00    +0.000 HD
ENDBRANCH  12  13
ENDBRANCH   6  12
ENDBRANCH   1   9
BRANCH   4  16
ATOM     16  S   UNL     1       0.423   8.828  20.795  0.00  0.00    +0.000 S 
BRANCH  16  17
ATOM     17  C   UNL     1      -0.476  10.333  20.379  0.00  0.00    +0.000 C 
BRANCH  17  18
ATOM     18  C   UNL     1       0.424  11.552  20.589  0.00  0.00    +0.000 C 
ATOM     19  O   UNL     1       0.625  12.047  21.704  0.00  0.00    +0.000 OA
ATOM     20  N   UNL     1       0.946  12.102  19.426  0.00  0.00    +0.000 N 
ATOM     21  H   UNL     1       0.938  11.511  18.603  0.00  0.00    +0.000 HD
BRANCH  20  22
ATOM     22  C   UNL     1       1.818  13.267  19.424  0.00  0.00    +0.000 C 
ATOM     23  C   UNL     1       2.819  13.263  18.270  0.00  0.00    +0.000 C 
ATOM     24  C   UNL     1       3.213  14.725  18.099  0.00  0.00    +0.000 C 
ATOM     25  C   UNL     1       2.032  15.550  18.599  0.00  0.00    +0.000 C 
ATOM     26  C   UNL     1       1.045  14.572  19.230  0.00  0.00    +0.000 C 
ENDBRANCH  20  22
ENDBRANCH  17  18
ENDBRANCH  16  17
ENDBRANCH   4  16
BRANCH   5  27
ATOM     27  C   UNL     1       2.632   6.418  20.375  0.00  0.00    +0.000 C 
BRANCH  27  28
ATOM     28  C   UNL     1       1.642   5.272  20.583  0.00  0.00    +0.000 C 
BRANCH  28  29
ATOM     29  C   UNL     1       2.110   4.026  19.885  0.00  0.00    +0.000 A 
ATOM     30  C   UNL     1       3.406   3.543  20.129  0.00  0.00    +0.000 A 
ATOM     31  C   UNL     1       3.903   2.456  19.408  0.00  0.00    +0.000 A 
ATOM     32  C   UNL     1       3.099   1.861  18.442  0.00  0.00    +0.000 A 
ATOM     33  C   UNL     1       1.787   2.307  18.224  0.00  0.00    +0.000 A 
ATOM     34  C   UNL     1       1.296   3.388  18.951  0.00  0.00    +0.000 A 
ENDBRANCH  28  29
ENDBRANCH  27  28
ENDBRANCH   5  27
TORSDOF 10
ENDMDL
MODEL 4
REMARK VINA RESULT:      -7.7      0.834      1.202
REMARK  Name = 
REMARK  10 active torsions:
REMARK  status: ('A' for Active; 'I' for Inactive)
REMARK    1  A    between atoms: N_1  and  C_2
REMARK    2  A    between atoms: C_2  and  C_3
REMARK    3  A    between atoms: C_6  and  C_7
REMARK    4  A    between atoms: C_10  and  S_11
REMARK    5  A    between atoms: S_11  and  C_12
REMARK    6  A    between atoms: C_12  and  C_13
REMARK    7  A    between atoms: N_15  and  C_16
REMARK    8  A    between atoms: N_21  and  C_22
REMARK    9  A    between atoms: C_22  and  C_23
REMARK   10  A    between atoms: C_23  and  C_24
REMARK                            x       y       z     vdW  Elec       q    Type
REMARK                         _______ _______ _______ _____ _____    ______ ____
ROOT
ATOM      1  C   UNL     1       2.635   7.920  18.145  0.00  0.00    +0.000 A 
ATOM      2  N   UNL     1       2.175   8.877  17.354  0.00  0.00    +0.000 NA
ATOM      3  N   UNL     1       1.263   9.641  18.046  0.00  0.00    +0.000 NA
ATOM      4  C   UNL     1       1.146   9.138  19.249  0.00  0.00    +0.000 A 
ATOM      5  N   UNL     1       1.976   8.042  19.376  0.00  0.00    +0.000 N 
ENDROOT
BRANCH   1   9
ATOM      6  C   UNL     1       5.428   4.987  16.621  0.00  0.00    +0.000 A 
ATOM      7  C   UNL     1       4.118   4.621  16.941  0.00  0.00    +0.000 A 
ATOM      8  C   UNL     1       3.234   5.548  17.505  0.00  0.00    +0.000 A 
ATOM      9  C   UNL     1       3.610   6.878  17.735  0.00  0.00    +0.000 A 
ATOM     10  C   UNL     1       4.958   7.207  17.521  0.00  0.00    +0.000 A 
ATOM     11  C   UNL     1       5.850   6.283  16.949  0.00  0.00    +0.000 A 
BRANCH   6  12
ATOM     12  C   UNL     1       6.355   4.001  15.957  0.00  0.00    +0.000 C 
BRANCH  12  13
ATOM     13  N   UNL     1       7.702   4.076  16.519  0.00  0.00    +0.000 NA
ATOM     14  H   UNL     1       8.380   4.079  15.760  0.00  0.00    +0.000 HD
ATOM     15  H   UNL     1       7.879   3.231  17.059  0.00  0.00    +0.000 HD
ENDBRANCH  12  13
ENDBRANCH   6  12
ENDBRANCH   1   9
BRANCH   4  16
ATOM     16  S   UNL     1       0.126   9.753  20.508  0.00  0.00    +0.000 S 
BRANCH  16  17
ATOM     17  C   UNL     1       0.261  11.548  20.431  0.00  0.00    +0.000 C 
BRANCH  17  18
ATOM     18  C   UNL     1      -0.886  12.123  19.600  0.00  0.00    +0.000 C 
ATOM     19  O   UNL     1      -1.470  13.169  19.904  0.00  0.00    +0.000 OA
ATOM     20  N   UNL     1      -1.269  11.348  18.514  0.00  0.00    +0.000 N 
ATOM     21  H   UNL     1      -0.601  10.654  18.196  0.00  0.00    +0.000 HD
BRANCH  20  22
ATOM     22  C   UNL     1      -2.344  11.727  17.609  0.00  0.00    +0.000 C 
ATOM     23  C   UNL     1      -2.384  10.881  16.339  0.00  0.00    +0.000 C 
ATOM     24  C   UNL     1      -3.815  11.016  15.833  0.00  0.00    +0.000 C 
ATOM     25  C   UNL     1      -4.678  11.301  17.057  0.00  0.00    +0.000 C 
ATOM     26  C   UNL     1      -3.726  11.518  18.229  0.00  0.00    +0.000 C 
ENDBRANCH  20  22
ENDBRANCH  17  18
ENDBRANCH  16  17
ENDBRANCH   4  16
BRANCH   5  27
ATOM     27  C   UNL     1       2.232   7.219  20.546  0.00  0.00    +0.000 C 
BRANCH  27  28
ATOM     28  C   UNL     1       1.237   6.121  20.923  0.00  0.00    +0.000 C 
BRANCH  28  29
ATOM     29  C   UNL     1       1.703   4.781  20.427  0.00  0.00    +0.000 A 
ATOM     30  C   UNL     1       0.786   3.917  19.806  0.00  0.00    +0.000 A 
ATOM     31  C   UNL     1       1.168   2.625  19.441  0.00  0.00    +0.000 A 
ATOM     32  C   UNL     1       2.465   2.203  19.706  0.00  0.00    +0.000 A 
ATOM     33  C   UNL     1       3.400   3.073  20.284  0.00  0.00    +0.000 A 
ATOM     34  C   UNL     1       3.016   4.363  20.640  0.00  0.00    +0.000 A 
ENDBRANCH  28  29
ENDBRANCH  27  28
ENDBRANCH   5  27
TORSDOF 10
ENDMDL
MODEL 5
REMARK VINA RESULT:      -7.6      2.541      3.428
REMARK  Name = 
REMARK  10 active torsions:
REMARK  status: ('A' for Active; 'I' for Inactive)
REMARK    1  A    between atoms: N_1  and  C_2
REMARK    2  A    between atoms: C_2  and  C_3
REMARK    3  A    between atoms: C_6  and  C_7
REMARK    4  A    between atoms: C_10  and  S_11
REMARK    5  A    between atoms: S_11  and  C_12
REMARK    6  A    between atoms: C_12  and  C_13
REMARK    7  A    between atoms: N_15  and  C_16
REMARK    8  A    between atoms: N_21  and  C_22
REMARK    9  A    between atoms: C_22  and  C_23
REMARK   10  A    between atoms: C_23  and  C_24
REMARK                            x       y       z     vdW  Elec       q    Type
REMARK                         _______ _______ _______ _____ _____    ______ ____
ROOT
ATOM      1  C   UNL     1       2.941   7.603  18.188  0.00  0.00    +0.000 A 
ATOM      2  N   UNL     1       2.440   8.672  17.587  0.00  0.00    +0.000 NA
ATOM      3  N   UNL     1       1.500   9.255  18.404  0.00  0.00    +0.000 NA
ATOM      4  C   UNL     1       1.406   8.533  19.492  0.00  0.00    +0.000 A 
ATOM      5  N   UNL     1       2.281   7.468  19.417  0.00  0.00    +0.000 N 
ENDROOT
BRANCH   1   9
ATOM      6  C   UNL     1       5.852   5.125  16.160  0.00  0.00    +0.000 A 
ATOM      7  C   UNL     1       4.553   4.660  16.381  0.00  0.00    +0.000 A 
ATOM      8  C   UNL     1       3.632   5.427  17.102  0.00  0.00    +0.000 A 
ATOM      9  C   UNL     1       3.957   6.696  17.596  0.00  0.00    +0.000 A 
ATOM     10  C   UNL     1       5.294   7.106  17.473  0.00  0.00    +0.000 A 
ATOM     11  C   UNL     1       6.224   6.345  16.744  0.00  0.00    +0.000 A 
BRANCH   6  12
ATOM     12  C   UNL     1       6.820   4.322  15.330  0.00  0.00    +0.000 C 
BRANCH  12  13
ATOM     13  N   UNL     1       7.663   5.189  14.509  0.00  0.00    +0.000 NA
ATOM     14  H   UNL     1       7.530   4.952  13.528  0.00  0.00    +0.000 HD
ATOM     15  H   UNL     1       8.640   4.992  14.722  0.00  0.00    +0.000 HD
ENDBRANCH  12  13
ENDBRANCH   6  12
ENDBRANCH   1   9
BRANCH   4  16
ATOM     16  S   UNL     1       0.366   8.861  20.838  0.00  0.00    +0.000 S 
BRANCH  16  17
ATOM     17  C   UNL     1       0.382  10.649  21.061  0.00  0.00    +0.000 C 
BRANCH  17  18
ATOM     18  C   UNL     1      -0.289  11.015  22.386  0.00  0.00    +0.000 C 
ATOM     19  O   UNL     1      -0.191  10.312  23.399  0.00  0.00    +0.000 OA
ATOM     20  N   UNL     1      -1.071  12.161  22.350  0.00  0.00    +0.000 N 
ATOM     21  H   UNL     1      -0.905  12.798  21.578  0.00  0.00    +0.000 HD
BRANCH  20  22
ATOM     22  C   UNL     1      -1.791  12.666  23.510  0.00  0.00    +0.000 C 
ATOM     23  C   UNL     1      -1.758  14.188  23.619  0.00  0.00    +0.000 C 
ATOM     24  C   UNL     1      -2.962  14.537  24.486  0.00  0.00    +0.000 C 
ATOM     25  C   UNL     1      -3.976  13.416  24.282  0.00  0.00    +0.000 C 
ATOM     26  C   UNL     1      -3.283  12.337  23.456  0.00  0.00    +0.000 C 
ENDBRANCH  20  22
ENDBRANCH  17  18
ENDBRANCH  16  17
ENDBRANCH   4  16
BRANCH   5  27
ATOM     27  C   UNL     1       2.574   6.452  20.415  0.00  0.00    +0.000 C 
BRANCH  27  28
ATOM     28  C   UNL     1       1.645   5.245  20.552  0.00  0.00    +0.000 C 
BRANCH  28  29
ATOM     29  C   UNL     1       2.190   4.061  19.805  0.00  0.00    +0.000 A 
ATOM     30  C   UNL     1       1.351   3.351  18.930  0.00  0.00    +0.000 A 
ATOM     31  C   UNL     1       1.800   2.182  18.314  0.00  0.00    +0.000 A 
ATOM     32  C   UNL     1       3.085   1.726  18.582  0.00  0.00    +0.000 A 
ATOM     33  C   UNL     1       3.945   2.453  19.419  0.00  0.00    +0.000 A 
ATOM     34  C   UNL     1       3.494   3.622  20.025  0.00  0.00    +0.000 A 
ENDBRANCH  28  29
ENDBRANCH  27  28
ENDBRANCH   5  27
TORSDOF 10
ENDMDL
MODEL 6
REMARK VINA RESULT:      -7.6      2.455      3.254
REMARK  Name = 
REMARK  10 active torsions:
REMARK  status: ('A' for Active; 'I' for Inactive)
REMARK    1  A    between atoms: N_1  and  C_2
REMARK    2  A    between atoms: C_2  and  C_3
REMARK    3  A    between atoms: C_6  and  C_7
REMARK    4  A    between atoms: C_10  and  S_11
REMARK    5  A    between atoms: S_11  and  C_12
REMARK    6  A    between atoms: C_12  and  C_13
REMARK    7  A    between atoms: N_15  and  C_16
REMARK    8  A    between atoms: N_21  and  C_22
REMARK    9  A    between atoms: C_22  and  C_23
REMARK   10  A    between atoms: C_23  and  C_24
REMARK                            x       y       z     vdW  Elec       q    Type
REMARK                         _______ _______ _______ _____ _____    ______ ____
ROOT
ATOM      1  C   UNL     1       2.733   7.630  18.122  0.00  0.00    +0.000 A 
ATOM      2  N   UNL     1       2.247   8.755  17.621  0.00  0.00    +0.000 NA
ATOM      3  N   UNL     1       1.490   9.390  18.580  0.00  0.00    +0.000 NA
ATOM      4  C   UNL     1       1.492   8.644  19.655  0.00  0.00    +0.000 A 
ATOM      5  N   UNL     1       2.250   7.512  19.432  0.00  0.00    +0.000 N 
ENDROOT
BRANCH   1   9
ATOM      6  C   UNL     1       5.334   4.735  16.229  0.00  0.00    +0.000 A 
ATOM      7  C   UNL     1       5.596   6.104  16.121  0.00  0.00    +0.000 A 
ATOM      8  C   UNL     1       4.717   7.045  16.667  0.00  0.00    +0.000 A 
ATOM      9  C   UNL     1       3.568   6.659  17.369  0.00  0.00    +0.000 A 
ATOM     10  C   UNL     1       3.251   5.292  17.373  0.00  0.00    +0.000 A 
ATOM     11  C   UNL     1       4.132   4.339  16.833  0.00  0.00    +0.000 A 
BRANCH   6  12
ATOM     12  C   UNL     1       6.316   3.725  15.694  0.00  0.00    +0.000 C 
BRANCH  12  13
ATOM     13  N   UNL     1       6.316   3.705  14.233  0.00  0.00    +0.000 NA
ATOM     14  H   UNL     1       6.160   2.752  13.912  0.00  0.00    +0.000 HD
ATOM     15  H   UNL     1       7.241   3.972  13.902  0.00  0.00    +0.000 HD
ENDBRANCH  12  13
ENDBRANCH   6  12
ENDBRANCH   1   9
BRANCH   4  16
ATOM     16  S   UNL     1       0.692   9.017  21.146  0.00  0.00    +0.000 S 
BRANCH  16  17
ATOM     17  C   UNL     1       0.065  10.697  20.974  0.00  0.00    +0.000 C 
BRANCH  17  18
ATOM     18  C   UNL     1      -0.665  11.115  22.251  0.00  0.00    +0.000 C 
ATOM     19  O   UNL     1      -0.347  10.691  23.369  0.00  0.00    +0.000 OA
ATOM     20  N   UNL     1      -1.754  11.954  22.057  0.00  0.00    +0.000 N 
ATOM     21  H   UNL     1      -1.797  12.440  21.168  0.00  0.00    +0.000 HD
BRANCH  20  22
ATOM     22  C   UNL     1      -2.574  12.453  23.150  0.00  0.00    +0.000 C 
ATOM     23  C   UNL     1      -2.075  13.781  23.715  0.00  0.00    +0.000 C 
ATOM     24  C   UNL     1      -3.295  14.392  24.393  0.00  0.00    +0.000 C 
ATOM     25  C   UNL     1      -4.515  13.832  23.668  0.00  0.00    +0.000 C 
ATOM     26  C   UNL     1      -4.005  12.760  22.710  0.00  0.00    +0.000 C 
ENDBRANCH  20  22
ENDBRANCH  17  18
ENDBRANCH  16  17
ENDBRANCH   4  16
BRANCH   5  27
ATOM     27  C   UNL     1       2.594   6.444  20.357  0.00  0.00    +0.000 C 
BRANCH  27  28
ATOM     28  C   UNL     1       1.519   5.443  20.780  0.00  0.00    +0.000 C 
BRANCH  28  29
ATOM     29  C   UNL     1       1.789   4.086  20.194  0.00  0.00    +0.000 A 
ATOM     30  C   UNL     1       3.045   3.487  20.387  0.00  0.00    +0.000 A 
ATOM     31  C   UNL     1       3.357   2.281  19.759  0.00  0.00    +0.000 A 
ATOM     32  C   UNL     1       2.412   1.684  18.933  0.00  0.00    +0.000 A 
ATOM     33  C   UNL     1       1.140   2.251  18.770  0.00  0.00    +0.000 A 
ATOM     34  C   UNL     1       0.831   3.450  19.405  0.00  0.00    +0.000 A 
ENDBRANCH  28  29
ENDBRANCH  27  28
ENDBRANCH   5  27
TORSDOF 10
ENDMDL
MODEL 7
REMARK VINA RESULT:      -7.6      2.331      3.129
REMARK  Name = 
REMARK  10 active torsions:
REMARK  status: ('A' for Active; 'I' for Inactive)
REMARK    1  A    between atoms: N_1  and  C_2
REMARK    2  A    between atoms: C_2  and  C_3
REMARK    3  A    between atoms: C_6  and  C_7
REMARK    4  A    between atoms: C_10  and  S_11
REMARK    5  A    between atoms: S_11  and  C_12
REMARK    6  A    between atoms: C_12  and  C_13
REMARK    7  A    between atoms: N_15  and  C_16
REMARK    8  A    between atoms: N_21  and  C_22
REMARK    9  A    between atoms: C_22  and  C_23
REMARK   10  A    between atoms: C_23  and  C_24
REMARK                            x       y       z     vdW  Elec       q    Type
REMARK                         _______ _______ _______ _____ _____    ______ ____
ROOT
ATOM      1  C   UNL     1       2.911   7.590  18.199  0.00  0.00    +0.000 A 
ATOM      2  N   UNL     1       2.413   8.665  17.607  0.00  0.00    +0.000 NA
ATOM      3  N   UNL     1       1.464   9.236  18.425  0.00  0.00    +0.000 NA
ATOM      4  C   UNL     1       1.363   8.498  19.502  0.00  0.00    +0.000 A 
ATOM      5  N   UNL     1       2.241   7.436  19.420  0.00  0.00    +0.000 N 
ENDROOT
BRANCH   1   9
ATOM      6  C   UNL     1       5.811   5.114  16.154  0.00  0.00    +0.000 A 
ATOM      7  C   UNL     1       4.562   4.598  16.509  0.00  0.00    +0.000 A 
ATOM      8  C   UNL     1       3.650   5.372  17.236  0.00  0.00    +0.000 A 
ATOM      9  C   UNL     1       3.934   6.693  17.603  0.00  0.00    +0.000 A 
ATOM     10  C   UNL     1       5.232   7.163  17.347  0.00  0.00    +0.000 A 
ATOM     11  C   UNL     1       6.151   6.395  16.610  0.00  0.00    +0.000 A 
BRANCH   6  12
ATOM     12  C   UNL     1       6.763   4.298  15.317  0.00  0.00    +0.000 C 
BRANCH  12  13
ATOM     13  N   UNL     1       7.657   5.155  14.541  0.00  0.00    +0.000 NA
ATOM     14  H   UNL     1       8.060   5.860  15.156  0.00  0.00    +0.000 HD
ATOM     15  H   UNL     1       7.107   5.659  13.848  0.00  0.00    +0.000 HD
ENDBRANCH  12  13
ENDBRANCH   6  12
ENDBRANCH   1   9
BRANCH   4  16
ATOM     16  S   UNL     1       0.311   8.806  20.844  0.00  0.00    +0.000 S 
BRANCH  16  17
ATOM     17  C   UNL     1       0.773  10.425  21.484  0.00  0.00    +0.000 C 
BRANCH  17  18
ATOM     18  C   UNL     1      -0.435  11.363  21.455  0.00  0.00    +0.000 C 
ATOM     19  O   UNL     1      -1.026  11.654  20.409  0.00  0.00    +0.000 OA
ATOM     20  N   UNL     1      -0.778  11.915  22.681  0.00  0.00    +0.000 N 
ATOM     21  H   UNL     1      -0.414  11.449  23.505  0.00  0.00    +0.000 HD
BRANCH  20  22
ATOM     22  C   UNL     1      -1.894  12.832  22.852  0.00  0.00    +0.000 C 
ATOM     23  C   UNL     1      -3.089  12.196  23.558  0.00  0.00    +0.000 C 
ATOM     24  C   UNL     1      -3.868  13.374  24.132  0.00  0.00    +0.000 C 
ATOM     25  C   UNL     1      -2.852  14.489  24.360  0.00  0.00    +0.000 C 
ATOM     26  C   UNL     1      -1.537  14.023  23.742  0.00  0.00    +0.000 C 
ENDBRANCH  20  22
ENDBRANCH  17  18
ENDBRANCH  16  17
ENDBRANCH   4  16
BRANCH   5  27
ATOM     27  C   UNL     1       2.528   6.408  20.407  0.00  0.00    +0.000 C 
BRANCH  27  28
ATOM     28  C   UNL     1       1.528   5.271  20.618  0.00  0.00    +0.000 C 
BRANCH  28  29
ATOM     29  C   UNL     1       2.005   4.007  19.961  0.00  0.00    +0.000 A 
ATOM     30  C   UNL     1       3.295   3.528  20.241  0.00  0.00    +0.000 A 
ATOM     31  C   UNL     1       3.802   2.421  19.558  0.00  0.00    +0.000 A 
ATOM     32  C   UNL     1       3.015   1.804  18.593  0.00  0.00    +0.000 A 
ATOM     33  C   UNL     1       1.708   2.246  18.340  0.00  0.00    +0.000 A 
ATOM     34  C   UNL     1       1.206   3.347  19.029  0.00  0.00    +0.000 A 
ENDBRANCH  28  29
ENDBRANCH  27  28
ENDBRANCH   5  27
TORSDOF 10
ENDMDL
MODEL 8
REMARK VINA RESULT:      -7.4      2.195      3.029
REMARK  Name = 
REMARK  10 active torsions:
REMARK  status: ('A' for Active; 'I' for Inactive)
REMARK    1  A    between atoms: N_1  and  C_2
REMARK    2  A    between atoms: C_2  and  C_3
REMARK    3  A    between atoms: C_6  and  C_7
REMARK    4  A    between atoms: C_10  and  S_11
REMARK    5  A    between atoms: S_11  and  C_12
REMARK    6  A    between atoms: C_12  and  C_13
REMARK    7  A    between atoms: N_15  and  C_16
REMARK    8  A    between atoms: N_21  and  C_22
REMARK    9  A    between atoms: C_22  and  C_23
REMARK   10  A    between atoms: C_23  and  C_24
REMARK                            x       y       z     vdW  Elec       q    Type
REMARK                         _______ _______ _______ _____ _____    ______ ____
ROOT
ATOM      1  C   UNL     1       3.065   7.535  18.013  0.00  0.00    +0.000 A 
ATOM      2  N   UNL     1       2.643   8.600  17.350  0.00  0.00    +0.000 NA
ATOM      3  N   UNL     1       1.721   9.278  18.117  0.00  0.00    +0.000 NA
ATOM      4  C   UNL     1       1.561   8.616  19.234  0.00  0.00    +0.000 A 
ATOM      5  N   UNL     1       2.372   7.498  19.231  0.00  0.00    +0.000 N 
ENDROOT
BRANCH   1   9
ATOM      6  C   UNL     1       5.837   4.771  16.171  0.00  0.00    +0.000 A 
ATOM      7  C   UNL     1       4.542   4.363  16.501  0.00  0.00    +0.000 A 
ATOM      8  C   UNL     1       3.668   5.231  17.165  0.00  0.00    +0.000 A 
ATOM      9  C   UNL     1       4.037   6.542  17.490  0.00  0.00    +0.000 A 
ATOM     10  C   UNL     1       5.374   6.904  17.262  0.00  0.00    +0.000 A 
ATOM     11  C   UNL     1       6.257   6.041  16.589  0.00  0.00    +0.000 A 
BRANCH   6  12
ATOM     12  C   UNL     1       6.753   3.854  15.400  0.00  0.00    +0.000 C 
BRANCH  12  13
ATOM     13  N   UNL     1       6.216   3.558  14.074  0.00  0.00    +0.000 NA
ATOM     14  H   UNL     1       5.685   4.361  13.742  0.00  0.00    +0.000 HD
ATOM     15  H   UNL     1       5.553   2.789  14.153  0.00  0.00    +0.000 HD
ENDBRANCH  12  13
ENDBRANCH   6  12
ENDBRANCH   1   9
BRANCH   4  16
ATOM     16  S   UNL     1       0.514   9.070  20.538  0.00  0.00    +0.000 S 
BRANCH  16  17
ATOM     17  C   UNL     1      -0.196  10.661  20.081  0.00  0.00    +0.000 C 
BRANCH  17  18
ATOM     18  C   UNL     1      -0.272  11.570  21.309  0.00  0.00    +0.000 C 
ATOM     19  O   UNL     1       0.712  12.175  21.751  0.00  0.00    +0.000 OA
ATOM     20  N   UNL     1      -1.513  11.615  21.930  0.00  0.00    +0.000 N 
ATOM     21  H   UNL     1      -2.305  11.299  21.381  0.00  0.00    +0.000 HD
BRANCH  20  22
ATOM     22  C   UNL     1      -1.777  12.419  23.113  0.00  0.00    +0.000 C 
ATOM     23  C   UNL     1      -1.604  13.917  22.870  0.00  0.00    +0.000 C 
ATOM     24  C   UNL     1      -2.432  14.582  23.962  0.00  0.00    +0.000 C 
ATOM     25  C   UNL     1      -3.534  13.592  24.328  0.00  0.00    +0.000 C 
ATOM     26  C   UNL     1      -3.225  12.294  23.589  0.00  0.00    +0.000 C 
ENDBRANCH  20  22
ENDBRANCH  17  18
ENDBRANCH  16  17
ENDBRANCH   4  16
BRANCH   5  27
ATOM     27  C   UNL     1       2.582   6.517  20.283  0.00  0.00    +0.000 C 
BRANCH  27  28
ATOM     28  C   UNL     1       1.507   5.463  20.551  0.00  0.00    +0.000 C 
BRANCH  28  29
ATOM     29  C   UNL     1       1.909   4.130  19.986  0.00  0.00    +0.000 A 
ATOM     30  C   UNL     1       3.184   3.615  20.272  0.00  0.00    +0.000 A 
ATOM     31  C   UNL     1       3.622   2.435  19.668  0.00  0.00    +0.000 A 
ATOM     32  C   UNL     1       2.782   1.782  18.774  0.00  0.00    +0.000 A 
ATOM     33  C   UNL     1       1.491   2.264  18.517  0.00  0.00    +0.000 A 
ATOM     34  C   UNL     1       1.057   3.437  19.128  0.00  0.00    +0.000 A 
ENDBRANCH  28  29
ENDBRANCH  27  28
ENDBRANCH   5  27
TORSDOF 10
ENDMDL
MODEL 9
REMARK VINA RESULT:      -7.4      2.024      3.009
REMARK  Name = 
REMARK  10 active torsions:
REMARK  status: ('A' for Active; 'I' for Inactive)
REMARK    1  A    between atoms: N_1  and  C_2
REMARK    2  A    between atoms: C_2  and  C_3
REMARK    3  A    between atoms: C_6  and  C_7
REMARK    4  A    between atoms: C_10  and  S_11
REMARK    5  A    between atoms: S_11  and  C_12
REMARK    6  A    between atoms: C_12  and  C_13
REMARK    7  A    between atoms: N_15  and  C_16
REMARK    8  A    between atoms: N_21  and  C_22
REMARK    9  A    between atoms: C_22  and  C_23
REMARK   10  A    between atoms: C_23  and  C_24
REMARK                            x       y       z     vdW  Elec       q    Type
REMARK                         _______ _______ _______ _____ _____    ______ ____
ROOT
ATOM      1  C   UNL     1       2.662   7.921  18.149  0.00  0.00    +0.000 A 
ATOM      2  N   UNL     1       2.157   8.999  17.569  0.00  0.00    +0.000 NA
ATOM      3  N   UNL     1       1.267   9.603  18.426  0.00  0.00    +0.000 NA
ATOM      4  C   UNL     1       1.207   8.885  19.518  0.00  0.00    +0.000 A 
ATOM      5  N   UNL     1       2.055   7.801  19.407  0.00  0.00    +0.000 N 
ENDROOT
BRANCH   1   9
ATOM      6  C   UNL     1       5.599   5.135  16.622  0.00  0.00    +0.000 A 
ATOM      7  C   UNL     1       5.855   6.509  16.621  0.00  0.00    +0.000 A 
ATOM      8  C   UNL     1       4.880   7.418  17.044  0.00  0.00    +0.000 A 
ATOM      9  C   UNL     1       3.631   6.992  17.515  0.00  0.00    +0.000 A 
ATOM     10  C   UNL     1       3.339   5.624  17.403  0.00  0.00    +0.000 A 
ATOM     11  C   UNL     1       4.316   4.703  16.986  0.00  0.00    +0.000 A 
BRANCH   6  12
ATOM     12  C   UNL     1       6.676   4.158  16.225  0.00  0.00    +0.000 C 
BRANCH  12  13
ATOM     13  N   UNL     1       7.470   4.666  15.108  0.00  0.00    +0.000 NA
ATOM     14  H   UNL     1       6.895   4.676  14.267  0.00  0.00    +0.000 HD
ATOM     15  H   UNL     1       8.232   4.016  14.926  0.00  0.00    +0.000 HD
ENDBRANCH  12  13
ENDBRANCH   6  12
ENDBRANCH   1   9
BRANCH   4  16
ATOM     16  S   UNL     1       0.235   9.237  20.910  0.00  0.00    +0.000 S 
BRANCH  16  17
ATOM     17  C   UNL     1      -0.614  10.785  20.551  0.00  0.00    +0.000 C 
BRANCH  17  18
ATOM     18  C   UNL     1       0.358  11.957  20.690  0.00  0.00    +0.000 C 
ATOM     19  O   UNL     1       0.618  12.481  21.780  0.00  0.00    +0.000 OA
ATOM     20  N   UNL     1       0.878  12.434  19.494  0.00  0.00    +0.000 N 
ATOM     21  H   UNL     1       0.814  11.814  18.695  0.00  0.00    +0.000 HD
BRANCH  20  22
ATOM     22  C   UNL     1       1.814  13.545  19.425  0.00  0.00    +0.000 C 
ATOM     23  C   UNL     1       2.787  13.437  18.253  0.00  0.00    +0.000 C 
ATOM     24  C   UNL     1       3.259  14.865  18.012  0.00  0.00    +0.000 C 
ATOM     25  C   UNL     1       2.137  15.776  18.500  0.00  0.00    +0.000 C 
ATOM     26  C   UNL     1       1.111  14.883  19.191  0.00  0.00    +0.000 C 
ENDBRANCH  20  22
ENDBRANCH  17  18
ENDBRANCH  16  17
ENDBRANCH   4  16
BRANCH   5  27
ATOM     27  C   UNL     1       2.372   6.781  20.394  0.00  0.00    +0.000 C 
BRANCH  27  28
ATOM     28  C   UNL     1       1.321   5.729  20.747  0.00  0.00    +0.000 C 
BRANCH  28  29
ATOM     29  C   UNL     1       1.722   4.376  20.232  0.00  0.00    +0.000 A 
ATOM     30  C   UNL     1       2.988   3.862  20.555  0.00  0.00    +0.000 A 
ATOM     31  C   UNL     1       3.427   2.660  19.996  0.00  0.00    +0.000 A 
ATOM     32  C   UNL     1       2.596   1.983  19.112  0.00  0.00    +0.000 A 
ATOM     33  C   UNL     1       1.312   2.464  18.819  0.00  0.00    +0.000 A 
ATOM     34  C   UNL     1       0.877   3.660  19.385  0.00  0.00    +0.000 A 
ENDBRANCH  28  29
ENDBRANCH  27  28
ENDBRANCH   5  27
TORSDOF 10
ENDMDL
