MODEL 1
REMARK VINA RESULT:      -7.0      0.000      0.000
REMARK  Name = 
REMARK  7 active torsions:
REMARK  status: ('A' for Active; 'I' for Inactive)
REMARK    1  A    between atoms: C_1  and  O_2
REMARK    2  A    between atoms: O_2  and  C_3
REMARK    3  A    between atoms: C_6  and  C_7
REMARK    4  A    between atoms: C_7  and  C_8
REMARK    5  A    between atoms: N_16  and  C_17
REMARK    6  A    between atoms: C_19  and  O_20
REMARK    7  A    between atoms: O_20  and  C_21
REMARK                            x       y       z     vdW  Elec       q    Type
REMARK                         _______ _______ _______ _____ _____    ______ ____
ROOT
ATOM      1  C   UNL     1       3.485   3.629  17.144  0.00  0.00    +0.000 C 
ENDROOT
BRANCH   1   2
ATOM      2  C   UNL     1       3.668   3.548  18.701  0.00  0.00    +0.000 C 
ATOM      3  C   UNL     1       2.918   4.687  19.388  0.00  0.00    +0.000 A 
ATOM      4  S   UNL     1       3.482   6.299  19.428  0.00  0.00    +0.000 S 
ATOM      5  C   UNL     1       2.041   6.846  20.164  0.00  0.00    +0.000 A 
ATOM      6  C   UNL     1       1.203   5.805  20.496  0.00  0.00    +0.000 A 
ATOM      7  C   UNL     1       1.727   4.546  20.077  0.00  0.00    +0.000 A 
ATOM      8  C   UNL     1       1.140   3.196  20.329  0.00  0.00    +0.000 C 
ATOM      9  C   UNL     1       1.774   2.117  19.427  0.00  0.00    +0.000 C 
ATOM     10  N   UNL     1       3.240   2.251  19.319  0.00  0.00    +0.000 NA
ATOM     11  C   UNL     1       3.835   1.077  18.693  0.00  0.00    +0.000 C 
ENDBRANCH   1   2
BRANCH   1  15
ATOM     12  C   UNL     1       6.980   5.024  14.974  0.00  0.00    +0.000 A 
ATOM     13  C   UNL     1       5.913   4.400  14.300  0.00  0.00    +0.000 A 
ATOM     14  C   UNL     1       4.798   3.919  14.989  0.00  0.00    +0.000 A 
ATOM     15  C   UNL     1       4.738   4.010  16.379  0.00  0.00    +0.000 A 
ATOM     16  C   UNL     1       5.855   4.515  17.056  0.00  0.00    +0.000 A 
ATOM     17  C   UNL     1       6.963   5.046  16.377  0.00  0.00    +0.000 A 
BRANCH  12  19
ATOM     18  C   UNL     1       8.059   5.367  12.887  0.00  0.00    +0.000 C 
ATOM     19  O   UNL     1       8.041   5.570  14.303  0.00  0.00    +0.000 OA
ENDBRANCH  12  19
BRANCH  17  20
ATOM     20  O   UNL     1       7.889   5.535  17.258  0.00  0.00    +0.000 OA
ATOM     21  C   UNL     1       7.492   5.943  18.553  0.00  0.00    +0.000 C 
ENDBRANCH  17  20
ENDBRANCH   1  15
TORSDOF 4
ENDMDL
MODEL 2
REMARK VINA RESULT:      -6.6      3.800      6.563
REMARK  Name = 
REMARK  7 active torsions:
REMARK  status: ('A' for Active; 'I' for Inactive)
REMARK    1  A    between atoms: C_1  and  O_2
REMARK    2  A    between atoms: O_2  and  C_3
REMARK    3  A    between atoms: C_6  and  C_7
REMARK    4  A    between atoms: C_7  and  C_8
REMARK    5  A    between atoms: N_16  and  C_17
REMARK    6  A    between atoms: C_19  and  O_20
REMARK    7  A    between atoms: O_20  and  C_21
REMARK                            x       y       z     vdW  Elec       q    Type
REMARK                         _______ _______ _______ _____ _____    ______ ____
ROOT
ATOM      1  C   UNL     1       2.556   6.494  17.949  0.00  0.00    +0.000 C 
ENDROOT
BRANCH   1   2
ATOM      2  C   UNL     1       3.445   5.614  18.899  0.00  0.00    +0.000 C 
ATOM      3  C   UNL     1       2.663   4.398  19.390  0.00  0.00    +0.000 A 
ATOM      4  S   UNL     1       1.472   4.474  20.612  0.00  0.00    +0.000 S 
ATOM      5  C   UNL     1       1.045   2.837  20.379  0.00  0.00    +0.000 A 
ATOM      6  C   UNL     1       1.882   2.208  19.485  0.00  0.00    +0.000 A 
ATOM      7  C   UNL     1       2.845   3.105  18.935  0.00  0.00    +0.000 A 
ATOM      8  C   UNL     1       3.959   2.770  17.998  0.00  0.00    +0.000 C 
ATOM      9  C   UNL     1       4.557   4.032  17.342  0.00  0.00    +0.000 C 
ATOM     10  N   UNL     1       4.735   5.142  18.297  0.00  0.00    +0.000 NA
ATOM     11  C   UNL     1       5.541   6.212  17.722  0.00  0.00    +0.000 C 
ENDBRANCH   1   2
BRANCH   1  15
ATOM     12  C   UNL     1       1.053  10.218  19.599  0.00  0.00    +0.000 A 
ATOM     13  C   UNL     1       1.512  10.151  18.270  0.00  0.00    +0.000 A 
ATOM     14  C   UNL     1       2.026   8.968  17.737  0.00  0.00    +0.000 A 
ATOM     15  C   UNL     1       2.137   7.828  18.533  0.00  0.00    +0.000 A 
ATOM     16  C   UNL     1       1.799   7.934  19.887  0.00  0.00    +0.000 A 
ATOM     17  C   UNL     1       1.235   9.101  20.428  0.00  0.00    +0.000 A 
BRANCH  12  19
ATOM     18  C   UNL     1      -0.927  11.504  19.860  0.00  0.00    +0.000 C 
ATOM     19  O   UNL     1       0.473  11.350  20.109  0.00  0.00    +0.000 OA
ENDBRANCH  12  19
BRANCH  17  20
ATOM     20  O   UNL     1       0.933   8.932  21.752  0.00  0.00    +0.000 OA
ATOM     21  C   UNL     1      -0.394   8.644  22.146  0.00  0.00    +0.000 C 
ENDBRANCH  17  20
ENDBRANCH   1  15
TORSDOF 4
ENDMDL
MODEL 3
REMARK VINA RESULT:      -6.5      1.787      2.795
REMARK  Name = 
REMARK  7 active torsions:
REMARK  status: ('A' for Active; 'I' for Inactive)
REMARK    1  A    between atoms: C_1  and  O_2
REMARK    2  A    between atoms: O_2  and  C_3
REMARK    3  A    between atoms: C_6  and  C_7
REMARK    4  A    between atoms: C_7  and  C_8
REMARK    5  A    between atoms: N_16  and  C_17
REMARK    6  A    between atoms: C_19  and  O_20
REMARK    7  A    between atoms: O_20  and  C_21
REMARK                            x       y       z     vdW  Elec       q    Type
REMARK                         _______ _______ _______ _____ _____    ______ ____
ROOT
ATOM      1  C   UNL     1       4.500   4.681  18.611  0.00  0.00    +0.000 C 
ENDROOT
BRANCH   1   2
ATOM      2  C   UNL     1       2.996   4.945  18.243  0.00  0.00    +0.000 C 
ATOM      3  C   UNL     1       2.091   3.920  18.922  0.00  0.00    +0.000 A 
ATOM      4  S   UNL     1       1.917   2.309  18.380  0.00  0.00    +0.000 S 
ATOM      5  C   UNL     1       0.955   1.897  19.730  0.00  0.00    +0.000 A 
ATOM      6  C   UNL     1       0.660   2.995  20.508  0.00  0.00    +0.000 A 
ATOM      7  C   UNL     1       1.290   4.178  20.019  0.00  0.00    +0.000 A 
ATOM      8  C   UNL     1       1.140   5.565  20.552  0.00  0.00    +0.000 C 
ATOM      9  C   UNL     1       2.237   6.508  20.016  0.00  0.00    +0.000 C 
ATOM     10  N   UNL     1       2.498   6.319  18.575  0.00  0.00    +0.000 NA
ATOM     11  C   UNL     1       3.329   7.391  18.042  0.00  0.00    +0.000 C 
ENDBRANCH   1   2
BRANCH   1  15
ATOM     12  C   UNL     1       7.082   5.250  15.167  0.00  0.00    +0.000 A 
ATOM     13  C   UNL     1       6.208   4.149  15.240  0.00  0.00    +0.000 A 
ATOM     14  C   UNL     1       5.396   3.937  16.355  0.00  0.00    +0.000 A 
ATOM     15  C   UNL     1       5.466   4.799  17.449  0.00  0.00    +0.000 A 
ATOM     16  C   UNL     1       6.425   5.818  17.426  0.00  0.00    +0.000 A 
ATOM     17  C   UNL     1       7.216   6.074  16.295  0.00  0.00    +0.000 A 
BRANCH  12  19
ATOM     18  C   UNL     1       7.436   4.817  12.859  0.00  0.00    +0.000 C 
ATOM     19  O   UNL     1       7.824   5.513  14.046  0.00  0.00    +0.000 OA
ENDBRANCH  12  19
BRANCH  17  20
ATOM     20  O   UNL     1       8.026   7.159  16.498  0.00  0.00    +0.000 OA
ATOM     21  C   UNL     1       7.823   7.995  17.619  0.00  0.00    +0.000 C 
ENDBRANCH  17  20
ENDBRANCH   1  15
TORSDOF 4
ENDMDL
MODEL 4
REMARK VINA RESULT:      -6.4      3.948      6.735
REMARK  Name = 
REMARK  7 active torsions:
REMARK  status: ('A' for Active; 'I' for Inactive)
REMARK    1  A    between atoms: C_1  and  O_2
REMARK    2  A    between atoms: O_2  and  C_3
REMARK    3  A    between atoms: C_6  and  C_7
REMARK    4  A    between atoms: C_7  and  C_8
REMARK    5  A    between atoms: N_16  and  C_17
REMARK    6  A    between atoms: C_19  and  O_20
REMARK    7  A    between atoms: O_20  and  C_21
REMARK                            x       y       z     vdW  Elec       q    Type
REMARK                         _______ _______ _______ _____ _____    ______ ____
ROOT
ATOM      1  C   UNL     1       2.653   6.502  20.075  0.00  0.00    +0.000 C 
ENDROOT
BRANCH   1   2
ATOM      2  C   UNL     1       2.669   5.407  18.950  0.00  0.00    +0.000 C 
ATOM      3  C   UNL     1       4.064   5.281  18.345  0.00  0.00    +0.000 A 
ATOM      4  S   UNL     1       4.714   6.401  17.232  0.00  0.00    +0.000 S 
ATOM      5  C   UNL     1       6.238   5.631  17.256  0.00  0.00    +0.000 A 
ATOM      6  C   UNL     1       6.216   4.466  17.991  0.00  0.00    +0.000 A 
ATOM      7  C   UNL     1       4.943   4.243  18.595  0.00  0.00    +0.000 A 
ATOM      8  C   UNL     1       4.520   3.055  19.395  0.00  0.00    +0.000 C 
ATOM      9  C   UNL     1       3.222   3.325  20.183  0.00  0.00    +0.000 C 
ATOM     10  N   UNL     1       2.211   4.048  19.387  0.00  0.00    +0.000 NA
ATOM     11  C   UNL     1       0.914   4.050  20.052  0.00  0.00    +0.000 C 
ENDBRANCH   1   2
BRANCH   1  15
ATOM     12  C   UNL     1       0.387  10.032  18.953  0.00  0.00    +0.000 A 
ATOM     13  C   UNL     1       1.242   9.400  18.031  0.00  0.00    +0.000 A 
ATOM     14  C   UNL     1       2.000   8.284  18.387  0.00  0.00    +0.000 A 
ATOM     15  C   UNL     1       1.956   7.793  19.692  0.00  0.00    +0.000 A 
ATOM     16  C   UNL     1       1.204   8.499  20.638  0.00  0.00    +0.000 A 
ATOM     17  C   UNL     1       0.399   9.594  20.286  0.00  0.00    +0.000 A 
BRANCH  12  19
ATOM     18  C   UNL     1      -1.700  10.728  18.057  0.00  0.00    +0.000 C 
ATOM     19  O   UNL     1      -0.421  11.078  18.593  0.00  0.00    +0.000 OA
ENDBRANCH  12  19
BRANCH  17  20
ATOM     20  O   UNL     1      -0.286  10.069  21.372  0.00  0.00    +0.000 OA
ATOM     21  C   UNL     1      -0.109   9.469  22.640  0.00  0.00    +0.000 C 
ENDBRANCH  17  20
ENDBRANCH   1  15
TORSDOF 4
ENDMDL
MODEL 5
REMARK VINA RESULT:      -6.3      3.962      7.145
REMARK  Name = 
REMARK  7 active torsions:
REMARK  status: ('A' for Active; 'I' for Inactive)
REMARK    1  A    between atoms: C_1  and  O_2
REMARK    2  A    between atoms: O_2  and  C_3
REMARK    3  A    between atoms: C_6  and  C_7
REMARK    4  A    between atoms: C_7  and  C_8
REMARK    5  A    between atoms: N_16  and  C_17
REMARK    6  A    between atoms: C_19  and  O_20
REMARK    7  A    between atoms: O_20  and  C_21
REMARK                            x       y       z     vdW  Elec       q    Type
REMARK                         _______ _______ _______ _____ _____    ______ ____
ROOT
ATOM      1  C   UNL     1       2.947   7.200  17.696  0.00  0.00    +0.000 C 
ENDROOT
BRANCH   1   2
ATOM      2  C   UNL     1       3.847   6.068  18.308  0.00  0.00    +0.000 C 
ATOM      3  C   UNL     1       3.130   4.722  18.245  0.00  0.00    +0.000 A 
ATOM      4  S   UNL     1       1.875   4.270  19.312  0.00  0.00    +0.000 S 
ATOM      5  C   UNL     1       1.580   2.827  18.448  0.00  0.00    +0.000 A 
ATOM      6  C   UNL     1       2.505   2.626  17.448  0.00  0.00    +0.000 A 
ATOM      7  C   UNL     1       3.429   3.709  17.351  0.00  0.00    +0.000 A 
ATOM      8  C   UNL     1       4.610   3.809  16.444  0.00  0.00    +0.000 C 
ATOM      9  C   UNL     1       5.149   5.252  16.358  0.00  0.00    +0.000 C 
ATOM     10  N   UNL     1       5.197   5.923  17.672  0.00  0.00    +0.000 NA
ATOM     11  C   UNL     1       5.952   7.168  17.605  0.00  0.00    +0.000 C 
ENDBRANCH   1   2
BRANCH   1  15
ATOM     12  C   UNL     1       0.850   9.619  20.630  0.00  0.00    +0.000 A 
ATOM     13  C   UNL     1       1.399   8.372  20.982  0.00  0.00    +0.000 A 
ATOM     14  C   UNL     1       2.048   7.570  20.042  0.00  0.00    +0.000 A 
ATOM     15  C   UNL     1       2.129   7.975  18.710  0.00  0.00    +0.000 A 
ATOM     16  C   UNL     1       1.471   9.154  18.337  0.00  0.00    +0.000 A 
ATOM     17  C   UNL     1       0.856   9.995  19.278  0.00  0.00    +0.000 A 
BRANCH  12  19
ATOM     18  C   UNL     1      -0.334   9.809  22.680  0.00  0.00    +0.000 C 
ATOM     19  O   UNL     1       0.282  10.450  21.559  0.00  0.00    +0.000 OA
ENDBRANCH  12  19
BRANCH  17  20
ATOM     20  O   UNL     1       0.344  11.112  18.675  0.00  0.00    +0.000 OA
ATOM     21  C   UNL     1      -1.041  11.202  18.406  0.00  0.00    +0.000 C 
ENDBRANCH  17  20
ENDBRANCH   1  15
TORSDOF 4
ENDMDL
MODEL 6
REMARK VINA RESULT:      -6.3      4.031      7.093
REMARK  Name = 
REMARK  7 active torsions:
REMARK  status: ('A' for Active; 'I' for Inactive)
REMARK    1  A    between atoms: C_1  and  O_2
REMARK    2  A    between atoms: O_2  and  C_3
REMARK    3  A    between atoms: C_6  and  C_7
REMARK    4  A    between atoms: C_7  and  C_8
REMARK    5  A    between atoms: N_16  and  C_17
REMARK    6  A    between atoms: C_19  and  O_20
REMARK    7  A    between atoms: O_20  and  C_21
REMARK                            x       y       z     vdW  Elec       q    Type
REMARK                         _______ _______ _______ _____ _____    ______ ____
ROOT
ATOM      1  C   UNL     1       2.417   7.055  18.166  0.00  0.00    +0.000 C 
ENDROOT
BRANCH   1   2
ATOM      2  C   UNL     1       3.304   5.936  18.820  0.00  0.00    +0.000 C 
ATOM      3  C   UNL     1       2.507   4.643  18.975  0.00  0.00    +0.000 A 
ATOM      4  S   UNL     1       1.337   4.397  20.195  0.00  0.00    +0.000 S 
ATOM      5  C   UNL     1       0.875   2.893  19.531  0.00  0.00    +0.000 A 
ATOM      6  C   UNL     1       1.686   2.522  18.482  0.00  0.00    +0.000 A 
ATOM      7  C   UNL     1       2.658   3.522  18.180  0.00  0.00    +0.000 A 
ATOM      8  C   UNL     1       3.750   3.442  17.165  0.00  0.00    +0.000 C 
ATOM      9  C   UNL     1       4.361   4.827  16.867  0.00  0.00    +0.000 C 
ATOM     10  N   UNL     1       4.575   5.630  18.086  0.00  0.00    +0.000 NA
ATOM     11  C   UNL     1       5.392   6.805  17.810  0.00  0.00    +0.000 C 
ENDBRANCH   1   2
BRANCH   1  15
ATOM     12  C   UNL     1       0.980  10.033  20.981  0.00  0.00    +0.000 A 
ATOM     13  C   UNL     1       1.318   8.737  21.412  0.00  0.00    +0.000 A 
ATOM     14  C   UNL     1       1.751   7.760  20.513  0.00  0.00    +0.000 A 
ATOM     15  C   UNL     1       1.818   8.042  19.149  0.00  0.00    +0.000 A 
ATOM     16  C   UNL     1       1.360   9.289  18.709  0.00  0.00    +0.000 A 
ATOM     17  C   UNL     1       0.967  10.298  19.603  0.00  0.00    +0.000 A 
BRANCH  12  19
ATOM     18  C   UNL     1      -0.740  11.044  22.269  0.00  0.00    +0.000 C 
ATOM     19  O   UNL     1       0.631  11.022  21.862  0.00  0.00    +0.000 OA
ENDBRANCH  12  19
BRANCH  17  20
ATOM     20  O   UNL     1       0.627  11.442  18.933  0.00  0.00    +0.000 OA
ATOM     21  C   UNL     1       1.588  12.460  18.733  0.00  0.00    +0.000 C 
ENDBRANCH  17  20
ENDBRANCH   1  15
TORSDOF 4
ENDMDL
MODEL 7
REMARK VINA RESULT:      -6.2      3.863      6.855
REMARK  Name = 
REMARK  7 active torsions:
REMARK  status: ('A' for Active; 'I' for Inactive)
REMARK    1  A    between atoms: C_1  and  O_2
REMARK    2  A    between atoms: O_2  and  C_3
REMARK    3  A    between atoms: C_6  and  C_7
REMARK    4  A    between atoms: C_7  and  C_8
REMARK    5  A    between atoms: N_16  and  C_17
REMARK    6  A    between atoms: C_19  and  O_20
REMARK    7  A    between atoms: O_20  and  C_21
REMARK                            x       y       z     vdW  Elec       q    Type
REMARK                         _______ _______ _______ _____ _____    ______ ____
ROOT
ATOM      1  C   UNL     1       2.948   6.120  19.632  0.00  0.00    +0.000 C 
ENDROOT
BRANCH   1   2
ATOM      2  C   UNL     1       2.754   5.339  18.283  0.00  0.00    +0.000 C 
ATOM      3  C   UNL     1       4.068   5.271  17.510  0.00  0.00    +0.000 A 
ATOM      4  S   UNL     1       4.715   6.584  16.631  0.00  0.00    +0.000 S 
ATOM      5  C   UNL     1       6.154   5.728  16.296  0.00  0.00    +0.000 A 
ATOM      6  C   UNL     1       6.090   4.422  16.729  0.00  0.00    +0.000 A 
ATOM      7  C   UNL     1       4.864   4.144  17.403  0.00  0.00    +0.000 A 
ATOM      8  C   UNL     1       4.407   2.828  17.939  0.00  0.00    +0.000 C 
ATOM      9  C   UNL     1       3.219   2.983  18.911  0.00  0.00    +0.000 C 
ATOM     10  N   UNL     1       2.212   3.949  18.432  0.00  0.00    +0.000 NA
ATOM     11  C   UNL     1       0.989   3.876  19.222  0.00  0.00    +0.000 C 
ENDBRANCH   1   2
BRANCH   1  15
ATOM     12  C   UNL     1       0.399   9.629  19.853  0.00  0.00    +0.000 A 
ATOM     13  C   UNL     1       1.296   9.454  18.781  0.00  0.00    +0.000 A 
ATOM     14  C   UNL     1       2.143   8.347  18.714  0.00  0.00    +0.000 A 
ATOM     15  C   UNL     1       2.147   7.403  19.741  0.00  0.00    +0.000 A 
ATOM     16  C   UNL     1       1.348   7.645  20.864  0.00  0.00    +0.000 A 
ATOM     17  C   UNL     1       0.456   8.728  20.927  0.00  0.00    +0.000 A 
BRANCH  12  19
ATOM     18  C   UNL     1       0.069  11.968  20.096  0.00  0.00    +0.000 C 
ATOM     19  O   UNL     1      -0.492  10.668  19.889  0.00  0.00    +0.000 OA
ENDBRANCH  12  19
BRANCH  17  20
ATOM     20  O   UNL     1      -0.257   8.709  22.095  0.00  0.00    +0.000 OA
ATOM     21  C   UNL     1       0.106   9.562  23.162  0.00  0.00    +0.000 C 
ENDBRANCH  17  20
ENDBRANCH   1  15
TORSDOF 4
ENDMDL
MODEL 8
REMARK VINA RESULT:      -6.1      0.983      2.210
REMARK  Name = 
REMARK  7 active torsions:
REMARK  status: ('A' for Active; 'I' for Inactive)
REMARK    1  A    between atoms: C_1  and  O_2
REMARK    2  A    between atoms: O_2  and  C_3
REMARK    3  A    between atoms: C_6  and  C_7
REMARK    4  A    between atoms: C_7  and  C_8
REMARK    5  A    between atoms: N_16  and  C_17
REMARK    6  A    between atoms: C_19  and  O_20
REMARK    7  A    between atoms: O_20  and  C_21
REMARK                            x       y       z     vdW  Elec       q    Type
REMARK                         _______ _______ _______ _____ _____    ______ ____
ROOT
ATOM      1  C   UNL     1       3.446   3.813  16.947  0.00  0.00    +0.000 C 
ENDROOT
BRANCH   1   2
ATOM      2  C   UNL     1       3.709   3.625  18.484  0.00  0.00    +0.000 C 
ATOM      3  C   UNL     1       2.911   4.644  19.292  0.00  0.00    +0.000 A 
ATOM      4  S   UNL     1       3.356   6.287  19.440  0.00  0.00    +0.000 S 
ATOM      5  C   UNL     1       1.916   6.662  20.279  0.00  0.00    +0.000 A 
ATOM      6  C   UNL     1       1.174   5.536  20.559  0.00  0.00    +0.000 A 
ATOM      7  C   UNL     1       1.768   4.358  20.017  0.00  0.00    +0.000 A 
ATOM      8  C   UNL     1       1.296   2.951  20.182  0.00  0.00    +0.000 C 
ATOM      9  C   UNL     1       1.963   1.998  19.169  0.00  0.00    +0.000 C 
ATOM     10  N   UNL     1       3.408   2.254  19.011  0.00  0.00    +0.000 NA
ATOM     11  C   UNL     1       4.058   1.182  18.267  0.00  0.00    +0.000 C 
ENDBRANCH   1   2
BRANCH   1  15
ATOM     12  C   UNL     1       7.028   4.976  14.784  0.00  0.00    +0.000 A 
ATOM     13  C   UNL     1       6.669   5.617  15.985  0.00  0.00    +0.000 A 
ATOM     14  C   UNL     1       5.504   5.275  16.674  0.00  0.00    +0.000 A 
ATOM     15  C   UNL     1       4.642   4.309  16.157  0.00  0.00    +0.000 A 
ATOM     16  C   UNL     1       4.935   3.765  14.901  0.00  0.00    +0.000 A 
ATOM     17  C   UNL     1       6.126   4.063  14.218  0.00  0.00    +0.000 A 
BRANCH  12  19
ATOM     18  C   UNL     1       8.094   5.732  12.801  0.00  0.00    +0.000 C 
ATOM     19  O   UNL     1       8.207   5.247  14.142  0.00  0.00    +0.000 OA
ENDBRANCH  12  19
BRANCH  17  20
ATOM     20  O   UNL     1       6.209   3.357  13.048  0.00  0.00    +0.000 OA
ATOM     21  C   UNL     1       5.110   3.323  12.160  0.00  0.00    +0.000 C 
ENDBRANCH  17  20
ENDBRANCH   1  15
TORSDOF 4
ENDMDL
MODEL 9
REMARK VINA RESULT:      -6.0      3.880      6.752
REMARK  Name = 
REMARK  7 active torsions:
REMARK  status: ('A' for Active; 'I' for Inactive)
REMARK    1  A    between atoms: C_1  and  O_2
REMARK    2  A    between atoms: O_2  and  C_3
REMARK    3  A    between atoms: C_6  and  C_7
REMARK    4  A    between atoms: C_7  and  C_8
REMARK    5  A    between atoms: N_16  and  C_17
REMARK    6  A    between atoms: C_19  and  O_20
REMARK    7  A    between atoms: O_20  and  C_21
REMARK                            x       y       z     vdW  Elec       q    Type
REMARK                         _______ _______ _______ _____ _____    ______ ____
ROOT
ATOM      1  C   UNL     1       3.189   7.195  17.438  0.00  0.00    +0.000 C 
ENDROOT
BRANCH   1   2
ATOM      2  C   UNL     1       3.924   6.094  18.281  0.00  0.00    +0.000 C 
ATOM      3  C   UNL     1       3.144   4.782  18.245  0.00  0.00    +0.000 A 
ATOM      4  S   UNL     1       1.727   4.503  19.157  0.00  0.00    +0.000 S 
ATOM      5  C   UNL     1       1.470   2.991  18.404  0.00  0.00    +0.000 A 
ATOM      6  C   UNL     1       2.513   2.645  17.573  0.00  0.00    +0.000 A 
ATOM      7  C   UNL     1       3.504   3.669  17.507  0.00  0.00    +0.000 A 
ATOM      8  C   UNL     1       4.805   3.620  16.776  0.00  0.00    +0.000 C 
ATOM      9  C   UNL     1       5.435   5.020  16.629  0.00  0.00    +0.000 C 
ATOM     10  N   UNL     1       5.339   5.821  17.865  0.00  0.00    +0.000 NA
ATOM     11  C   UNL     1       6.169   7.017  17.788  0.00  0.00    +0.000 C 
ENDBRANCH   1   2
BRANCH   1  15
ATOM     12  C   UNL     1       0.505   9.712  19.744  0.00  0.00    +0.000 A 
ATOM     13  C   UNL     1       0.792  10.006  18.398  0.00  0.00    +0.000 A 
ATOM     14  C   UNL     1       1.677   9.224  17.654  0.00  0.00    +0.000 A 
ATOM     15  C   UNL     1       2.334   8.148  18.250  0.00  0.00    +0.000 A 
ATOM     16  C   UNL     1       2.144   7.936  19.621  0.00  0.00    +0.000 A 
ATOM     17  C   UNL     1       1.222   8.682  20.372  0.00  0.00    +0.000 A 
BRANCH  12  19
ATOM     18  C   UNL     1      -0.899  11.625  19.849  0.00  0.00    +0.000 C 
ATOM     19  O   UNL     1      -0.421  10.423  20.460  0.00  0.00    +0.000 OA
ENDBRANCH  12  19
BRANCH  17  20
ATOM     20  O   UNL     1       1.173   8.241  21.667  0.00  0.00    +0.000 OA
ATOM     21  C   UNL     1       1.409   9.140  22.732  0.00  0.00    +0.000 C 
ENDBRANCH  17  20
ENDBRANCH   1  15
TORSDOF 4
ENDMDL
