MODEL 1
REMARK VINA RESULT:      -7.8      0.000      0.000
REMARK  Name = 
REMARK  12 active torsions:
REMARK  status: ('A' for Active; 'I' for Inactive)
REMARK    1  A    between atoms: C_1  and  C_2
REMARK    2  A    between atoms: C_2  and  C_3
REMARK    3  A    between atoms: C_2  and  C_4
REMARK    4  A    between atoms: C_8  and  C_9
REMARK    5  A    between atoms: C_9  and  C_10
REMARK    6  A    between atoms: C_9  and  C_11
REMARK    7  A    between atoms: C_12  and  N_13
REMARK    8  A    between atoms: N_16  and  C_17
REMARK    9  A    between atoms: C_17  and  C_18
REMARK   10  A    between atoms: C_18  and  C_19
REMARK   11  A    between atoms: C_23  and  C_24
REMARK   12  A    between atoms: C_24  and  O_25
REMARK                            x       y       z     vdW  Elec       q    Type
REMARK                         _______ _______ _______ _____ _____    ______ ____
ROOT
ATOM      1  N   UNL     1       0.792   9.893  18.069  0.00  0.00    +0.000 N 
ATOM      2  C   UNL     1       1.345   9.086  19.047  0.00  0.00    +0.000 C 
ATOM      3  O   UNL     1       1.135   9.165  20.250  0.00  0.00    +0.000 OA
ATOM      4  N   UNL     1       2.201   8.150  18.484  0.00  0.00    +0.000 N 
ATOM      5  H   UNL     1       1.425  10.023  17.306  0.00  0.00    +0.000 HD
ATOM      6  H   UNL     1       1.933   7.874  17.549  0.00  0.00    +0.000 HD
ENDROOT
BRANCH   1  12
ATOM      7  C   UNL     1       0.456  12.162  18.964  0.00  0.00    +0.000 A 
ATOM      8  C   UNL     1      -0.431  13.205  19.310  0.00  0.00    +0.000 A 
ATOM      9  C   UNL     1      -1.792  13.104  19.061  0.00  0.00    +0.000 A 
ATOM     10  C   UNL     1      -2.295  11.953  18.476  0.00  0.00    +0.000 A 
ATOM     11  C   UNL     1      -1.467  10.857  18.132  0.00  0.00    +0.000 A 
ATOM     12  C   UNL     1      -0.069  10.978  18.361  0.00  0.00    +0.000 A 
BRANCH   7  14
ATOM     13  C   UNL     1       2.677  13.064  18.154  0.00  0.00    +0.000 C 
ATOM     14  C   UNL     1       1.937  12.360  19.300  0.00  0.00    +0.000 C 
ATOM     15  C   UNL     1       2.139  13.122  20.614  0.00  0.00    +0.000 C 
ENDBRANCH   7  14
BRANCH  11  16
ATOM     16  C   UNL     1      -2.208   9.720  17.416  0.00  0.00    +0.000 C 
ATOM     17  C   UNL     1      -3.575   9.469  18.059  0.00  0.00    +0.000 C 
ATOM     18  C   UNL     1      -2.336   9.768  15.895  0.00  0.00    +0.000 C 
ENDBRANCH  11  16
ENDBRANCH   1  12
BRANCH   4  19
ATOM     19  C   UNL     1       2.750   7.126  19.356  0.00  0.00    +0.000 C 
BRANCH  19  20
ATOM     20  C   UNL     1       2.737   5.659  18.843  0.00  0.00    +0.000 C 
ATOM     21  C   UNL     1       2.219   4.659  19.912  0.00  0.00    +0.000 C 
ATOM     22  C   UNL     1       1.842   3.406  19.128  0.00  0.00    +0.000 C 
ATOM     23  C   UNL     1       1.382   3.909  17.764  0.00  0.00    +0.000 C 
ATOM     24  C   UNL     1       1.673   5.413  17.741  0.00  0.00    +0.000 C 
BRANCH  20  25
ATOM     25  C   UNL     1       4.188   5.388  18.371  0.00  0.00    +0.000 A 
ATOM     26  C   UNL     1       5.265   5.331  19.272  0.00  0.00    +0.000 A 
ATOM     27  C   UNL     1       6.587   5.241  18.826  0.00  0.00    +0.000 A 
ATOM     28  C   UNL     1       6.868   5.210  17.463  0.00  0.00    +0.000 A 
ATOM     29  C   UNL     1       5.828   5.265  16.533  0.00  0.00    +0.000 A 
ATOM     30  C   UNL     1       4.504   5.362  16.995  0.00  0.00    +0.000 A 
BRANCH  29  31
ATOM     31  C   UNL     1       6.130   5.249  15.057  0.00  0.00    +0.000 C 
BRANCH  31  32
ATOM     32  O   UNL     1       7.531   5.317  14.832  0.00  0.00    +0.000 OA
ATOM     33  H   UNL     1       7.721   4.768  14.052  0.00  0.00    +0.000 HD
ENDBRANCH  31  32
ENDBRANCH  29  31
ENDBRANCH  20  25
ENDBRANCH  19  20
ENDBRANCH   4  19
TORSDOF 8
ENDMDL
MODEL 2
REMARK VINA RESULT:      -7.7      1.212      3.529
REMARK  Name = 
REMARK  12 active torsions:
REMARK  status: ('A' for Active; 'I' for Inactive)
REMARK    1  A    between atoms: C_1  and  C_2
REMARK    2  A    between atoms: C_2  and  C_3
REMARK    3  A    between atoms: C_2  and  C_4
REMARK    4  A    between atoms: C_8  and  C_9
REMARK    5  A    between atoms: C_9  and  C_10
REMARK    6  A    between atoms: C_9  and  C_11
REMARK    7  A    between atoms: C_12  and  N_13
REMARK    8  A    between atoms: N_16  and  C_17
REMARK    9  A    between atoms: C_17  and  C_18
REMARK   10  A    between atoms: C_18  and  C_19
REMARK   11  A    between atoms: C_23  and  C_24
REMARK   12  A    between atoms: C_24  and  O_25
REMARK                            x       y       z     vdW  Elec       q    Type
REMARK                         _______ _______ _______ _____ _____    ______ ____
ROOT
ATOM      1  N   UNL     1       0.828   9.943  18.166  0.00  0.00    +0.000 N 
ATOM      2  C   UNL     1       1.235   9.043  19.136  0.00  0.00    +0.000 C 
ATOM      3  O   UNL     1       0.889   9.043  20.309  0.00  0.00    +0.000 OA
ATOM      4  N   UNL     1       2.116   8.112  18.602  0.00  0.00    +0.000 N 
ATOM      5  H   UNL     1       1.550  10.099  17.492  0.00  0.00    +0.000 HD
ATOM      6  H   UNL     1       1.949   7.918  17.624  0.00  0.00    +0.000 HD
ENDROOT
BRANCH   1  12
ATOM      7  C   UNL     1      -1.413  10.960  18.134  0.00  0.00    +0.000 A 
ATOM      8  C   UNL     1      -2.229  12.092  18.353  0.00  0.00    +0.000 A 
ATOM      9  C   UNL     1      -1.706  13.267  18.873  0.00  0.00    +0.000 A 
ATOM     10  C   UNL     1      -0.354  13.339  19.169  0.00  0.00    +0.000 A 
ATOM     11  C   UNL     1       0.526  12.252  18.946  0.00  0.00    +0.000 A 
ATOM     12  C   UNL     1      -0.021  11.041  18.442  0.00  0.00    +0.000 A 
BRANCH   7  14
ATOM     13  C   UNL     1      -3.447   9.457  18.183  0.00  0.00    +0.000 C 
ATOM     14  C   UNL     1      -2.081   9.718  17.535  0.00  0.00    +0.000 C 
ATOM     15  C   UNL     1      -2.220   9.809  16.012  0.00  0.00    +0.000 C 
ENDBRANCH   7  14
BRANCH  11  16
ATOM     16  C   UNL     1       1.962  12.509  19.424  0.00  0.00    +0.000 C 
ATOM     17  C   UNL     1       2.800  13.151  18.315  0.00  0.00    +0.000 C 
ATOM     18  C   UNL     1       2.177  13.245  20.745  0.00  0.00    +0.000 C 
ENDBRANCH  11  16
ENDBRANCH   1  12
BRANCH   4  19
ATOM     19  C   UNL     1       2.522   7.004  19.449  0.00  0.00    +0.000 C 
BRANCH  19  20
ATOM     20  C   UNL     1       2.957   5.685  18.751  0.00  0.00    +0.000 C 
ATOM     21  C   UNL     1       2.931   4.467  19.711  0.00  0.00    +0.000 C 
ATOM     22  C   UNL     1       2.925   3.246  18.797  0.00  0.00    +0.000 C 
ATOM     23  C   UNL     1       2.178   3.687  17.544  0.00  0.00    +0.000 C 
ATOM     24  C   UNL     1       1.931   5.191  17.698  0.00  0.00    +0.000 C 
BRANCH  20  25
ATOM     25  C   UNL     1       4.355   5.992  18.154  0.00  0.00    +0.000 A 
ATOM     26  C   UNL     1       4.516   6.440  16.831  0.00  0.00    +0.000 A 
ATOM     27  C   UNL     1       5.782   6.566  16.252  0.00  0.00    +0.000 A 
ATOM     28  C   UNL     1       6.923   6.241  16.980  0.00  0.00    +0.000 A 
ATOM     29  C   UNL     1       6.809   5.791  18.297  0.00  0.00    +0.000 A 
ATOM     30  C   UNL     1       5.529   5.663  18.866  0.00  0.00    +0.000 A 
BRANCH  29  31
ATOM     31  C   UNL     1       8.041   5.423  19.081  0.00  0.00    +0.000 C 
BRANCH  31  32
ATOM     32  O   UNL     1       7.802   5.543  20.476  0.00  0.00    +0.000 OA
ATOM     33  H   UNL     1       6.848   5.695  20.590  0.00  0.00    +0.000 HD
ENDBRANCH  31  32
ENDBRANCH  29  31
ENDBRANCH  20  25
ENDBRANCH  19  20
ENDBRANCH   4  19
TORSDOF 8
ENDMDL
MODEL 3
REMARK VINA RESULT:      -7.7      0.819      1.358
REMARK  Name = 
REMARK  12 active torsions:
REMARK  status: ('A' for Active; 'I' for Inactive)
REMARK    1  A    between atoms: C_1  and  C_2
REMARK    2  A    between atoms: C_2  and  C_3
REMARK    3  A    between atoms: C_2  and  C_4
REMARK    4  A    between atoms: C_8  and  C_9
REMARK    5  A    between atoms: C_9  and  C_10
REMARK    6  A    between atoms: C_9  and  C_11
REMARK    7  A    between atoms: C_12  and  N_13
REMARK    8  A    between atoms: N_16  and  C_17
REMARK    9  A    between atoms: C_17  and  C_18
REMARK   10  A    between atoms: C_18  and  C_19
REMARK   11  A    between atoms: C_23  and  C_24
REMARK   12  A    between atoms: C_24  and  O_25
REMARK                            x       y       z     vdW  Elec       q    Type
REMARK                         _______ _______ _______ _____ _____    ______ ____
ROOT
ATOM      1  N   UNL     1       0.735  10.040  18.187  0.00  0.00    +0.000 N 
ATOM      2  C   UNL     1       1.206   9.168  19.152  0.00  0.00    +0.000 C 
ATOM      3  O   UNL     1       0.908   9.177  20.338  0.00  0.00    +0.000 OA
ATOM      4  N   UNL     1       2.091   8.254  18.597  0.00  0.00    +0.000 N 
ATOM      5  H   UNL     1       1.424  10.206  17.481  0.00  0.00    +0.000 HD
ATOM      6  H   UNL     1       1.891   8.039  17.630  0.00  0.00    +0.000 HD
ENDROOT
BRANCH   1  12
ATOM      7  C   UNL     1       0.376  12.293  19.114  0.00  0.00    +0.000 A 
ATOM      8  C   UNL     1      -0.520  13.327  19.460  0.00  0.00    +0.000 A 
ATOM      9  C   UNL     1      -1.876  13.228  19.182  0.00  0.00    +0.000 A 
ATOM     10  C   UNL     1      -2.364  12.087  18.568  0.00  0.00    +0.000 A 
ATOM     11  C   UNL     1      -1.526  10.999  18.221  0.00  0.00    +0.000 A 
ATOM     12  C   UNL     1      -0.134  11.118  18.480  0.00  0.00    +0.000 A 
BRANCH   7  14
ATOM     13  C   UNL     1       2.647  13.057  18.302  0.00  0.00    +0.000 C 
ATOM     14  C   UNL     1       1.850  12.488  19.484  0.00  0.00    +0.000 C 
ATOM     15  C   UNL     1       2.028  13.370  20.724  0.00  0.00    +0.000 C 
ENDBRANCH   7  14
BRANCH  11  16
ATOM     16  C   UNL     1      -2.250   9.873  17.471  0.00  0.00    +0.000 C 
ATOM     17  C   UNL     1      -3.642   9.629  18.063  0.00  0.00    +0.000 C 
ATOM     18  C   UNL     1      -2.325   9.933  15.947  0.00  0.00    +0.000 C 
ENDBRANCH  11  16
ENDBRANCH   1  12
BRANCH   4  19
ATOM     19  C   UNL     1       2.564   7.172  19.444  0.00  0.00    +0.000 C 
BRANCH  19  20
ATOM     20  C   UNL     1       2.819   5.793  18.775  0.00  0.00    +0.000 C 
ATOM     21  C   UNL     1       2.792   4.623  19.794  0.00  0.00    +0.000 C 
ATOM     22  C   UNL     1       2.595   3.369  18.948  0.00  0.00    +0.000 C 
ATOM     23  C   UNL     1       1.762   3.817  17.753  0.00  0.00    +0.000 C 
ATOM     24  C   UNL     1       1.654   5.342  17.854  0.00  0.00    +0.000 C 
BRANCH  20  25
ATOM     25  C   UNL     1       4.168   5.954  18.028  0.00  0.00    +0.000 A 
ATOM     26  C   UNL     1       4.233   6.408  16.699  0.00  0.00    +0.000 A 
ATOM     27  C   UNL     1       5.434   6.405  15.984  0.00  0.00    +0.000 A 
ATOM     28  C   UNL     1       6.603   5.939  16.577  0.00  0.00    +0.000 A 
ATOM     29  C   UNL     1       6.584   5.477  17.895  0.00  0.00    +0.000 A 
ATOM     30  C   UNL     1       5.368   5.481  18.601  0.00  0.00    +0.000 A 
BRANCH  29  31
ATOM     31  C   UNL     1       7.845   4.957  18.534  0.00  0.00    +0.000 C 
BRANCH  31  32
ATOM     32  O   UNL     1       8.431   3.941  17.732  0.00  0.00    +0.000 OA
ATOM     33  H   UNL     1       9.241   3.652  18.186  0.00  0.00    +0.000 HD
ENDBRANCH  31  32
ENDBRANCH  29  31
ENDBRANCH  20  25
ENDBRANCH  19  20
ENDBRANCH   4  19
TORSDOF 8
ENDMDL
MODEL 4
REMARK VINA RESULT:      -7.6      2.151      8.109
REMARK  Name = 
REMARK  12 active torsions:
REMARK  status: ('A' for Active; 'I' for Inactive)
REMARK    1  A    between atoms: C_1  and  C_2
REMARK    2  A    between atoms: C_2  and  C_3
REMARK    3  A    between atoms: C_2  and  C_4
REMARK    4  A    between atoms: C_8  and  C_9
REMARK    5  A    between atoms: C_9  and  C_10
REMARK    6  A    between atoms: C_9  and  C_11
REMARK    7  A    between atoms: C_12  and  N_13
REMARK    8  A    between atoms: N_16  and  C_17
REMARK    9  A    between atoms: C_17  and  C_18
REMARK   10  A    between atoms: C_18  and  C_19
REMARK   11  A    between atoms: C_23  and  C_24
REMARK   12  A    between atoms: C_24  and  O_25
REMARK                            x       y       z     vdW  Elec       q    Type
REMARK                         _______ _______ _______ _____ _____    ______ ____
ROOT
ATOM      1  N   UNL     1       2.324   6.272  17.673  0.00  0.00    +0.000 N 
ATOM      2  C   UNL     1       2.408   7.237  18.661  0.00  0.00    +0.000 C 
ATOM      3  O   UNL     1       3.122   7.193  19.653  0.00  0.00    +0.000 OA
ATOM      4  N   UNL     1       1.552   8.295  18.386  0.00  0.00    +0.000 N 
ATOM      5  H   UNL     1       1.403   6.230  17.285  0.00  0.00    +0.000 HD
ATOM      6  H   UNL     1       1.409   8.449  17.397  0.00  0.00    +0.000 HD
ENDROOT
BRANCH   1  12
ATOM      7  C   UNL     1       4.293   4.929  17.054  0.00  0.00    +0.000 A 
ATOM      8  C   UNL     1       4.955   3.682  17.062  0.00  0.00    +0.000 A 
ATOM      9  C   UNL     1       4.417   2.586  17.721  0.00  0.00    +0.000 A 
ATOM     10  C   UNL     1       3.199   2.710  18.371  0.00  0.00    +0.000 A 
ATOM     11  C   UNL     1       2.468   3.923  18.377  0.00  0.00    +0.000 A 
ATOM     12  C   UNL     1       3.038   5.051  17.726  0.00  0.00    +0.000 A 
BRANCH   7  14
ATOM     13  C   UNL     1       5.920   6.862  17.177  0.00  0.00    +0.000 C 
ATOM     14  C   UNL     1       4.957   6.072  16.280  0.00  0.00    +0.000 C 
ATOM     15  C   UNL     1       5.679   5.580  15.022  0.00  0.00    +0.000 C 
ENDBRANCH   7  14
BRANCH  11  16
ATOM     16  C   UNL     1       1.191   3.872  19.226  0.00  0.00    +0.000 C 
ATOM     17  C   UNL     1       0.521   2.499  19.124  0.00  0.00    +0.000 C 
ATOM     18  C   UNL     1       1.259   4.323  20.684  0.00  0.00    +0.000 C 
ENDBRANCH  11  16
ENDBRANCH   1  12
BRANCH   4  19
ATOM     19  C   UNL     1       1.627   9.465  19.245  0.00  0.00    +0.000 C 
BRANCH  19  20
ATOM     20  C   UNL     1       0.530   9.631  20.333  0.00  0.00    +0.000 C 
ATOM     21  C   UNL     1       0.038   8.271  20.895  0.00  0.00    +0.000 C 
ATOM     22  C   UNL     1      -0.651   8.616  22.212  0.00  0.00    +0.000 C 
ATOM     23  C   UNL     1       0.094   9.833  22.747  0.00  0.00    +0.000 C 
ATOM     24  C   UNL     1       1.069  10.259  21.645  0.00  0.00    +0.000 C 
BRANCH  20  25
ATOM     25  C   UNL     1      -0.580  10.476  19.655  0.00  0.00    +0.000 A 
ATOM     26  C   UNL     1      -1.208  11.545  20.317  0.00  0.00    +0.000 A 
ATOM     27  C   UNL     1      -2.310  12.202  19.760  0.00  0.00    +0.000 A 
ATOM     28  C   UNL     1      -2.817  11.803  18.527  0.00  0.00    +0.000 A 
ATOM     29  C   UNL     1      -2.223  10.744  17.836  0.00  0.00    +0.000 A 
ATOM     30  C   UNL     1      -1.120  10.088  18.410  0.00  0.00    +0.000 A 
BRANCH  29  31
ATOM     31  C   UNL     1      -2.780  10.298  16.510  0.00  0.00    +0.000 C 
BRANCH  31  32
ATOM     32  O   UNL     1      -2.391  11.192  15.477  0.00  0.00    +0.000 OA
ATOM     33  H   UNL     1      -1.419  11.241  15.493  0.00  0.00    +0.000 HD
ENDBRANCH  31  32
ENDBRANCH  29  31
ENDBRANCH  20  25
ENDBRANCH  19  20
ENDBRANCH   4  19
TORSDOF 8
ENDMDL
MODEL 5
REMARK VINA RESULT:      -7.6      2.123      8.300
REMARK  Name = 
REMARK  12 active torsions:
REMARK  status: ('A' for Active; 'I' for Inactive)
REMARK    1  A    between atoms: C_1  and  C_2
REMARK    2  A    between atoms: C_2  and  C_3
REMARK    3  A    between atoms: C_2  and  C_4
REMARK    4  A    between atoms: C_8  and  C_9
REMARK    5  A    between atoms: C_9  and  C_10
REMARK    6  A    between atoms: C_9  and  C_11
REMARK    7  A    between atoms: C_12  and  N_13
REMARK    8  A    between atoms: N_16  and  C_17
REMARK    9  A    between atoms: C_17  and  C_18
REMARK   10  A    between atoms: C_18  and  C_19
REMARK   11  A    between atoms: C_23  and  C_24
REMARK   12  A    between atoms: C_24  and  O_25
REMARK                            x       y       z     vdW  Elec       q    Type
REMARK                         _______ _______ _______ _____ _____    ______ ____
ROOT
ATOM      1  N   UNL     1       3.283   6.564  19.014  0.00  0.00    +0.000 N 
ATOM      2  C   UNL     1       2.314   7.322  18.380  0.00  0.00    +0.000 C 
ATOM      3  O   UNL     1       1.604   6.954  17.454  0.00  0.00    +0.000 OA
ATOM      4  N   UNL     1       2.245   8.593  18.933  0.00  0.00    +0.000 N 
ATOM      5  H   UNL     1       4.040   7.136  19.330  0.00  0.00    +0.000 HD
ATOM      6  H   UNL     1       2.489   8.616  19.914  0.00  0.00    +0.000 HD
ENDROOT
BRANCH   1  12
ATOM      7  C   UNL     1       4.441   5.039  17.466  0.00  0.00    +0.000 A 
ATOM      8  C   UNL     1       4.704   3.718  17.044  0.00  0.00    +0.000 A 
ATOM      9  C   UNL     1       4.191   2.627  17.731  0.00  0.00    +0.000 A 
ATOM     10  C   UNL     1       3.391   2.836  18.844  0.00  0.00    +0.000 A 
ATOM     11  C   UNL     1       3.063   4.135  19.303  0.00  0.00    +0.000 A 
ATOM     12  C   UNL     1       3.616   5.248  18.614  0.00  0.00    +0.000 A 
BRANCH   7  14
ATOM     13  C   UNL     1       6.272   6.778  17.307  0.00  0.00    +0.000 C 
ATOM     14  C   UNL     1       5.035   6.175  16.627  0.00  0.00    +0.000 C 
ATOM     15  C   UNL     1       5.371   5.731  15.200  0.00  0.00    +0.000 C 
ENDBRANCH   7  14
BRANCH  11  16
ATOM     16  C   UNL     1       2.241   4.145  20.599  0.00  0.00    +0.000 C 
ATOM     17  C   UNL     1       0.762   4.415  20.306  0.00  0.00    +0.000 C 
ATOM     18  C   UNL     1       2.385   2.975  21.570  0.00  0.00    +0.000 C 
ENDBRANCH  11  16
ENDBRANCH   1  12
BRANCH   4  19
ATOM     19  C   UNL     1       1.176   9.468  18.485  0.00  0.00    +0.000 C 
BRANCH  19  20
ATOM     20  C   UNL     1       0.300  10.152  19.572  0.00  0.00    +0.000 C 
ATOM     21  C   UNL     1       0.022   9.222  20.783  0.00  0.00    +0.000 C 
ATOM     22  C   UNL     1      -0.422  10.158  21.902  0.00  0.00    +0.000 C 
ATOM     23  C   UNL     1       0.326  11.463  21.655  0.00  0.00    +0.000 C 
ATOM     24  C   UNL     1       1.038  11.301  20.309  0.00  0.00    +0.000 C 
BRANCH  20  25
ATOM     25  C   UNL     1      -0.975  10.618  18.823  0.00  0.00    +0.000 A 
ATOM     26  C   UNL     1      -1.879  11.531  19.391  0.00  0.00    +0.000 A 
ATOM     27  C   UNL     1      -3.100  11.828  18.778  0.00  0.00    +0.000 A 
ATOM     28  C   UNL     1      -3.453  11.213  17.581  0.00  0.00    +0.000 A 
ATOM     29  C   UNL     1      -2.584  10.298  16.982  0.00  0.00    +0.000 A 
ATOM     30  C   UNL     1      -1.362  10.004  17.611  0.00  0.00    +0.000 A 
BRANCH  29  31
ATOM     31  C   UNL     1      -2.970   9.618  15.694  0.00  0.00    +0.000 C 
BRANCH  31  32
ATOM     32  O   UNL     1      -2.930  10.536  14.611  0.00  0.00    +0.000 OA
ATOM     33  H   UNL     1      -2.008  10.832  14.521  0.00  0.00    +0.000 HD
ENDBRANCH  31  32
ENDBRANCH  29  31
ENDBRANCH  20  25
ENDBRANCH  19  20
ENDBRANCH   4  19
TORSDOF 8
ENDMDL
MODEL 6
REMARK VINA RESULT:      -7.6      2.329      8.663
REMARK  Name = 
REMARK  12 active torsions:
REMARK  status: ('A' for Active; 'I' for Inactive)
REMARK    1  A    between atoms: C_1  and  C_2
REMARK    2  A    between atoms: C_2  and  C_3
REMARK    3  A    between atoms: C_2  and  C_4
REMARK    4  A    between atoms: C_8  and  C_9
REMARK    5  A    between atoms: C_9  and  C_10
REMARK    6  A    between atoms: C_9  and  C_11
REMARK    7  A    between atoms: C_12  and  N_13
REMARK    8  A    between atoms: N_16  and  C_17
REMARK    9  A    between atoms: C_17  and  C_18
REMARK   10  A    between atoms: C_18  and  C_19
REMARK   11  A    between atoms: C_23  and  C_24
REMARK   12  A    between atoms: C_24  and  O_25
REMARK                            x       y       z     vdW  Elec       q    Type
REMARK                         _______ _______ _______ _____ _____    ______ ____
ROOT
ATOM      1  N   UNL     1       2.434   6.491  17.626  0.00  0.00    +0.000 N 
ATOM      2  C   UNL     1       2.354   7.605  18.442  0.00  0.00    +0.000 C 
ATOM      3  O   UNL     1       2.970   7.780  19.484  0.00  0.00    +0.000 OA
ATOM      4  N   UNL     1       1.455   8.527  17.925  0.00  0.00    +0.000 N 
ATOM      5  H   UNL     1       1.560   6.308  17.175  0.00  0.00    +0.000 HD
ATOM      6  H   UNL     1       1.397   8.509  16.916  0.00  0.00    +0.000 HD
ENDROOT
BRANCH   1  12
ATOM      7  C   UNL     1       2.710   4.348  18.807  0.00  0.00    +0.000 A 
ATOM      8  C   UNL     1       3.541   3.263  19.162  0.00  0.00    +0.000 A 
ATOM      9  C   UNL     1       4.836   3.158  18.675  0.00  0.00    +0.000 A 
ATOM     10  C   UNL     1       5.330   4.144  17.836  0.00  0.00    +0.000 A 
ATOM     11  C   UNL     1       4.562   5.273  17.463  0.00  0.00    +0.000 A 
ATOM     12  C   UNL     1       3.226   5.360  17.941  0.00  0.00    +0.000 A 
BRANCH   7  14
ATOM     13  C   UNL     1       0.672   2.986  19.434  0.00  0.00    +0.000 C 
ATOM     14  C   UNL     1       1.304   4.384  19.415  0.00  0.00    +0.000 C 
ATOM     15  C   UNL     1       1.293   4.995  20.820  0.00  0.00    +0.000 C 
ENDBRANCH   7  14
BRANCH  11  16
ATOM     16  C   UNL     1       5.264   6.197  16.459  0.00  0.00    +0.000 C 
ATOM     17  C   UNL     1       6.399   6.973  17.131  0.00  0.00    +0.000 C 
ATOM     18  C   UNL     1       5.734   5.614  15.127  0.00  0.00    +0.000 C 
ENDBRANCH  11  16
ENDBRANCH   1  12
BRANCH   4  19
ATOM     19  C   UNL     1       1.363   9.821  18.581  0.00  0.00    +0.000 C 
BRANCH  19  20
ATOM     20  C   UNL     1      -0.057  10.394  18.847  0.00  0.00    +0.000 C 
ATOM     21  C   UNL     1      -0.254  11.806  18.236  0.00  0.00    +0.000 C 
ATOM     22  C   UNL     1      -1.765  12.005  18.182  0.00  0.00    +0.000 C 
ATOM     23  C   UNL     1      -2.346  10.612  17.966  0.00  0.00    +0.000 C 
ATOM     24  C   UNL     1      -1.170   9.636  18.077  0.00  0.00    +0.000 C 
BRANCH  20  25
ATOM     25  C   UNL     1      -0.227  10.340  20.388  0.00  0.00    +0.000 A 
ATOM     26  C   UNL     1      -0.126   9.136  21.105  0.00  0.00    +0.000 A 
ATOM     27  C   UNL     1      -0.432   9.070  22.468  0.00  0.00    +0.000 A 
ATOM     28  C   UNL     1      -0.853  10.207  23.149  0.00  0.00    +0.000 A 
ATOM     29  C   UNL     1      -0.967  11.425  22.475  0.00  0.00    +0.000 A 
ATOM     30  C   UNL     1      -0.662  11.477  21.103  0.00  0.00    +0.000 A 
BRANCH  29  31
ATOM     31  C   UNL     1      -1.439  12.655  23.206  0.00  0.00    +0.000 C 
BRANCH  31  32
ATOM     32  O   UNL     1      -2.799  12.518  23.592  0.00  0.00    +0.000 OA
ATOM     33  H   UNL     1      -2.919  11.601  23.894  0.00  0.00    +0.000 HD
ENDBRANCH  31  32
ENDBRANCH  29  31
ENDBRANCH  20  25
ENDBRANCH  19  20
ENDBRANCH   4  19
TORSDOF 8
ENDMDL
MODEL 7
REMARK VINA RESULT:      -7.6      2.226      8.527
REMARK  Name = 
REMARK  12 active torsions:
REMARK  status: ('A' for Active; 'I' for Inactive)
REMARK    1  A    between atoms: C_1  and  C_2
REMARK    2  A    between atoms: C_2  and  C_3
REMARK    3  A    between atoms: C_2  and  C_4
REMARK    4  A    between atoms: C_8  and  C_9
REMARK    5  A    between atoms: C_9  and  C_10
REMARK    6  A    between atoms: C_9  and  C_11
REMARK    7  A    between atoms: C_12  and  N_13
REMARK    8  A    between atoms: N_16  and  C_17
REMARK    9  A    between atoms: C_17  and  C_18
REMARK   10  A    between atoms: C_18  and  C_19
REMARK   11  A    between atoms: C_23  and  C_24
REMARK   12  A    between atoms: C_24  and  O_25
REMARK                            x       y       z     vdW  Elec       q    Type
REMARK                         _______ _______ _______ _____ _____    ______ ____
ROOT
ATOM      1  N   UNL     1       3.114   6.306  19.207  0.00  0.00    +0.000 N 
ATOM      2  C   UNL     1       2.289   7.288  18.688  0.00  0.00    +0.000 C 
ATOM      3  O   UNL     1       1.661   7.222  17.641  0.00  0.00    +0.000 OA
ATOM      4  N   UNL     1       2.263   8.398  19.522  0.00  0.00    +0.000 N 
ATOM      5  H   UNL     1       3.875   6.705  19.719  0.00  0.00    +0.000 HD
ATOM      6  H   UNL     1       2.396   8.168  20.498  0.00  0.00    +0.000 HD
ENDROOT
BRANCH   1  12
ATOM      7  C   UNL     1       2.680   3.901  18.906  0.00  0.00    +0.000 A 
ATOM      8  C   UNL     1       3.011   2.685  18.270  0.00  0.00    +0.000 A 
ATOM      9  C   UNL     1       3.988   2.629  17.287  0.00  0.00    +0.000 A 
ATOM     10  C   UNL     1       4.665   3.785  16.931  0.00  0.00    +0.000 A 
ATOM     11  C   UNL     1       4.404   5.032  17.550  0.00  0.00    +0.000 A 
ATOM     12  C   UNL     1       3.381   5.089  18.535  0.00  0.00    +0.000 A 
BRANCH   7  14
ATOM     13  C   UNL     1       0.550   2.781  19.686  0.00  0.00    +0.000 C 
ATOM     14  C   UNL     1       1.603   3.854  19.994  0.00  0.00    +0.000 C 
ATOM     15  C   UNL     1       2.195   3.638  21.391  0.00  0.00    +0.000 C 
ENDBRANCH   7  14
BRANCH  11  16
ATOM     16  C   UNL     1       5.199   6.200  16.950  0.00  0.00    +0.000 C 
ATOM     17  C   UNL     1       6.560   6.345  17.637  0.00  0.00    +0.000 C 
ATOM     18  C   UNL     1       5.358   6.278  15.432  0.00  0.00    +0.000 C 
ENDBRANCH  11  16
ENDBRANCH   1  12
BRANCH   4  19
ATOM     19  C   UNL     1       1.328   9.462  19.202  0.00  0.00    +0.000 C 
BRANCH  19  20
ATOM     20  C   UNL     1       0.277   9.847  20.280  0.00  0.00    +0.000 C 
ATOM     21  C   UNL     1      -0.209   8.623  21.101  0.00  0.00    +0.000 C 
ATOM     22  C   UNL     1      -0.841   9.217  22.356  0.00  0.00    +0.000 C 
ATOM     23  C   UNL     1      -0.060  10.497  22.631  0.00  0.00    +0.000 C 
ATOM     24  C   UNL     1       0.876  10.693  21.434  0.00  0.00    +0.000 C 
BRANCH  20  25
ATOM     25  C   UNL     1      -0.848  10.575  19.500  0.00  0.00    +0.000 A 
ATOM     26  C   UNL     1      -1.615  11.598  20.084  0.00  0.00    +0.000 A 
ATOM     27  C   UNL     1      -2.725  12.142  19.430  0.00  0.00    +0.000 A 
ATOM     28  C   UNL     1      -3.101  11.673  18.175  0.00  0.00    +0.000 A 
ATOM     29  C   UNL     1      -2.366  10.656  17.559  0.00  0.00    +0.000 A 
ATOM     30  C   UNL     1      -1.256  10.114  18.229  0.00  0.00    +0.000 A 
BRANCH  29  31
ATOM     31  C   UNL     1      -2.781  10.135  16.208  0.00  0.00    +0.000 C 
BRANCH  31  32
ATOM     32  O   UNL     1      -3.040  11.208  15.314  0.00  0.00    +0.000 OA
ATOM     33  H   UNL     1      -2.680  12.013  15.724  0.00  0.00    +0.000 HD
ENDBRANCH  31  32
ENDBRANCH  29  31
ENDBRANCH  20  25
ENDBRANCH  19  20
ENDBRANCH   4  19
TORSDOF 8
ENDMDL
MODEL 8
REMARK VINA RESULT:      -7.6      2.205      8.824
REMARK  Name = 
REMARK  12 active torsions:
REMARK  status: ('A' for Active; 'I' for Inactive)
REMARK    1  A    between atoms: C_1  and  C_2
REMARK    2  A    between atoms: C_2  and  C_3
REMARK    3  A    between atoms: C_2  and  C_4
REMARK    4  A    between atoms: C_8  and  C_9
REMARK    5  A    between atoms: C_9  and  C_10
REMARK    6  A    between atoms: C_9  and  C_11
REMARK    7  A    between atoms: C_12  and  N_13
REMARK    8  A    between atoms: N_16  and  C_17
REMARK    9  A    between atoms: C_17  and  C_18
REMARK   10  A    between atoms: C_18  and  C_19
REMARK   11  A    between atoms: C_23  and  C_24
REMARK   12  A    between atoms: C_24  and  O_25
REMARK                            x       y       z     vdW  Elec       q    Type
REMARK                         _______ _______ _______ _____ _____    ______ ____
ROOT
ATOM      1  N   UNL     1       2.953   6.517  19.200  0.00  0.00    +0.000 N 
ATOM      2  C   UNL     1       2.291   7.515  18.506  0.00  0.00    +0.000 C 
ATOM      3  O   UNL     1       1.920   7.459  17.343  0.00  0.00    +0.000 OA
ATOM      4  N   UNL     1       2.099   8.627  19.314  0.00  0.00    +0.000 N 
ATOM      5  H   UNL     1       3.584   6.901  19.874  0.00  0.00    +0.000 HD
ATOM      6  H   UNL     1       1.998   8.399  20.294  0.00  0.00    +0.000 HD
ENDROOT
BRANCH   1  12
ATOM      7  C   UNL     1       2.687   4.078  18.982  0.00  0.00    +0.000 A 
ATOM      8  C   UNL     1       3.135   2.860  18.427  0.00  0.00    +0.000 A 
ATOM      9  C   UNL     1       4.182   2.824  17.518  0.00  0.00    +0.000 A 
ATOM     10  C   UNL     1       4.812   4.005  17.157  0.00  0.00    +0.000 A 
ATOM     11  C   UNL     1       4.433   5.258  17.697  0.00  0.00    +0.000 A 
ATOM     12  C   UNL     1       3.340   5.292  18.605  0.00  0.00    +0.000 A 
BRANCH   7  14
ATOM     13  C   UNL     1       0.554   2.887  19.640  0.00  0.00    +0.000 C 
ATOM     14  C   UNL     1       1.539   4.009  19.994  0.00  0.00    +0.000 C 
ATOM     15  C   UNL     1       2.041   3.847  21.433  0.00  0.00    +0.000 C 
ENDBRANCH   7  14
BRANCH  11  16
ATOM     16  C   UNL     1       5.197   6.447  17.099  0.00  0.00    +0.000 C 
ATOM     17  C   UNL     1       6.646   6.470  17.593  0.00  0.00    +0.000 C 
ATOM     18  C   UNL     1       5.147   6.669  15.589  0.00  0.00    +0.000 C 
ENDBRANCH  11  16
ENDBRANCH   1  12
BRANCH   4  19
ATOM     19  C   UNL     1       1.286   9.711  18.788  0.00  0.00    +0.000 C 
BRANCH  19  20
ATOM     20  C   UNL     1       0.220  10.334  19.731  0.00  0.00    +0.000 C 
ATOM     21  C   UNL     1       0.067   9.548  21.060  0.00  0.00    +0.000 C 
ATOM     22  C   UNL     1      -0.634  10.513  22.010  0.00  0.00    +0.000 C 
ATOM     23  C   UNL     1      -0.163  11.901  21.591  0.00  0.00    +0.000 C 
ATOM     24  C   UNL     1       0.651  11.709  20.308  0.00  0.00    +0.000 C 
BRANCH  20  25
ATOM     25  C   UNL     1      -1.075  10.402  18.881  0.00  0.00    +0.000 A 
ATOM     26  C   UNL     1      -1.164   9.802  17.613  0.00  0.00    +0.000 A 
ATOM     27  C   UNL     1      -2.276   9.996  16.789  0.00  0.00    +0.000 A 
ATOM     28  C   UNL     1      -3.329  10.804  17.209  0.00  0.00    +0.000 A 
ATOM     29  C   UNL     1      -3.281  11.421  18.461  0.00  0.00    +0.000 A 
ATOM     30  C   UNL     1      -2.154  11.221  19.278  0.00  0.00    +0.000 A 
BRANCH  29  31
ATOM     31  C   UNL     1      -4.412  12.308  18.911  0.00  0.00    +0.000 C 
BRANCH  31  32
ATOM     32  O   UNL     1      -5.239  12.663  17.813  0.00  0.00    +0.000 OA
ATOM     33  H   UNL     1      -5.457  11.840  17.342  0.00  0.00    +0.000 HD
ENDBRANCH  31  32
ENDBRANCH  29  31
ENDBRANCH  20  25
ENDBRANCH  19  20
ENDBRANCH   4  19
TORSDOF 8
ENDMDL
MODEL 9
REMARK VINA RESULT:      -7.6      2.285      8.330
REMARK  Name = 
REMARK  12 active torsions:
REMARK  status: ('A' for Active; 'I' for Inactive)
REMARK    1  A    between atoms: C_1  and  C_2
REMARK    2  A    between atoms: C_2  and  C_3
REMARK    3  A    between atoms: C_2  and  C_4
REMARK    4  A    between atoms: C_8  and  C_9
REMARK    5  A    between atoms: C_9  and  C_10
REMARK    6  A    between atoms: C_9  and  C_11
REMARK    7  A    between atoms: C_12  and  N_13
REMARK    8  A    between atoms: N_16  and  C_17
REMARK    9  A    between atoms: C_17  and  C_18
REMARK   10  A    between atoms: C_18  and  C_19
REMARK   11  A    between atoms: C_23  and  C_24
REMARK   12  A    between atoms: C_24  and  O_25
REMARK                            x       y       z     vdW  Elec       q    Type
REMARK                         _______ _______ _______ _____ _____    ______ ____
ROOT
ATOM      1  N   UNL     1       2.474   6.555  17.575  0.00  0.00    +0.000 N 
ATOM      2  C   UNL     1       2.352   7.641  18.424  0.00  0.00    +0.000 C 
ATOM      3  O   UNL     1       2.904   7.774  19.507  0.00  0.00    +0.000 OA
ATOM      4  N   UNL     1       1.494   8.590  17.886  0.00  0.00    +0.000 N 
ATOM      5  H   UNL     1       1.628   6.397  17.065  0.00  0.00    +0.000 HD
ATOM      6  H   UNL     1       1.499   8.607  16.874  0.00  0.00    +0.000 HD
ENDROOT
BRANCH   1  12
ATOM      7  C   UNL     1       4.560   5.262  17.383  0.00  0.00    +0.000 A 
ATOM      8  C   UNL     1       5.276   4.077  17.661  0.00  0.00    +0.000 A 
ATOM      9  C   UNL     1       4.723   3.065  18.433  0.00  0.00    +0.000 A 
ATOM     10  C   UNL     1       3.438   3.212  18.930  0.00  0.00    +0.000 A 
ATOM     11  C   UNL     1       2.653   4.361  18.664  0.00  0.00    +0.000 A 
ATOM     12  C   UNL     1       3.236   5.406  17.898  0.00  0.00    +0.000 A 
BRANCH   7  14
ATOM     13  C   UNL     1       6.503   6.871  17.188  0.00  0.00    +0.000 C 
ATOM     14  C   UNL     1       5.250   6.309  16.503  0.00  0.00    +0.000 C 
ATOM     15  C   UNL     1       5.599   5.763  15.114  0.00  0.00    +0.000 C 
ENDBRANCH   7  14
BRANCH  11  16
ATOM     16  C   UNL     1       1.295   4.362  19.379  0.00  0.00    +0.000 C 
ATOM     17  C   UNL     1       0.677   2.961  19.382  0.00  0.00    +0.000 C 
ATOM     18  C   UNL     1       1.196   4.989  20.769  0.00  0.00    +0.000 C 
ENDBRANCH  11  16
ENDBRANCH   1  12
BRANCH   4  19
ATOM     19  C   UNL     1       1.371   9.861  18.579  0.00  0.00    +0.000 C 
BRANCH  19  20
ATOM     20  C   UNL     1      -0.062  10.400  18.847  0.00  0.00    +0.000 C 
ATOM     21  C   UNL     1      -0.294  11.805  18.229  0.00  0.00    +0.000 C 
ATOM     22  C   UNL     1      -1.810  11.966  18.179  0.00  0.00    +0.000 C 
ATOM     23  C   UNL     1      -2.357  10.559  17.970  0.00  0.00    +0.000 C 
ATOM     24  C   UNL     1      -1.158   9.612  18.082  0.00  0.00    +0.000 C 
BRANCH  20  25
ATOM     25  C   UNL     1      -0.227  10.349  20.387  0.00  0.00    +0.000 A 
ATOM     26  C   UNL     1      -0.165   9.140  21.102  0.00  0.00    +0.000 A 
ATOM     27  C   UNL     1      -0.467   9.081  22.466  0.00  0.00    +0.000 A 
ATOM     28  C   UNL     1      -0.846  10.232  23.152  0.00  0.00    +0.000 A 
ATOM     29  C   UNL     1      -0.921  11.454  22.480  0.00  0.00    +0.000 A 
ATOM     30  C   UNL     1      -0.620  11.498  21.107  0.00  0.00    +0.000 A 
BRANCH  29  31
ATOM     31  C   UNL     1      -1.346  12.698  23.216  0.00  0.00    +0.000 C 
BRANCH  31  32
ATOM     32  O   UNL     1      -1.083  13.856  22.437  0.00  0.00    +0.000 OA
ATOM     33  H   UNL     1      -1.832  14.463  22.567  0.00  0.00    +0.000 HD
ENDBRANCH  31  32
ENDBRANCH  29  31
ENDBRANCH  20  25
ENDBRANCH  19  20
ENDBRANCH   4  19
TORSDOF 8
ENDMDL
