MODEL 1
REMARK VINA RESULT:      -6.1      0.000      0.000
REMARK  Name = 
REMARK  3 active torsions:
REMARK  status: ('A' for Active; 'I' for Inactive)
REMARK    1  A    between atoms: N_5  and  C_6
REMARK    2  A    between atoms: C_6  and  C_7
REMARK    3  A    between atoms: C_7  and  C_8
REMARK                            x       y       z     vdW  Elec       q    Type
REMARK                         _______ _______ _______ _____ _____    ______ ____
ROOT
ATOM      1  C   UNL     1       7.700   6.549  18.204  0.00  0.00    +0.000 A 
ATOM      2  C   UNL     1       6.894   6.306  17.105  0.00  0.00    +0.000 A 
ATOM      3  C   UNL     1       5.926   5.306  17.183  0.00  0.00    +0.000 A 
ATOM      4  C   UNL     1       5.785   4.565  18.350  0.00  0.00    +0.000 A 
ATOM      5  N   UNL     1       4.827   3.597  18.521  0.00  0.00    +0.000 N 
ATOM      6  N   UNL     1       6.576   4.788  19.417  0.00  0.00    +0.000 NA
ATOM      7  C   UNL     1       7.504   5.769  19.328  0.00  0.00    +0.000 A 
ATOM      8  H   UNL     1       4.960   3.060  19.369  0.00  0.00    +0.000 HD
ENDROOT
BRANCH   5   9
ATOM      9  C   UNL     1       3.980   3.109  17.449  0.00  0.00    +0.000 C 
BRANCH   9  10
ATOM     10  C   UNL     1       2.642   3.847  17.400  0.00  0.00    +0.000 C 
BRANCH  10  11
ATOM     11  C   UNL     1       1.908   3.718  18.690  0.00  0.00    +0.000 A 
ATOM     12  C   UNL     1       0.965   2.785  19.068  0.00  0.00    +0.000 A 
ATOM     13  N   UNL     1       0.637   3.105  20.357  0.00  0.00    +0.000 N 
ATOM     14  C   UNL     1       1.378   4.195  20.710  0.00  0.00    +0.000 A 
ATOM     15  N   UNL     1       2.152   4.589  19.727  0.00  0.00    +0.000 NA
ATOM     16  H   UNL     1      -0.027   2.623  20.947  0.00  0.00    +0.000 HD
ENDBRANCH  10  11
ENDBRANCH   9  10
ENDBRANCH   5   9
TORSDOF 3
ENDMDL
MODEL 2
REMARK VINA RESULT:      -5.9      1.668      5.217
REMARK  Name = 
REMARK  3 active torsions:
REMARK  status: ('A' for Active; 'I' for Inactive)
REMARK    1  A    between atoms: N_5  and  C_6
REMARK    2  A    between atoms: C_6  and  C_7
REMARK    3  A    between atoms: C_7  and  C_8
REMARK                            x       y       z     vdW  Elec       q    Type
REMARK                         _______ _______ _______ _____ _____    ______ ____
ROOT
ATOM      1  C   UNL     1       1.988   4.631  19.925  0.00  0.00    +0.000 A 
ATOM      2  C   UNL     1       2.091   5.260  18.696  0.00  0.00    +0.000 A 
ATOM      3  C   UNL     1       3.102   4.870  17.818  0.00  0.00    +0.000 A 
ATOM      4  C   UNL     1       3.992   3.868  18.185  0.00  0.00    +0.000 A 
ATOM      5  N   UNL     1       4.983   3.396  17.359  0.00  0.00    +0.000 N 
ATOM      6  N   UNL     1       3.905   3.262  19.385  0.00  0.00    +0.000 NA
ATOM      7  C   UNL     1       2.911   3.646  20.220  0.00  0.00    +0.000 A 
ATOM      8  H   UNL     1       5.626   2.776  17.835  0.00  0.00    +0.000 HD
ENDROOT
BRANCH   5   9
ATOM      9  C   UNL     1       5.333   4.012  16.094  0.00  0.00    +0.000 C 
BRANCH   9  10
ATOM     10  C   UNL     1       6.829   4.313  16.003  0.00  0.00    +0.000 C 
BRANCH  10  11
ATOM     11  C   UNL     1       7.271   5.192  17.122  0.00  0.00    +0.000 A 
ATOM     12  C   UNL     1       7.350   6.568  17.173  0.00  0.00    +0.000 A 
ATOM     13  N   UNL     1       7.788   6.858  18.435  0.00  0.00    +0.000 N 
ATOM     14  C   UNL     1       7.954   5.674  19.094  0.00  0.00    +0.000 A 
ATOM     15  N   UNL     1       7.653   4.652  18.329  0.00  0.00    +0.000 NA
ATOM     16  H   UNL     1       7.954   7.778  18.819  0.00  0.00    +0.000 HD
ENDBRANCH  10  11
ENDBRANCH   9  10
ENDBRANCH   5   9
TORSDOF 3
ENDMDL
MODEL 3
REMARK VINA RESULT:      -5.8      0.839      1.016
REMARK  Name = 
REMARK  3 active torsions:
REMARK  status: ('A' for Active; 'I' for Inactive)
REMARK    1  A    between atoms: N_5  and  C_6
REMARK    2  A    between atoms: C_6  and  C_7
REMARK    3  A    between atoms: C_7  and  C_8
REMARK                            x       y       z     vdW  Elec       q    Type
REMARK                         _______ _______ _______ _____ _____    ______ ____
ROOT
ATOM      1  C   UNL     1       7.719   6.658  18.305  0.00  0.00    +0.000 A 
ATOM      2  C   UNL     1       6.883   6.517  17.211  0.00  0.00    +0.000 A 
ATOM      3  C   UNL     1       5.925   5.503  17.217  0.00  0.00    +0.000 A 
ATOM      4  C   UNL     1       5.825   4.649  18.309  0.00  0.00    +0.000 A 
ATOM      5  N   UNL     1       4.880   3.659  18.410  0.00  0.00    +0.000 N 
ATOM      6  N   UNL     1       6.646   4.774  19.370  0.00  0.00    +0.000 NA
ATOM      7  C   UNL     1       7.562   5.769  19.351  0.00  0.00    +0.000 A 
ATOM      8  H   UNL     1       5.043   3.042  19.197  0.00  0.00    +0.000 HD
ENDROOT
BRANCH   5   9
ATOM      9  C   UNL     1       4.006   3.270  17.321  0.00  0.00    +0.000 C 
BRANCH   9  10
ATOM     10  C   UNL     1       2.563   3.714  17.563  0.00  0.00    +0.000 C 
BRANCH  10  11
ATOM     11  C   UNL     1       2.197   3.595  19.002  0.00  0.00    +0.000 A 
ATOM     12  C   UNL     1       1.730   4.561  19.867  0.00  0.00    +0.000 A 
ATOM     13  N   UNL     1       1.527   3.915  21.055  0.00  0.00    +0.000 N 
ATOM     14  C   UNL     1       1.868   2.606  20.874  0.00  0.00    +0.000 A 
ATOM     15  N   UNL     1       2.278   2.382  19.648  0.00  0.00    +0.000 NA
ATOM     16  H   UNL     1       1.182   4.324  21.913  0.00  0.00    +0.000 HD
ENDBRANCH  10  11
ENDBRANCH   9  10
ENDBRANCH   5   9
TORSDOF 3
ENDMDL
MODEL 4
REMARK VINA RESULT:      -5.8      1.966      5.403
REMARK  Name = 
REMARK  3 active torsions:
REMARK  status: ('A' for Active; 'I' for Inactive)
REMARK    1  A    between atoms: N_5  and  C_6
REMARK    2  A    between atoms: C_6  and  C_7
REMARK    3  A    between atoms: C_7  and  C_8
REMARK                            x       y       z     vdW  Elec       q    Type
REMARK                         _______ _______ _______ _____ _____    ______ ____
ROOT
ATOM      1  C   UNL     1       1.512   3.246  18.205  0.00  0.00    +0.000 A 
ATOM      2  C   UNL     1       1.952   4.551  18.350  0.00  0.00    +0.000 A 
ATOM      3  C   UNL     1       3.305   4.786  18.597  0.00  0.00    +0.000 A 
ATOM      4  C   UNL     1       4.187   3.717  18.701  0.00  0.00    +0.000 A 
ATOM      5  N   UNL     1       5.538   3.868  18.897  0.00  0.00    +0.000 N 
ATOM      6  N   UNL     1       3.762   2.446  18.574  0.00  0.00    +0.000 NA
ATOM      7  C   UNL     1       2.448   2.237  18.324  0.00  0.00    +0.000 A 
ATOM      8  H   UNL     1       6.005   2.992  19.094  0.00  0.00    +0.000 HD
ENDROOT
BRANCH   5   9
ATOM      9  C   UNL     1       6.166   5.139  19.203  0.00  0.00    +0.000 C 
BRANCH   9  10
ATOM     10  C   UNL     1       7.259   5.490  18.193  0.00  0.00    +0.000 C 
BRANCH  10  11
ATOM     11  C   UNL     1       6.768   5.343  16.795  0.00  0.00    +0.000 A 
ATOM     12  C   UNL     1       7.231   4.521  15.789  0.00  0.00    +0.000 A 
ATOM     13  N   UNL     1       6.410   4.760  14.721  0.00  0.00    +0.000 N 
ATOM     14  C   UNL     1       5.496   5.696  15.107  0.00  0.00    +0.000 A 
ATOM     15  N   UNL     1       5.687   6.069  16.351  0.00  0.00    +0.000 NA
ATOM     16  H   UNL     1       6.462   4.322  13.811  0.00  0.00    +0.000 HD
ENDBRANCH  10  11
ENDBRANCH   9  10
ENDBRANCH   5   9
TORSDOF 3
ENDMDL
MODEL 5
REMARK VINA RESULT:      -5.7      1.626      5.473
REMARK  Name = 
REMARK  3 active torsions:
REMARK  status: ('A' for Active; 'I' for Inactive)
REMARK    1  A    between atoms: N_5  and  C_6
REMARK    2  A    between atoms: C_6  and  C_7
REMARK    3  A    between atoms: C_7  and  C_8
REMARK                            x       y       z     vdW  Elec       q    Type
REMARK                         _______ _______ _______ _____ _____    ______ ____
ROOT
ATOM      1  C   UNL     1       1.328   2.895  21.281  0.00  0.00    +0.000 A 
ATOM      2  C   UNL     1       0.935   3.321  20.024  0.00  0.00    +0.000 A 
ATOM      3  C   UNL     1       1.889   3.418  19.012  0.00  0.00    +0.000 A 
ATOM      4  C   UNL     1       3.215   3.094  19.276  0.00  0.00    +0.000 A 
ATOM      5  N   UNL     1       4.203   3.119  18.322  0.00  0.00    +0.000 N 
ATOM      6  N   UNL     1       3.605   2.693  20.501  0.00  0.00    +0.000 NA
ATOM      7  C   UNL     1       2.664   2.595  21.468  0.00  0.00    +0.000 A 
ATOM      8  H   UNL     1       5.128   2.999  18.716  0.00  0.00    +0.000 HD
ENDROOT
BRANCH   5   9
ATOM      9  C   UNL     1       4.018   3.661  16.990  0.00  0.00    +0.000 C 
BRANCH   9  10
ATOM     10  C   UNL     1       5.350   3.842  16.261  0.00  0.00    +0.000 C 
BRANCH  10  11
ATOM     11  C   UNL     1       6.068   5.054  16.744  0.00  0.00    +0.000 A 
ATOM     12  C   UNL     1       5.912   6.371  16.366  0.00  0.00    +0.000 A 
ATOM     13  N   UNL     1       6.795   7.076  17.136  0.00  0.00    +0.000 N 
ATOM     14  C   UNL     1       7.442   6.183  17.940  0.00  0.00    +0.000 A 
ATOM     15  N   UNL     1       7.027   4.956  17.726  0.00  0.00    +0.000 NA
ATOM     16  H   UNL     1       6.943   8.076  17.123  0.00  0.00    +0.000 HD
ENDBRANCH  10  11
ENDBRANCH   9  10
ENDBRANCH   5   9
TORSDOF 3
ENDMDL
MODEL 6
REMARK VINA RESULT:      -5.7      1.788      5.140
REMARK  Name = 
REMARK  3 active torsions:
REMARK  status: ('A' for Active; 'I' for Inactive)
REMARK    1  A    between atoms: N_5  and  C_6
REMARK    2  A    between atoms: C_6  and  C_7
REMARK    3  A    between atoms: C_7  and  C_8
REMARK                            x       y       z     vdW  Elec       q    Type
REMARK                         _______ _______ _______ _____ _____    ______ ____
ROOT
ATOM      1  C   UNL     1       1.250   2.601  20.814  0.00  0.00    +0.000 A 
ATOM      2  C   UNL     1       0.988   3.073  19.539  0.00  0.00    +0.000 A 
ATOM      3  C   UNL     1       1.495   4.315  19.159  0.00  0.00    +0.000 A 
ATOM      4  C   UNL     1       2.245   5.063  20.059  0.00  0.00    +0.000 A 
ATOM      5  N   UNL     1       2.816   6.272  19.746  0.00  0.00    +0.000 N 
ATOM      6  N   UNL     1       2.491   4.615  21.305  0.00  0.00    +0.000 NA
ATOM      7  C   UNL     1       2.000   3.403  21.653  0.00  0.00    +0.000 A 
ATOM      8  H   UNL     1       3.199   6.745  20.555  0.00  0.00    +0.000 HD
ENDROOT
BRANCH   5   9
ATOM      9  C   UNL     1       2.548   6.990  18.515  0.00  0.00    +0.000 C 
BRANCH   9  10
ATOM     10  C   UNL     1       3.797   7.104  17.640  0.00  0.00    +0.000 C 
BRANCH  10  11
ATOM     11  C   UNL     1       4.589   5.842  17.665  0.00  0.00    +0.000 A 
ATOM     12  C   UNL     1       4.565   4.778  16.789  0.00  0.00    +0.000 A 
ATOM     13  N   UNL     1       5.504   3.901  17.258  0.00  0.00    +0.000 N 
ATOM     14  C   UNL     1       6.056   4.453  18.378  0.00  0.00    +0.000 A 
ATOM     15  N   UNL     1       5.525   5.621  18.650  0.00  0.00    +0.000 NA
ATOM     16  H   UNL     1       5.753   3.010  16.853  0.00  0.00    +0.000 HD
ENDBRANCH  10  11
ENDBRANCH   9  10
ENDBRANCH   5   9
TORSDOF 3
ENDMDL
MODEL 7
REMARK VINA RESULT:      -5.6      1.719      5.948
REMARK  Name = 
REMARK  3 active torsions:
REMARK  status: ('A' for Active; 'I' for Inactive)
REMARK    1  A    between atoms: N_5  and  C_6
REMARK    2  A    between atoms: C_6  and  C_7
REMARK    3  A    between atoms: C_7  and  C_8
REMARK                            x       y       z     vdW  Elec       q    Type
REMARK                         _______ _______ _______ _____ _____    ______ ____
ROOT
ATOM      1  C   UNL     1       0.631   2.898  19.940  0.00  0.00    +0.000 A 
ATOM      2  C   UNL     1       1.292   3.752  20.807  0.00  0.00    +0.000 A 
ATOM      3  C   UNL     1       2.437   4.412  20.365  0.00  0.00    +0.000 A 
ATOM      4  C   UNL     1       2.904   4.204  19.073  0.00  0.00    +0.000 A 
ATOM      5  N   UNL     1       3.996   4.852  18.549  0.00  0.00    +0.000 N 
ATOM      6  N   UNL     1       2.273   3.364  18.230  0.00  0.00    +0.000 NA
ATOM      7  C   UNL     1       1.157   2.739  18.672  0.00  0.00    +0.000 A 
ATOM      8  H   UNL     1       4.282   4.475  17.654  0.00  0.00    +0.000 HD
ENDROOT
BRANCH   5   9
ATOM      9  C   UNL     1       4.892   5.677  19.336  0.00  0.00    +0.000 C 
BRANCH   9  10
ATOM     10  C   UNL     1       6.358   5.328  19.080  0.00  0.00    +0.000 C 
BRANCH  10  11
ATOM     11  C   UNL     1       6.674   5.362  17.625  0.00  0.00    +0.000 A 
ATOM     12  C   UNL     1       7.211   6.386  16.872  0.00  0.00    +0.000 A 
ATOM     13  N   UNL     1       7.320   5.883  15.605  0.00  0.00    +0.000 N 
ATOM     14  C   UNL     1       6.859   4.599  15.632  0.00  0.00    +0.000 A 
ATOM     15  N   UNL     1       6.461   4.256  16.834  0.00  0.00    +0.000 NA
ATOM     16  H   UNL     1       7.681   6.366  14.794  0.00  0.00    +0.000 HD
ENDBRANCH  10  11
ENDBRANCH   9  10
ENDBRANCH   5   9
TORSDOF 3
ENDMDL
MODEL 8
REMARK VINA RESULT:      -5.6      1.961      5.586
REMARK  Name = 
REMARK  3 active torsions:
REMARK  status: ('A' for Active; 'I' for Inactive)
REMARK    1  A    between atoms: N_5  and  C_6
REMARK    2  A    between atoms: C_6  and  C_7
REMARK    3  A    between atoms: C_7  and  C_8
REMARK                            x       y       z     vdW  Elec       q    Type
REMARK                         _______ _______ _______ _____ _____    ______ ____
ROOT
ATOM      1  C   UNL     1       1.290   2.962  19.949  0.00  0.00    +0.000 A 
ATOM      2  C   UNL     1       1.773   4.216  20.280  0.00  0.00    +0.000 A 
ATOM      3  C   UNL     1       3.094   4.538  19.970  0.00  0.00    +0.000 A 
ATOM      4  C   UNL     1       3.907   3.602  19.344  0.00  0.00    +0.000 A 
ATOM      5  N   UNL     1       5.202   3.858  18.965  0.00  0.00    +0.000 N 
ATOM      6  N   UNL     1       3.447   2.375  19.032  0.00  0.00    +0.000 NA
ATOM      7  C   UNL     1       2.160   2.083  19.330  0.00  0.00    +0.000 A 
ATOM      8  H   UNL     1       5.692   3.026  18.659  0.00  0.00    +0.000 HD
ENDROOT
BRANCH   5   9
ATOM      9  C   UNL     1       5.925   5.058  19.340  0.00  0.00    +0.000 C 
BRANCH   9  10
ATOM     10  C   UNL     1       7.052   5.373  18.356  0.00  0.00    +0.000 C 
BRANCH  10  11
ATOM     11  C   UNL     1       6.555   5.379  16.952  0.00  0.00    +0.000 A 
ATOM     12  C   UNL     1       5.776   6.314  16.305  0.00  0.00    +0.000 A 
ATOM     13  N   UNL     1       5.638   5.848  15.027  0.00  0.00    +0.000 N 
ATOM     14  C   UNL     1       6.325   4.672  14.943  0.00  0.00    +0.000 A 
ATOM     15  N   UNL     1       6.887   4.361  16.087  0.00  0.00    +0.000 NA
ATOM     16  H   UNL     1       5.127   6.290  14.275  0.00  0.00    +0.000 HD
ENDBRANCH  10  11
ENDBRANCH   9  10
ENDBRANCH   5   9
TORSDOF 3
ENDMDL
MODEL 9
REMARK VINA RESULT:      -5.6      1.212      1.554
REMARK  Name = 
REMARK  3 active torsions:
REMARK  status: ('A' for Active; 'I' for Inactive)
REMARK    1  A    between atoms: N_5  and  C_6
REMARK    2  A    between atoms: C_6  and  C_7
REMARK    3  A    between atoms: C_7  and  C_8
REMARK                            x       y       z     vdW  Elec       q    Type
REMARK                         _______ _______ _______ _____ _____    ______ ____
ROOT
ATOM      1  C   UNL     1       7.751   6.518  18.542  0.00  0.00    +0.000 A 
ATOM      2  C   UNL     1       7.100   5.519  19.246  0.00  0.00    +0.000 A 
ATOM      3  C   UNL     1       5.964   4.930  18.693  0.00  0.00    +0.000 A 
ATOM      4  C   UNL     1       5.497   5.352  17.454  0.00  0.00    +0.000 A 
ATOM      5  N   UNL     1       4.415   4.790  16.822  0.00  0.00    +0.000 N 
ATOM      6  N   UNL     1       6.118   6.333  16.771  0.00  0.00    +0.000 NA
ATOM      7  C   UNL     1       7.225   6.886  17.318  0.00  0.00    +0.000 A 
ATOM      8  H   UNL     1       4.126   5.311  16.004  0.00  0.00    +0.000 HD
ENDROOT
BRANCH   5   9
ATOM      9  C   UNL     1       3.529   3.830  17.451  0.00  0.00    +0.000 C 
BRANCH   9  10
ATOM     10  C   UNL     1       2.242   4.486  17.952  0.00  0.00    +0.000 C 
BRANCH  10  11
ATOM     11  C   UNL     1       1.874   3.987  19.306  0.00  0.00    +0.000 A 
ATOM     12  C   UNL     1       0.845   3.147  19.676  0.00  0.00    +0.000 A 
ATOM     13  N   UNL     1       0.976   2.989  21.029  0.00  0.00    +0.000 N 
ATOM     14  C   UNL     1       2.058   3.721  21.424  0.00  0.00    +0.000 A 
ATOM     15  N   UNL     1       2.619   4.335  20.409  0.00  0.00    +0.000 NA
ATOM     16  H   UNL     1       0.387   2.431  21.631  0.00  0.00    +0.000 HD
ENDBRANCH  10  11
ENDBRANCH   9  10
ENDBRANCH   5   9
TORSDOF 3
ENDMDL
