MODEL 1
REMARK VINA RESULT:      -7.5      0.000      0.000
REMARK  Name = 
REMARK  8 active torsions:
REMARK  status: ('A' for Active; 'I' for Inactive)
REMARK    1  A    between atoms: C_1  and  C_2
REMARK    2  A    between atoms: C_8  and  C_10
REMARK    3  A    between atoms: C_10  and  C_11
REMARK    4  A    between atoms: C_14  and  S_15
REMARK    5  A    between atoms: S_15  and  C_16
REMARK    6  A    between atoms: C_20  and  C_21
REMARK    7  A    between atoms: C_21  and  N_22
REMARK    8  A    between atoms: C_25  and  O_26
REMARK                            x       y       z     vdW  Elec       q    Type
REMARK                         _______ _______ _______ _____ _____    ______ ____
ROOT
ATOM      1  C   UNL     1       2.600   2.502  17.553  0.00  0.00    +0.000 C 
ATOM      2  C   UNL     1       2.361   3.087  18.922  0.00  0.00    +0.000 C 
ATOM      3  O   UNL     1       2.360   2.359  19.914  0.00  0.00    +0.000 OA
ATOM      4  N   UNL     1       2.164   4.456  19.002  0.00  0.00    +0.000 N 
ATOM      5  C   UNL     1       1.873   5.054  20.310  0.00  0.00    +0.000 C 
ATOM      6  C   UNL     1       2.549   6.421  20.478  0.00  0.00    +0.000 C 
ATOM      7  N   UNL     1       2.307   7.298  19.317  0.00  0.00    +0.000 N 
ATOM      8  C   UNL     1       1.627   8.489  19.532  0.00  0.00    +0.000 C 
ATOM      9  O   UNL     1       1.287   8.839  20.666  0.00  0.00    +0.000 OA
ATOM     10  C   UNL     1       2.659   6.698  17.998  0.00  0.00    +0.000 C 
ATOM     11  C   UNL     1       1.935   5.338  17.847  0.00  0.00    +0.000 C 
ENDROOT
BRANCH   8  12
ATOM     12  C   UNL     1       1.336   9.419  18.364  0.00  0.00    +0.000 C 
BRANCH  12  13
ATOM     13  C   UNL     1      -0.085   9.936  18.273  0.00  0.00    +0.000 A 
ATOM     14  C   UNL     1      -0.607  10.900  19.146  0.00  0.00    +0.000 A 
ATOM     15  C   UNL     1      -1.944  11.305  19.052  0.00  0.00    +0.000 A 
ATOM     16  C   UNL     1      -2.785  10.757  18.079  0.00  0.00    +0.000 A 
ATOM     17  C   UNL     1      -2.276   9.783  17.216  0.00  0.00    +0.000 A 
ATOM     18  C   UNL     1      -0.941   9.379  17.311  0.00  0.00    +0.000 A 
BRANCH  16  19
ATOM     19  S   UNL     1      -4.530  11.232  18.003  0.00  0.00    +0.000 S 
ATOM     20  C   UNL     1      -4.563  12.366  19.413  0.00  0.00    +0.000 C 
ATOM     21  O   UNL     1      -4.716  12.093  16.701  0.00  0.00    +0.000 OA
ENDBRANCH  16  19
ENDBRANCH  12  13
ENDBRANCH   8  12
BRANCH  10  22
ATOM     22  C   UNL     1       4.201   6.563  17.816  0.00  0.00    +0.000 C 
BRANCH  22  23
ATOM     23  N   UNL     1       4.662   5.451  16.964  0.00  0.00    +0.000 NA
ATOM     24  C   UNL     1       5.267   5.876  15.692  0.00  0.00    +0.000 C 
ATOM     25  C   UNL     1       6.517   5.030  15.496  0.00  0.00    +0.000 C 
ATOM     26  C   UNL     1       6.961   4.733  16.913  0.00  0.00    +0.000 C 
ATOM     27  C   UNL     1       5.636   4.577  17.658  0.00  0.00    +0.000 C 
BRANCH  26  28
ATOM     28  O   UNL     1       7.722   5.822  17.435  0.00  0.00    +0.000 OA
ATOM     29  H   UNL     1       7.997   5.582  18.336  0.00  0.00    +0.000 HD
ENDBRANCH  26  28
ENDBRANCH  22  23
ENDBRANCH  10  22
TORSDOF 6
ENDMDL
MODEL 2
REMARK VINA RESULT:      -7.5      2.155      2.489
REMARK  Name = 
REMARK  8 active torsions:
REMARK  status: ('A' for Active; 'I' for Inactive)
REMARK    1  A    between atoms: C_1  and  C_2
REMARK    2  A    between atoms: C_8  and  C_10
REMARK    3  A    between atoms: C_10  and  C_11
REMARK    4  A    between atoms: C_14  and  S_15
REMARK    5  A    between atoms: S_15  and  C_16
REMARK    6  A    between atoms: C_20  and  C_21
REMARK    7  A    between atoms: C_21  and  N_22
REMARK    8  A    between atoms: C_25  and  O_26
REMARK                            x       y       z     vdW  Elec       q    Type
REMARK                         _______ _______ _______ _____ _____    ______ ____
ROOT
ATOM      1  C   UNL     1       2.620   2.209  17.800  0.00  0.00    +0.000 C 
ATOM      2  C   UNL     1       2.339   2.884  19.119  0.00  0.00    +0.000 C 
ATOM      3  O   UNL     1       2.286   2.222  20.154  0.00  0.00    +0.000 OA
ATOM      4  N   UNL     1       2.164   4.259  19.104  0.00  0.00    +0.000 N 
ATOM      5  C   UNL     1       1.835   4.944  20.359  0.00  0.00    +0.000 C 
ATOM      6  C   UNL     1       2.530   6.307  20.467  0.00  0.00    +0.000 C 
ATOM      7  N   UNL     1       2.349   7.112  19.245  0.00  0.00    +0.000 N 
ATOM      8  C   UNL     1       1.684   8.326  19.357  0.00  0.00    +0.000 C 
ATOM      9  O   UNL     1       1.307   8.753  20.452  0.00  0.00    +0.000 OA
ATOM     10  C   UNL     1       2.740   6.424  17.981  0.00  0.00    +0.000 C 
ATOM     11  C   UNL     1       1.997   5.069  17.888  0.00  0.00    +0.000 C 
ENDROOT
BRANCH   8  12
ATOM     12  C   UNL     1       1.455   9.184  18.121  0.00  0.00    +0.000 C 
BRANCH  12  13
ATOM     13  C   UNL     1       1.006  10.607  18.383  0.00  0.00    +0.000 A 
ATOM     14  C   UNL     1      -0.339  10.970  18.537  0.00  0.00    +0.000 A 
ATOM     15  C   UNL     1      -0.703  12.308  18.725  0.00  0.00    +0.000 A 
ATOM     16  C   UNL     1       0.270  13.311  18.769  0.00  0.00    +0.000 A 
ATOM     17  C   UNL     1       1.611  12.958  18.599  0.00  0.00    +0.000 A 
ATOM     18  C   UNL     1       1.975  11.622  18.410  0.00  0.00    +0.000 A 
BRANCH  16  19
ATOM     19  S   UNL     1      -0.210  15.047  18.943  0.00  0.00    +0.000 S 
ATOM     20  C   UNL     1      -0.932  14.962  20.601  0.00  0.00    +0.000 C 
ATOM     21  O   UNL     1       1.117  15.882  19.048  0.00  0.00    +0.000 OA
ENDBRANCH  16  19
ENDBRANCH  12  13
ENDBRANCH   8  12
BRANCH  10  22
ATOM     22  C   UNL     1       4.285   6.252  17.869  0.00  0.00    +0.000 C 
BRANCH  22  23
ATOM     23  N   UNL     1       4.760   5.225  16.923  0.00  0.00    +0.000 NA
ATOM     24  C   UNL     1       5.349   5.767  15.689  0.00  0.00    +0.000 C 
ATOM     25  C   UNL     1       6.612   4.964  15.415  0.00  0.00    +0.000 C 
ATOM     26  C   UNL     1       7.071   4.557  16.800  0.00  0.00    +0.000 C 
ATOM     27  C   UNL     1       5.755   4.314  17.536  0.00  0.00    +0.000 C 
BRANCH  26  28
ATOM     28  O   UNL     1       7.816   5.612  17.408  0.00  0.00    +0.000 OA
ATOM     29  H   UNL     1       7.990   5.356  18.328  0.00  0.00    +0.000 HD
ENDBRANCH  26  28
ENDBRANCH  22  23
ENDBRANCH  10  22
TORSDOF 6
ENDMDL
MODEL 3
REMARK VINA RESULT:      -7.4      1.804      2.006
REMARK  Name = 
REMARK  8 active torsions:
REMARK  status: ('A' for Active; 'I' for Inactive)
REMARK    1  A    between atoms: C_1  and  C_2
REMARK    2  A    between atoms: C_8  and  C_10
REMARK    3  A    between atoms: C_10  and  C_11
REMARK    4  A    between atoms: C_14  and  S_15
REMARK    5  A    between atoms: S_15  and  C_16
REMARK    6  A    between atoms: C_20  and  C_21
REMARK    7  A    between atoms: C_21  and  N_22
REMARK    8  A    between atoms: C_25  and  O_26
REMARK                            x       y       z     vdW  Elec       q    Type
REMARK                         _______ _______ _______ _____ _____    ______ ____
ROOT
ATOM      1  C   UNL     1       2.451   2.194  17.408  0.00  0.00    +0.000 C 
ATOM      2  C   UNL     1       2.006   2.581  18.795  0.00  0.00    +0.000 C 
ATOM      3  O   UNL     1       1.773   1.712  19.634  0.00  0.00    +0.000 OA
ATOM      4  N   UNL     1       1.891   3.934  19.070  0.00  0.00    +0.000 N 
ATOM      5  C   UNL     1       1.407   4.348  20.392  0.00  0.00    +0.000 C 
ATOM      6  C   UNL     1       2.133   5.599  20.902  0.00  0.00    +0.000 C 
ATOM      7  N   UNL     1       2.169   6.665  19.883  0.00  0.00    +0.000 N 
ATOM      8  C   UNL     1       1.544   7.869  20.178  0.00  0.00    +0.000 C 
ATOM      9  O   UNL     1       1.027   8.071  21.281  0.00  0.00    +0.000 OA
ATOM     10  C   UNL     1       2.714   6.245  18.560  0.00  0.00    +0.000 C 
ATOM     11  C   UNL     1       1.939   5.002  18.061  0.00  0.00    +0.000 C 
ENDROOT
BRANCH   8  12
ATOM     12  C   UNL     1       1.537   8.993  19.152  0.00  0.00    +0.000 C 
BRANCH  12  13
ATOM     13  C   UNL     1       0.660  10.182  19.486  0.00  0.00    +0.000 A 
ATOM     14  C   UNL     1       1.007  11.145  20.444  0.00  0.00    +0.000 A 
ATOM     15  C   UNL     1       0.136  12.197  20.752  0.00  0.00    +0.000 A 
ATOM     16  C   UNL     1      -1.099  12.310  20.106  0.00  0.00    +0.000 A 
ATOM     17  C   UNL     1      -1.458  11.343  19.162  0.00  0.00    +0.000 A 
ATOM     18  C   UNL     1      -0.589  10.293  18.855  0.00  0.00    +0.000 A 
BRANCH  16  19
ATOM     19  S   UNL     1      -2.252  13.631  20.555  0.00  0.00    +0.000 S 
ATOM     20  C   UNL     1      -3.798  12.702  20.406  0.00  0.00    +0.000 C 
ATOM     21  O   UNL     1      -2.030  13.935  22.081  0.00  0.00    +0.000 OA
ENDBRANCH  16  19
ENDBRANCH  12  13
ENDBRANCH   8  12
BRANCH  10  22
ATOM     22  C   UNL     1       4.251   5.990  18.623  0.00  0.00    +0.000 C 
BRANCH  22  23
ATOM     23  N   UNL     1       4.963   5.980  17.331  0.00  0.00    +0.000 NA
ATOM     24  C   UNL     1       6.162   6.831  17.297  0.00  0.00    +0.000 C 
ATOM     25  C   UNL     1       7.251   6.028  16.599  0.00  0.00    +0.000 C 
ATOM     26  C   UNL     1       6.893   4.595  16.934  0.00  0.00    +0.000 C 
ATOM     27  C   UNL     1       5.366   4.614  16.922  0.00  0.00    +0.000 C 
BRANCH  26  28
ATOM     28  O   UNL     1       7.395   4.245  18.224  0.00  0.00    +0.000 OA
ATOM     29  H   UNL     1       8.233   4.721  18.351  0.00  0.00    +0.000 HD
ENDBRANCH  26  28
ENDBRANCH  22  23
ENDBRANCH  10  22
TORSDOF 6
ENDMDL
MODEL 4
REMARK VINA RESULT:      -7.4      2.605      4.836
REMARK  Name = 
REMARK  8 active torsions:
REMARK  status: ('A' for Active; 'I' for Inactive)
REMARK    1  A    between atoms: C_1  and  C_2
REMARK    2  A    between atoms: C_8  and  C_10
REMARK    3  A    between atoms: C_10  and  C_11
REMARK    4  A    between atoms: C_14  and  S_15
REMARK    5  A    between atoms: S_15  and  C_16
REMARK    6  A    between atoms: C_20  and  C_21
REMARK    7  A    between atoms: C_21  and  N_22
REMARK    8  A    between atoms: C_25  and  O_26
REMARK                            x       y       z     vdW  Elec       q    Type
REMARK                         _______ _______ _______ _____ _____    ______ ____
ROOT
ATOM      1  C   UNL     1       7.686   4.395  17.772  0.00  0.00    +0.000 C 
ATOM      2  C   UNL     1       7.050   5.545  17.033  0.00  0.00    +0.000 C 
ATOM      3  O   UNL     1       7.557   5.970  15.996  0.00  0.00    +0.000 OA
ATOM      4  N   UNL     1       5.883   6.072  17.563  0.00  0.00    +0.000 N 
ATOM      5  C   UNL     1       5.265   7.227  16.903  0.00  0.00    +0.000 C 
ATOM      6  C   UNL     1       3.733   7.144  16.918  0.00  0.00    +0.000 C 
ATOM      7  N   UNL     1       3.215   6.838  18.264  0.00  0.00    +0.000 N 
ATOM      8  C   UNL     1       2.384   7.771  18.870  0.00  0.00    +0.000 C 
ATOM      9  O   UNL     1       2.035   8.798  18.281  0.00  0.00    +0.000 OA
ATOM     10  C   UNL     1       3.812   5.629  18.902  0.00  0.00    +0.000 C 
ATOM     11  C   UNL     1       5.355   5.760  18.899  0.00  0.00    +0.000 C 
ENDROOT
BRANCH   8  12
ATOM     12  C   UNL     1       1.839   7.509  20.266  0.00  0.00    +0.000 C 
BRANCH  12  13
ATOM     13  C   UNL     1       0.992   8.616  20.859  0.00  0.00    +0.000 A 
ATOM     14  C   UNL     1       0.238   9.505  20.081  0.00  0.00    +0.000 A 
ATOM     15  C   UNL     1      -0.486  10.544  20.677  0.00  0.00    +0.000 A 
ATOM     16  C   UNL     1      -0.475  10.713  22.064  0.00  0.00    +0.000 A 
ATOM     17  C   UNL     1       0.289   9.842  22.845  0.00  0.00    +0.000 A 
ATOM     18  C   UNL     1       1.013   8.805  22.250  0.00  0.00    +0.000 A 
BRANCH  16  19
ATOM     19  S   UNL     1      -1.356  12.099  22.826  0.00  0.00    +0.000 S 
ATOM     20  C   UNL     1      -0.379  13.455  22.132  0.00  0.00    +0.000 C 
ATOM     21  O   UNL     1      -2.780  12.157  22.164  0.00  0.00    +0.000 OA
ENDBRANCH  16  19
ENDBRANCH  12  13
ENDBRANCH   8  12
BRANCH  10  22
ATOM     22  C   UNL     1       3.336   4.315  18.211  0.00  0.00    +0.000 C 
BRANCH  22  23
ATOM     23  N   UNL     1       3.162   3.143  19.089  0.00  0.00    +0.000 NA
ATOM     24  C   UNL     1       3.342   3.430  20.520  0.00  0.00    +0.000 C 
ATOM     25  C   UNL     1       2.221   2.712  21.258  0.00  0.00    +0.000 C 
ATOM     26  C   UNL     1       1.096   2.694  20.243  0.00  0.00    +0.000 C 
ATOM     27  C   UNL     1       1.835   2.506  18.920  0.00  0.00    +0.000 C 
BRANCH  26  28
ATOM     28  O   UNL     1       0.385   3.931  20.267  0.00  0.00    +0.000 OA
ATOM     29  H   UNL     1       0.190   4.175  19.346  0.00  0.00    +0.000 HD
ENDBRANCH  26  28
ENDBRANCH  22  23
ENDBRANCH  10  22
TORSDOF 6
ENDMDL
MODEL 5
REMARK VINA RESULT:      -7.4      0.868      1.253
REMARK  Name = 
REMARK  8 active torsions:
REMARK  status: ('A' for Active; 'I' for Inactive)
REMARK    1  A    between atoms: C_1  and  C_2
REMARK    2  A    between atoms: C_8  and  C_10
REMARK    3  A    between atoms: C_10  and  C_11
REMARK    4  A    between atoms: C_14  and  S_15
REMARK    5  A    between atoms: S_15  and  C_16
REMARK    6  A    between atoms: C_20  and  C_21
REMARK    7  A    between atoms: C_21  and  N_22
REMARK    8  A    between atoms: C_25  and  O_26
REMARK                            x       y       z     vdW  Elec       q    Type
REMARK                         _______ _______ _______ _____ _____    ______ ____
ROOT
ATOM      1  C   UNL     1       2.578   2.358  17.536  0.00  0.00    +0.000 C 
ATOM      2  C   UNL     1       2.327   2.900  18.921  0.00  0.00    +0.000 C 
ATOM      3  O   UNL     1       2.301   2.139  19.887  0.00  0.00    +0.000 OA
ATOM      4  N   UNL     1       2.150   4.269  19.044  0.00  0.00    +0.000 N 
ATOM      5  C   UNL     1       1.850   4.826  20.368  0.00  0.00    +0.000 C 
ATOM      6  C   UNL     1       2.544   6.175  20.592  0.00  0.00    +0.000 C 
ATOM      7  N   UNL     1       2.333   7.095  19.459  0.00  0.00    +0.000 N 
ATOM      8  C   UNL     1       1.668   8.289  19.705  0.00  0.00    +0.000 C 
ATOM      9  O   UNL     1       1.318   8.606  20.846  0.00  0.00    +0.000 OA
ATOM     10  C   UNL     1       2.694   6.535  18.125  0.00  0.00    +0.000 C 
ATOM     11  C   UNL     1       1.952   5.193  17.918  0.00  0.00    +0.000 C 
ENDROOT
BRANCH   8  12
ATOM     12  C   UNL     1       1.409   9.263  18.566  0.00  0.00    +0.000 C 
BRANCH  12  13
ATOM     13  C   UNL     1       0.049   9.930  18.568  0.00  0.00    +0.000 A 
ATOM     14  C   UNL     1      -0.940   9.657  17.614  0.00  0.00    +0.000 A 
ATOM     15  C   UNL     1      -2.162  10.341  17.631  0.00  0.00    +0.000 A 
ATOM     16  C   UNL     1      -2.421  11.309  18.605  0.00  0.00    +0.000 A 
ATOM     17  C   UNL     1      -1.432  11.599  19.549  0.00  0.00    +0.000 A 
ATOM     18  C   UNL     1      -0.212  10.917  19.532  0.00  0.00    +0.000 A 
BRANCH  16  19
ATOM     19  S   UNL     1      -3.973  12.240  18.583  0.00  0.00    +0.000 S 
ATOM     20  C   UNL     1      -4.944  11.121  17.543  0.00  0.00    +0.000 C 
ATOM     21  O   UNL     1      -4.570  12.172  20.034  0.00  0.00    +0.000 OA
ENDBRANCH  16  19
ENDBRANCH  12  13
ENDBRANCH   8  12
BRANCH  10  22
ATOM     22  C   UNL     1       4.237   6.381  17.961  0.00  0.00    +0.000 C 
BRANCH  22  23
ATOM     23  N   UNL     1       4.693   5.290  17.080  0.00  0.00    +0.000 NA
ATOM     24  C   UNL     1       5.268   5.745  15.804  0.00  0.00    +0.000 C 
ATOM     25  C   UNL     1       6.523   4.917  15.568  0.00  0.00    +0.000 C 
ATOM     26  C   UNL     1       6.998   4.599  16.971  0.00  0.00    +0.000 C 
ATOM     27  C   UNL     1       5.690   4.415  17.739  0.00  0.00    +0.000 C 
BRANCH  26  28
ATOM     28  O   UNL     1       7.757   5.688  17.497  0.00  0.00    +0.000 OA
ATOM     29  H   UNL     1       8.605   5.710  17.023  0.00  0.00    +0.000 HD
ENDBRANCH  26  28
ENDBRANCH  22  23
ENDBRANCH  10  22
TORSDOF 6
ENDMDL
MODEL 6
REMARK VINA RESULT:      -7.3      1.851      2.066
REMARK  Name = 
REMARK  8 active torsions:
REMARK  status: ('A' for Active; 'I' for Inactive)
REMARK    1  A    between atoms: C_1  and  C_2
REMARK    2  A    between atoms: C_8  and  C_10
REMARK    3  A    between atoms: C_10  and  C_11
REMARK    4  A    between atoms: C_14  and  S_15
REMARK    5  A    between atoms: S_15  and  C_16
REMARK    6  A    between atoms: C_20  and  C_21
REMARK    7  A    between atoms: C_21  and  N_22
REMARK    8  A    between atoms: C_25  and  O_26
REMARK                            x       y       z     vdW  Elec       q    Type
REMARK                         _______ _______ _______ _____ _____    ______ ____
ROOT
ATOM      1  C   UNL     1       2.655   2.197  17.503  0.00  0.00    +0.000 C 
ATOM      2  C   UNL     1       2.404   2.760  18.879  0.00  0.00    +0.000 C 
ATOM      3  O   UNL     1       2.386   2.015  19.858  0.00  0.00    +0.000 OA
ATOM      4  N   UNL     1       2.217   4.130  18.981  0.00  0.00    +0.000 N 
ATOM      5  C   UNL     1       1.916   4.707  20.296  0.00  0.00    +0.000 C 
ATOM      6  C   UNL     1       2.601   6.065  20.496  0.00  0.00    +0.000 C 
ATOM      7  N   UNL     1       2.380   6.964  19.348  0.00  0.00    +0.000 N 
ATOM      8  C   UNL     1       1.707   8.157  19.576  0.00  0.00    +0.000 C 
ATOM      9  O   UNL     1       1.357   8.490  20.712  0.00  0.00    +0.000 OA
ATOM     10  C   UNL     1       2.742   6.384  18.023  0.00  0.00    +0.000 C 
ATOM     11  C   UNL     1       2.010   5.033  17.840  0.00  0.00    +0.000 C 
ENDROOT
BRANCH   8  12
ATOM     12  C   UNL     1       1.438   9.110  18.421  0.00  0.00    +0.000 C 
BRANCH  12  13
ATOM     13  C   UNL     1       0.776  10.421  18.792  0.00  0.00    +0.000 A 
ATOM     14  C   UNL     1       1.493  11.602  19.029  0.00  0.00    +0.000 A 
ATOM     15  C   UNL     1       0.836  12.774  19.420  0.00  0.00    +0.000 A 
ATOM     16  C   UNL     1      -0.553  12.792  19.577  0.00  0.00    +0.000 A 
ATOM     17  C   UNL     1      -1.273  11.614  19.359  0.00  0.00    +0.000 A 
ATOM     18  C   UNL     1      -0.616  10.443  18.969  0.00  0.00    +0.000 A 
BRANCH  16  19
ATOM     19  S   UNL     1      -1.392  14.290  20.149  0.00  0.00    +0.000 S 
ATOM     20  C   UNL     1      -2.820  13.513  20.945  0.00  0.00    +0.000 C 
ATOM     21  O   UNL     1      -0.500  14.912  21.284  0.00  0.00    +0.000 OA
ENDBRANCH  16  19
ENDBRANCH  12  13
ENDBRANCH   8  12
BRANCH  10  22
ATOM     22  C   UNL     1       4.286   6.240  17.856  0.00  0.00    +0.000 C 
BRANCH  22  23
ATOM     23  N   UNL     1       4.745   5.208  16.908  0.00  0.00    +0.000 NA
ATOM     24  C   UNL     1       5.282   5.743  15.647  0.00  0.00    +0.000 C 
ATOM     25  C   UNL     1       6.548   4.957  15.340  0.00  0.00    +0.000 C 
ATOM     26  C   UNL     1       7.061   4.576  16.713  0.00  0.00    +0.000 C 
ATOM     27  C   UNL     1       5.775   4.321  17.497  0.00  0.00    +0.000 C 
BRANCH  26  28
ATOM     28  O   UNL     1       7.809   5.651  17.282  0.00  0.00    +0.000 OA
ATOM     29  H   UNL     1       7.506   6.473  16.860  0.00  0.00    +0.000 HD
ENDBRANCH  26  28
ENDBRANCH  22  23
ENDBRANCH  10  22
TORSDOF 6
ENDMDL
MODEL 7
REMARK VINA RESULT:      -7.2      2.362      2.866
REMARK  Name = 
REMARK  8 active torsions:
REMARK  status: ('A' for Active; 'I' for Inactive)
REMARK    1  A    between atoms: C_1  and  C_2
REMARK    2  A    between atoms: C_8  and  C_10
REMARK    3  A    between atoms: C_10  and  C_11
REMARK    4  A    between atoms: C_14  and  S_15
REMARK    5  A    between atoms: S_15  and  C_16
REMARK    6  A    between atoms: C_20  and  C_21
REMARK    7  A    between atoms: C_21  and  N_22
REMARK    8  A    between atoms: C_25  and  O_26
REMARK                            x       y       z     vdW  Elec       q    Type
REMARK                         _______ _______ _______ _____ _____    ______ ____
ROOT
ATOM      1  C   UNL     1       2.247   2.079  18.031  0.00  0.00    +0.000 C 
ATOM      2  C   UNL     1       1.830   2.791  19.293  0.00  0.00    +0.000 C 
ATOM      3  O   UNL     1       1.567   2.147  20.308  0.00  0.00    +0.000 OA
ATOM      4  N   UNL     1       1.776   4.175  19.253  0.00  0.00    +0.000 N 
ATOM      5  C   UNL     1       1.322   4.900  20.445  0.00  0.00    +0.000 C 
ATOM      6  C   UNL     1       2.105   6.201  20.657  0.00  0.00    +0.000 C 
ATOM      7  N   UNL     1       2.178   7.004  19.422  0.00  0.00    +0.000 N 
ATOM      8  C   UNL     1       1.608   8.270  19.434  0.00  0.00    +0.000 C 
ATOM      9  O   UNL     1       1.110   8.741  20.461  0.00  0.00    +0.000 OA
ATOM     10  C   UNL     1       2.694   6.271  18.231  0.00  0.00    +0.000 C 
ATOM     11  C   UNL     1       1.862   4.981  18.026  0.00  0.00    +0.000 C 
ENDROOT
BRANCH   8  12
ATOM     12  C   UNL     1       1.641   9.130  18.180  0.00  0.00    +0.000 C 
BRANCH  12  13
ATOM     13  C   UNL     1       1.437  10.616  18.395  0.00  0.00    +0.000 A 
ATOM     14  C   UNL     1       2.437  11.569  18.158  0.00  0.00    +0.000 A 
ATOM     15  C   UNL     1       2.214  12.925  18.423  0.00  0.00    +0.000 A 
ATOM     16  C   UNL     1       0.984  13.357  18.928  0.00  0.00    +0.000 A 
ATOM     17  C   UNL     1      -0.012  12.410  19.183  0.00  0.00    +0.000 A 
ATOM     18  C   UNL     1       0.212  11.055  18.918  0.00  0.00    +0.000 A 
BRANCH  16  19
ATOM     19  S   UNL     1       0.721  15.101  19.335  0.00  0.00    +0.000 S 
ATOM     20  C   UNL     1       2.339  15.741  18.836  0.00  0.00    +0.000 C 
ATOM     21  O   UNL     1      -0.340  15.655  18.318  0.00  0.00    +0.000 OA
ENDBRANCH  16  19
ENDBRANCH  12  13
ENDBRANCH   8  12
BRANCH  10  22
ATOM     22  C   UNL     1       4.219   5.969  18.352  0.00  0.00    +0.000 C 
BRANCH  22  23
ATOM     23  N   UNL     1       4.963   5.855  17.085  0.00  0.00    +0.000 NA
ATOM     24  C   UNL     1       6.142   6.730  16.997  0.00  0.00    +0.000 C 
ATOM     25  C   UNL     1       7.268   5.893  16.404  0.00  0.00    +0.000 C 
ATOM     26  C   UNL     1       6.936   4.489  16.867  0.00  0.00    +0.000 C 
ATOM     27  C   UNL     1       5.409   4.468  16.818  0.00  0.00    +0.000 C 
BRANCH  26  28
ATOM     28  O   UNL     1       7.413   4.278  18.196  0.00  0.00    +0.000 OA
ATOM     29  H   UNL     1       8.365   4.472  18.199  0.00  0.00    +0.000 HD
ENDBRANCH  26  28
ENDBRANCH  22  23
ENDBRANCH  10  22
TORSDOF 6
ENDMDL
MODEL 8
REMARK VINA RESULT:      -7.2      1.755      2.101
REMARK  Name = 
REMARK  8 active torsions:
REMARK  status: ('A' for Active; 'I' for Inactive)
REMARK    1  A    between atoms: C_1  and  C_2
REMARK    2  A    between atoms: C_8  and  C_10
REMARK    3  A    between atoms: C_10  and  C_11
REMARK    4  A    between atoms: C_14  and  S_15
REMARK    5  A    between atoms: S_15  and  C_16
REMARK    6  A    between atoms: C_20  and  C_21
REMARK    7  A    between atoms: C_21  and  N_22
REMARK    8  A    between atoms: C_25  and  O_26
REMARK                            x       y       z     vdW  Elec       q    Type
REMARK                         _______ _______ _______ _____ _____    ______ ____
ROOT
ATOM      1  C   UNL     1       2.530   2.329  17.262  0.00  0.00    +0.000 C 
ATOM      2  C   UNL     1       2.199   2.701  18.686  0.00  0.00    +0.000 C 
ATOM      3  O   UNL     1       2.083   1.825  19.542  0.00  0.00    +0.000 OA
ATOM      4  N   UNL     1       2.054   4.049  18.972  0.00  0.00    +0.000 N 
ATOM      5  C   UNL     1       1.678   4.446  20.334  0.00  0.00    +0.000 C 
ATOM      6  C   UNL     1       2.395   5.728  20.775  0.00  0.00    +0.000 C 
ATOM      7  N   UNL     1       2.290   6.791  19.758  0.00  0.00    +0.000 N 
ATOM      8  C   UNL     1       1.645   7.969  20.112  0.00  0.00    +0.000 C 
ATOM      9  O   UNL     1       1.225   8.152  21.258  0.00  0.00    +0.000 OA
ATOM     10  C   UNL     1       2.727   6.390  18.390  0.00  0.00    +0.000 C 
ATOM     11  C   UNL     1       1.963   5.114  17.963  0.00  0.00    +0.000 C 
ENDROOT
BRANCH   8  12
ATOM     12  C   UNL     1       1.495   9.088  19.092  0.00  0.00    +0.000 C 
BRANCH  12  13
ATOM     13  C   UNL     1       0.531  10.194  19.468  0.00  0.00    +0.000 A 
ATOM     14  C   UNL     1      -0.801  10.232  19.032  0.00  0.00    +0.000 A 
ATOM     15  C   UNL     1      -1.635  11.305  19.365  0.00  0.00    +0.000 A 
ATOM     16  C   UNL     1      -1.156  12.361  20.146  0.00  0.00    +0.000 A 
ATOM     17  C   UNL     1       0.175  12.339  20.570  0.00  0.00    +0.000 A 
ATOM     18  C   UNL     1       1.008  11.268  20.236  0.00  0.00    +0.000 A 
BRANCH  16  19
ATOM     19  S   UNL     1      -2.217  13.780  20.518  0.00  0.00    +0.000 S 
ATOM     20  C   UNL     1      -3.121  13.081  21.922  0.00  0.00    +0.000 C 
ATOM     21  O   UNL     1      -1.286  14.916  21.075  0.00  0.00    +0.000 OA
ENDBRANCH  16  19
ENDBRANCH  12  13
ENDBRANCH   8  12
BRANCH  10  22
ATOM     22  C   UNL     1       4.273   6.200  18.309  0.00  0.00    +0.000 C 
BRANCH  22  23
ATOM     23  N   UNL     1       4.758   5.231  17.309  0.00  0.00    +0.000 NA
ATOM     24  C   UNL     1       5.253   5.842  16.066  0.00  0.00    +0.000 C 
ATOM     25  C   UNL     1       6.546   5.123  15.707  0.00  0.00    +0.000 C 
ATOM     26  C   UNL     1       7.095   4.703  17.054  0.00  0.00    +0.000 C 
ATOM     27  C   UNL     1       5.832   4.362  17.844  0.00  0.00    +0.000 C 
BRANCH  26  28
ATOM     28  O   UNL     1       7.807   5.783  17.659  0.00  0.00    +0.000 OA
ATOM     29  H   UNL     1       8.403   6.154  16.987  0.00  0.00    +0.000 HD
ENDBRANCH  26  28
ENDBRANCH  22  23
ENDBRANCH  10  22
TORSDOF 6
ENDMDL
MODEL 9
REMARK VINA RESULT:      -7.1      2.518      4.793
REMARK  Name = 
REMARK  8 active torsions:
REMARK  status: ('A' for Active; 'I' for Inactive)
REMARK    1  A    between atoms: C_1  and  C_2
REMARK    2  A    between atoms: C_8  and  C_10
REMARK    3  A    between atoms: C_10  and  C_11
REMARK    4  A    between atoms: C_14  and  S_15
REMARK    5  A    between atoms: S_15  and  C_16
REMARK    6  A    between atoms: C_20  and  C_21
REMARK    7  A    between atoms: C_21  and  N_22
REMARK    8  A    between atoms: C_25  and  O_26
REMARK                            x       y       z     vdW  Elec       q    Type
REMARK                         _______ _______ _______ _____ _____    ______ ____
ROOT
ATOM      1  C   UNL     1       7.814   4.556  17.957  0.00  0.00    +0.000 C 
ATOM      2  C   UNL     1       7.095   5.598  17.139  0.00  0.00    +0.000 C 
ATOM      3  O   UNL     1       7.545   5.948  16.049  0.00  0.00    +0.000 OA
ATOM      4  N   UNL     1       5.920   6.115  17.661  0.00  0.00    +0.000 N 
ATOM      5  C   UNL     1       5.221   7.171  16.920  0.00  0.00    +0.000 C 
ATOM      6  C   UNL     1       3.697   7.014  16.999  0.00  0.00    +0.000 C 
ATOM      7  N   UNL     1       3.239   6.811  18.386  0.00  0.00    +0.000 N 
ATOM      8  C   UNL     1       2.381   7.755  18.934  0.00  0.00    +0.000 C 
ATOM      9  O   UNL     1       1.960   8.704  18.266  0.00  0.00    +0.000 OA
ATOM     10  C   UNL     1       3.919   5.698  19.111  0.00  0.00    +0.000 C 
ATOM     11  C   UNL     1       5.452   5.905  19.039  0.00  0.00    +0.000 C 
ENDROOT
BRANCH   8  12
ATOM     12  C   UNL     1       1.896   7.599  20.367  0.00  0.00    +0.000 C 
BRANCH  12  13
ATOM     13  C   UNL     1       1.022   8.721  20.890  0.00  0.00    +0.000 A 
ATOM     14  C   UNL     1       0.458   9.702  20.064  0.00  0.00    +0.000 A 
ATOM     15  C   UNL     1      -0.300  10.747  20.605  0.00  0.00    +0.000 A 
ATOM     16  C   UNL     1      -0.513  10.830  21.984  0.00  0.00    +0.000 A 
ATOM     17  C   UNL     1       0.061   9.865  22.816  0.00  0.00    +0.000 A 
ATOM     18  C   UNL     1       0.818   8.821  22.275  0.00  0.00    +0.000 A 
BRANCH  16  19
ATOM     19  S   UNL     1      -1.435  12.221  22.688  0.00  0.00    +0.000 S 
ATOM     20  C   UNL     1      -0.345  13.564  22.154  0.00  0.00    +0.000 C 
ATOM     21  O   UNL     1      -2.772  12.345  21.872  0.00  0.00    +0.000 OA
ENDBRANCH  16  19
ENDBRANCH  12  13
ENDBRANCH   8  12
BRANCH  10  22
ATOM     22  C   UNL     1       3.491   4.303  18.562  0.00  0.00    +0.000 C 
BRANCH  22  23
ATOM     23  N   UNL     1       2.043   4.027  18.546  0.00  0.00    +0.000 NA
ATOM     24  C   UNL     1       1.694   2.660  18.129  0.00  0.00    +0.000 C 
ATOM     25  C   UNL     1       0.614   2.171  19.083  0.00  0.00    +0.000 C 
ATOM     26  C   UNL     1       0.922   2.915  20.366  0.00  0.00    +0.000 C 
ATOM     27  C   UNL     1       1.408   4.273  19.862  0.00  0.00    +0.000 C 
BRANCH  26  28
ATOM     28  O   UNL     1       1.944   2.240  21.099  0.00  0.00    +0.000 OA
ATOM     29  H   UNL     1       2.441   2.912  21.595  0.00  0.00    +0.000 HD
ENDBRANCH  26  28
ENDBRANCH  22  23
ENDBRANCH  10  22
TORSDOF 6
ENDMDL
