MODEL 1
REMARK VINA RESULT:      -7.0      0.000      0.000
REMARK  Name = 
REMARK  16 active torsions:
REMARK  status: ('A' for Active; 'I' for Inactive)
REMARK    1  A    between atoms: C_1  and  C_2
REMARK    2  A    between atoms: C_2  and  C_3
REMARK    3  A    between atoms: C_3  and  N_4
REMARK    4  A    between atoms: N_4  and  C_5
REMARK    5  A    between atoms: N_4  and  C_8
REMARK    6  A    between atoms: C_5  and  C_6
REMARK    7  A    between atoms: C_6  and  C_7
REMARK    8  A    between atoms: C_9  and  C_10
REMARK    9  A    between atoms: C_12  and  C_13
REMARK   10  A    between atoms: C_14  and  C_15
REMARK   11  A    between atoms: C_17  and  C_18
REMARK   12  A    between atoms: C_20  and  O_21
REMARK   13  A    between atoms: O_21  and  C_22
REMARK   14  A    between atoms: C_22  and  C_23
REMARK   15  A    between atoms: C_23  and  N_24
REMARK   16  A    between atoms: C_28  and  O_29
REMARK                            x       y       z     vdW  Elec       q    Type
REMARK                         _______ _______ _______ _____ _____    ______ ____
ROOT
ATOM      1  C   UNL     1       1.267   8.838  19.783  0.00  0.00    +0.000 A 
ATOM      2  C   UNL     1       0.810   8.184  20.991  0.00  0.00    +0.000 A 
ATOM      3  C   UNL     1       0.023   8.828  22.110  0.00  0.00    +0.000 C 
ATOM      4  C   UNL     1       1.059   6.807  21.253  0.00  0.00    +0.000 A 
ATOM      5  C   UNL     1       1.916   6.066  20.477  0.00  0.00    +0.000 A 
ATOM      6  C   UNL     1       2.169   4.606  20.703  0.00  0.00    +0.000 C 
ATOM      7  C   UNL     1       2.508   6.719  19.413  0.00  0.00    +0.000 A 
ATOM      8  C   UNL     1       2.133   8.032  18.971  0.00  0.00    +0.000 A 
ENDROOT
BRANCH   1  13
ATOM      9  C   UNL     1      -0.011  13.043  19.285  0.00  0.00    +0.000 A 
ATOM     10  C   UNL     1       1.025  12.562  20.121  0.00  0.00    +0.000 A 
ATOM     11  C   UNL     1       1.732  13.432  21.126  0.00  0.00    +0.000 C 
ATOM     12  N   UNL     1       1.451  11.248  20.185  0.00  0.00    +0.000 NA
ATOM     13  C   UNL     1       0.843  10.280  19.448  0.00  0.00    +0.000 A 
ATOM     14  C   UNL     1      -0.236  10.638  18.588  0.00  0.00    +0.000 A 
ATOM     15  C   UNL     1      -0.972   9.689  17.834  0.00  0.00    +0.000 A 
ATOM     16  C   UNL     1      -2.190   9.991  17.227  0.00  0.00    +0.000 A 
ATOM     17  C   UNL     1      -2.603  11.305  17.162  0.00  0.00    +0.000 A 
ATOM     18  C   UNL     1      -1.798  12.294  17.717  0.00  0.00    +0.000 A 
ATOM     19  C   UNL     1      -0.667  12.016  18.521  0.00  0.00    +0.000 A 
BRANCH   9  20
ATOM     20  N   UNL     1      -0.517  14.391  19.227  0.00  0.00    +0.000 N 
BRANCH  20  21
ATOM     21  C   UNL     1       0.261  15.496  18.608  0.00  0.00    +0.000 C 
BRANCH  21  23
ATOM     22  C   UNL     1       0.278  17.918  17.790  0.00  0.00    +0.000 C 
ATOM     23  C   UNL     1      -0.559  16.740  18.259  0.00  0.00    +0.000 C 
ENDBRANCH  21  23
ENDBRANCH  20  21
BRANCH  20  24
ATOM     24  C   UNL     1      -1.230  14.780  20.486  0.00  0.00    +0.000 C 
BRANCH  24  25
ATOM     25  C   UNL     1      -2.374  13.806  20.840  0.00  0.00    +0.000 C 
ATOM     26  C   UNL     1      -2.188  13.192  22.226  0.00  0.00    +0.000 C 
ENDBRANCH  24  25
ENDBRANCH  20  24
ENDBRANCH   9  20
ENDBRANCH   1  13
BRANCH   8  27
ATOM     27  O   UNL     1       2.575   8.446  17.694  0.00  0.00    +0.000 OA
BRANCH  27  28
ATOM     28  C   UNL     1       3.545   7.513  17.145  0.00  0.00    +0.000 C 
BRANCH  28  29
ATOM     29  C   UNL     1       4.901   7.310  17.827  0.00  0.00    +0.000 C 
BRANCH  29  30
ATOM     30  N   UNL     1       5.974   7.052  16.807  0.00  0.00    +0.000 NA
ATOM     31  C   UNL     1       7.358   7.071  17.324  0.00  0.00    +0.000 C 
ATOM     32  C   UNL     1       7.692   5.880  18.221  0.00  0.00    +0.000 C 
ATOM     33  C   UNL     1       7.474   4.573  17.467  0.00  0.00    +0.000 C 
ATOM     34  C   UNL     1       6.062   4.523  16.885  0.00  0.00    +0.000 C 
ATOM     35  C   UNL     1       5.763   5.794  16.064  0.00  0.00    +0.000 C 
BRANCH  34  36
ATOM     36  O   UNL     1       5.955   3.354  16.075  0.00  0.00    +0.000 OA
ATOM     37  H   UNL     1       5.355   2.742  16.534  0.00  0.00    +0.000 HD
ENDBRANCH  34  36
ENDBRANCH  29  30
ENDBRANCH  28  29
ENDBRANCH  27  28
ENDBRANCH   8  27
TORSDOF 11
ENDMDL
MODEL 2
REMARK VINA RESULT:      -7.0      1.160      1.440
REMARK  Name = 
REMARK  16 active torsions:
REMARK  status: ('A' for Active; 'I' for Inactive)
REMARK    1  A    between atoms: C_1  and  C_2
REMARK    2  A    between atoms: C_2  and  C_3
REMARK    3  A    between atoms: C_3  and  N_4
REMARK    4  A    between atoms: N_4  and  C_5
REMARK    5  A    between atoms: N_4  and  C_8
REMARK    6  A    between atoms: C_5  and  C_6
REMARK    7  A    between atoms: C_6  and  C_7
REMARK    8  A    between atoms: C_9  and  C_10
REMARK    9  A    between atoms: C_12  and  C_13
REMARK   10  A    between atoms: C_14  and  C_15
REMARK   11  A    between atoms: C_17  and  C_18
REMARK   12  A    between atoms: C_20  and  O_21
REMARK   13  A    between atoms: O_21  and  C_22
REMARK   14  A    between atoms: C_22  and  C_23
REMARK   15  A    between atoms: C_23  and  N_24
REMARK   16  A    between atoms: C_28  and  O_29
REMARK                            x       y       z     vdW  Elec       q    Type
REMARK                         _______ _______ _______ _____ _____    ______ ____
ROOT
ATOM      1  C   UNL     1       1.249   8.834  19.925  0.00  0.00    +0.000 A 
ATOM      2  C   UNL     1       0.653   8.159  21.058  0.00  0.00    +0.000 A 
ATOM      3  C   UNL     1      -0.279   8.778  22.076  0.00  0.00    +0.000 C 
ATOM      4  C   UNL     1       0.885   6.782  21.333  0.00  0.00    +0.000 A 
ATOM      5  C   UNL     1       1.843   6.062  20.664  0.00  0.00    +0.000 A 
ATOM      6  C   UNL     1       2.086   4.601  20.903  0.00  0.00    +0.000 C 
ATOM      7  C   UNL     1       2.556   6.735  19.691  0.00  0.00    +0.000 A 
ATOM      8  C   UNL     1       2.222   8.049  19.220  0.00  0.00    +0.000 A 
ENDROOT
BRANCH   1  13
ATOM      9  C   UNL     1       0.024  13.041  19.325  0.00  0.00    +0.000 A 
ATOM     10  C   UNL     1       1.016  12.563  20.214  0.00  0.00    +0.000 A 
ATOM     11  C   UNL     1       1.681  13.439  21.243  0.00  0.00    +0.000 C 
ATOM     12  N   UNL     1       1.430  11.247  20.311  0.00  0.00    +0.000 NA
ATOM     13  C   UNL     1       0.851  10.276  19.555  0.00  0.00    +0.000 A 
ATOM     14  C   UNL     1      -0.183  10.631  18.642  0.00  0.00    +0.000 A 
ATOM     15  C   UNL     1      -0.889   9.679  17.864  0.00  0.00    +0.000 A 
ATOM     16  C   UNL     1      -2.075   9.981  17.196  0.00  0.00    +0.000 A 
ATOM     17  C   UNL     1      -2.476  11.297  17.099  0.00  0.00    +0.000 A 
ATOM     18  C   UNL     1      -1.691  12.288  17.681  0.00  0.00    +0.000 A 
ATOM     19  C   UNL     1      -0.601  12.011  18.541  0.00  0.00    +0.000 A 
BRANCH   9  20
ATOM     20  N   UNL     1      -0.469  14.392  19.229  0.00  0.00    +0.000 N 
BRANCH  20  21
ATOM     21  C   UNL     1       0.430  15.538  18.935  0.00  0.00    +0.000 C 
BRANCH  21  23
ATOM     22  C   UNL     1      -0.525  17.872  18.516  0.00  0.00    +0.000 C 
ATOM     23  C   UNL     1      -0.118  16.538  17.914  0.00  0.00    +0.000 C 
ENDBRANCH  21  23
ENDBRANCH  20  21
BRANCH  20  24
ATOM     24  C   UNL     1      -1.511  14.686  20.265  0.00  0.00    +0.000 C 
BRANCH  24  25
ATOM     25  C   UNL     1      -1.010  15.670  21.343  0.00  0.00    +0.000 C 
ATOM     26  C   UNL     1      -2.049  15.885  22.442  0.00  0.00    +0.000 C 
ENDBRANCH  24  25
ENDBRANCH  20  24
ENDBRANCH   9  20
ENDBRANCH   1  13
BRANCH   8  27
ATOM     27  O   UNL     1       2.816   8.486  18.014  0.00  0.00    +0.000 OA
BRANCH  27  28
ATOM     28  C   UNL     1       3.289   7.361  17.223  0.00  0.00    +0.000 C 
BRANCH  28  29
ATOM     29  C   UNL     1       4.762   6.947  17.264  0.00  0.00    +0.000 C 
BRANCH  29  30
ATOM     30  N   UNL     1       4.901   5.526  17.728  0.00  0.00    +0.000 NA
ATOM     31  C   UNL     1       5.541   4.604  16.767  0.00  0.00    +0.000 C 
ATOM     32  C   UNL     1       7.035   4.862  16.574  0.00  0.00    +0.000 C 
ATOM     33  C   UNL     1       7.766   4.756  17.907  0.00  0.00    +0.000 C 
ATOM     34  C   UNL     1       7.118   5.671  18.945  0.00  0.00    +0.000 C 
ATOM     35  C   UNL     1       5.598   5.416  19.026  0.00  0.00    +0.000 C 
BRANCH  34  36
ATOM     36  O   UNL     1       7.743   5.431  20.204  0.00  0.00    +0.000 OA
ATOM     37  H   UNL     1       8.201   6.251  20.456  0.00  0.00    +0.000 HD
ENDBRANCH  34  36
ENDBRANCH  29  30
ENDBRANCH  28  29
ENDBRANCH  27  28
ENDBRANCH   8  27
TORSDOF 11
ENDMDL
MODEL 3
REMARK VINA RESULT:      -7.0      0.930      1.334
REMARK  Name = 
REMARK  16 active torsions:
REMARK  status: ('A' for Active; 'I' for Inactive)
REMARK    1  A    between atoms: C_1  and  C_2
REMARK    2  A    between atoms: C_2  and  C_3
REMARK    3  A    between atoms: C_3  and  N_4
REMARK    4  A    between atoms: N_4  and  C_5
REMARK    5  A    between atoms: N_4  and  C_8
REMARK    6  A    between atoms: C_5  and  C_6
REMARK    7  A    between atoms: C_6  and  C_7
REMARK    8  A    between atoms: C_9  and  C_10
REMARK    9  A    between atoms: C_12  and  C_13
REMARK   10  A    between atoms: C_14  and  C_15
REMARK   11  A    between atoms: C_17  and  C_18
REMARK   12  A    between atoms: C_20  and  O_21
REMARK   13  A    between atoms: O_21  and  C_22
REMARK   14  A    between atoms: C_22  and  C_23
REMARK   15  A    between atoms: C_23  and  N_24
REMARK   16  A    between atoms: C_28  and  O_29
REMARK                            x       y       z     vdW  Elec       q    Type
REMARK                         _______ _______ _______ _____ _____    ______ ____
ROOT
ATOM      1  C   UNL     1       1.275   8.792  19.873  0.00  0.00    +0.000 A 
ATOM      2  C   UNL     1       0.652   8.094  20.977  0.00  0.00    +0.000 A 
ATOM      3  C   UNL     1      -0.317   8.688  21.974  0.00  0.00    +0.000 C 
ATOM      4  C   UNL     1       0.893   6.716  21.240  0.00  0.00    +0.000 A 
ATOM      5  C   UNL     1       1.879   6.017  20.591  0.00  0.00    +0.000 A 
ATOM      6  C   UNL     1       2.132   4.556  20.818  0.00  0.00    +0.000 C 
ATOM      7  C   UNL     1       2.613   6.712  19.650  0.00  0.00    +0.000 A 
ATOM      8  C   UNL     1       2.278   8.029  19.187  0.00  0.00    +0.000 A 
ENDROOT
BRANCH   1  13
ATOM      9  C   UNL     1       0.036  12.999  19.296  0.00  0.00    +0.000 A 
ATOM     10  C   UNL     1       1.035  12.519  20.176  0.00  0.00    +0.000 A 
ATOM     11  C   UNL     1       1.705  13.393  21.203  0.00  0.00    +0.000 C 
ATOM     12  N   UNL     1       1.453  11.204  20.266  0.00  0.00    +0.000 NA
ATOM     13  C   UNL     1       0.871  10.234  19.511  0.00  0.00    +0.000 A 
ATOM     14  C   UNL     1      -0.170  10.590  18.605  0.00  0.00    +0.000 A 
ATOM     15  C   UNL     1      -0.879   9.639  17.828  0.00  0.00    +0.000 A 
ATOM     16  C   UNL     1      -2.070   9.941  17.169  0.00  0.00    +0.000 A 
ATOM     17  C   UNL     1      -2.474  11.257  17.079  0.00  0.00    +0.000 A 
ATOM     18  C   UNL     1      -1.688  12.247  17.660  0.00  0.00    +0.000 A 
ATOM     19  C   UNL     1      -0.592  11.970  18.512  0.00  0.00    +0.000 A 
BRANCH   9  20
ATOM     20  N   UNL     1      -0.461  14.349  19.207  0.00  0.00    +0.000 N 
BRANCH  20  21
ATOM     21  C   UNL     1       0.347  15.446  18.615  0.00  0.00    +0.000 C 
BRANCH  21  23
ATOM     22  C   UNL     1       0.188  17.967  19.008  0.00  0.00    +0.000 C 
ATOM     23  C   UNL     1      -0.425  16.741  18.353  0.00  0.00    +0.000 C 
ENDBRANCH  21  23
ENDBRANCH  20  21
BRANCH  20  24
ATOM     24  C   UNL     1      -1.225  14.748  20.433  0.00  0.00    +0.000 C 
BRANCH  24  25
ATOM     25  C   UNL     1      -2.379  13.775  20.752  0.00  0.00    +0.000 C 
ATOM     26  C   UNL     1      -3.704  14.509  20.945  0.00  0.00    +0.000 C 
ENDBRANCH  24  25
ENDBRANCH  20  24
ENDBRANCH   9  20
ENDBRANCH   1  13
BRANCH   8  27
ATOM     27  O   UNL     1       2.903   8.489  18.006  0.00  0.00    +0.000 OA
BRANCH  27  28
ATOM     28  C   UNL     1       3.308   7.379  17.159  0.00  0.00    +0.000 C 
BRANCH  28  29
ATOM     29  C   UNL     1       4.725   6.805  17.253  0.00  0.00    +0.000 C 
BRANCH  29  30
ATOM     30  N   UNL     1       4.683   5.310  17.391  0.00  0.00    +0.000 NA
ATOM     31  C   UNL     1       4.390   4.567  16.149  0.00  0.00    +0.000 C 
ATOM     32  C   UNL     1       5.527   4.607  15.128  0.00  0.00    +0.000 C 
ATOM     33  C   UNL     1       6.805   4.045  15.739  0.00  0.00    +0.000 C 
ATOM     34  C   UNL     1       7.132   4.764  17.047  0.00  0.00    +0.000 C 
ATOM     35  C   UNL     1       5.914   4.759  17.993  0.00  0.00    +0.000 C 
BRANCH  34  36
ATOM     36  O   UNL     1       8.248   4.112  17.648  0.00  0.00    +0.000 OA
ATOM     37  H   UNL     1       7.899   3.540  18.353  0.00  0.00    +0.000 HD
ENDBRANCH  34  36
ENDBRANCH  29  30
ENDBRANCH  28  29
ENDBRANCH  27  28
ENDBRANCH   8  27
TORSDOF 11
ENDMDL
MODEL 4
REMARK VINA RESULT:      -6.7      1.118      1.256
REMARK  Name = 
REMARK  16 active torsions:
REMARK  status: ('A' for Active; 'I' for Inactive)
REMARK    1  A    between atoms: C_1  and  C_2
REMARK    2  A    between atoms: C_2  and  C_3
REMARK    3  A    between atoms: C_3  and  N_4
REMARK    4  A    between atoms: N_4  and  C_5
REMARK    5  A    between atoms: N_4  and  C_8
REMARK    6  A    between atoms: C_5  and  C_6
REMARK    7  A    between atoms: C_6  and  C_7
REMARK    8  A    between atoms: C_9  and  C_10
REMARK    9  A    between atoms: C_12  and  C_13
REMARK   10  A    between atoms: C_14  and  C_15
REMARK   11  A    between atoms: C_17  and  C_18
REMARK   12  A    between atoms: C_20  and  O_21
REMARK   13  A    between atoms: O_21  and  C_22
REMARK   14  A    between atoms: C_22  and  C_23
REMARK   15  A    between atoms: C_23  and  N_24
REMARK   16  A    between atoms: C_28  and  O_29
REMARK                            x       y       z     vdW  Elec       q    Type
REMARK                         _______ _______ _______ _____ _____    ______ ____
ROOT
ATOM      1  C   UNL     1       1.116   9.064  19.965  0.00  0.00    +0.000 A 
ATOM      2  C   UNL     1       0.684   8.372  21.160  0.00  0.00    +0.000 A 
ATOM      3  C   UNL     1      -0.128   8.966  22.289  0.00  0.00    +0.000 C 
ATOM      4  C   UNL     1       0.984   7.001  21.398  0.00  0.00    +0.000 A 
ATOM      5  C   UNL     1       1.869   6.307  20.610  0.00  0.00    +0.000 A 
ATOM      6  C   UNL     1       2.177   4.853  20.811  0.00  0.00    +0.000 C 
ATOM      7  C   UNL     1       2.437   7.000  19.558  0.00  0.00    +0.000 A 
ATOM      8  C   UNL     1       2.013   8.306  19.139  0.00  0.00    +0.000 A 
ENDROOT
BRANCH   1  13
ATOM      9  C   UNL     1      -0.242  13.252  19.540  0.00  0.00    +0.000 A 
ATOM     10  C   UNL     1       0.916  12.798  20.215  0.00  0.00    +0.000 A 
ATOM     11  C   UNL     1       1.771  13.699  21.065  0.00  0.00    +0.000 C 
ATOM     12  N   UNL     1       1.352  11.486  20.253  0.00  0.00    +0.000 NA
ATOM     13  C   UNL     1       0.638  10.495  19.654  0.00  0.00    +0.000 A 
ATOM     14  C   UNL     1      -0.565  10.826  18.966  0.00  0.00    +0.000 A 
ATOM     15  C   UNL     1      -1.408   9.853  18.371  0.00  0.00    +0.000 A 
ATOM     16  C   UNL     1      -2.709  10.136  17.956  0.00  0.00    +0.000 A 
ATOM     17  C   UNL     1      -3.133  11.448  17.916  0.00  0.00    +0.000 A 
ATOM     18  C   UNL     1      -2.253  12.454  18.302  0.00  0.00    +0.000 A 
ATOM     19  C   UNL     1      -1.007  12.202  18.924  0.00  0.00    +0.000 A 
BRANCH   9  20
ATOM     20  N   UNL     1      -0.756  14.599  19.519  0.00  0.00    +0.000 N 
BRANCH  20  21
ATOM     21  C   UNL     1      -0.105  15.676  18.730  0.00  0.00    +0.000 C 
BRANCH  21  23
ATOM     22  C   UNL     1       2.052  17.023  18.983  0.00  0.00    +0.000 C 
ATOM     23  C   UNL     1       0.687  16.689  19.559  0.00  0.00    +0.000 C 
ENDBRANCH  21  23
ENDBRANCH  20  21
BRANCH  20  24
ATOM     24  C   UNL     1      -1.238  15.038  20.868  0.00  0.00    +0.000 C 
BRANCH  24  25
ATOM     25  C   UNL     1      -2.742  15.381  20.874  0.00  0.00    +0.000 C 
ATOM     26  C   UNL     1      -3.172  16.023  22.192  0.00  0.00    +0.000 C 
ENDBRANCH  24  25
ENDBRANCH  20  24
ENDBRANCH   9  20
ENDBRANCH   1  13
BRANCH   8  27
ATOM     27  O   UNL     1       2.439   8.759  17.870  0.00  0.00    +0.000 OA
BRANCH  27  28
ATOM     28  C   UNL     1       2.957   7.663  17.067  0.00  0.00    +0.000 C 
BRANCH  28  29
ATOM     29  C   UNL     1       4.381   7.145  17.284  0.00  0.00    +0.000 C 
BRANCH  29  30
ATOM     30  N   UNL     1       4.581   5.833  16.582  0.00  0.00    +0.000 NA
ATOM     31  C   UNL     1       5.822   5.722  15.787  0.00  0.00    +0.000 C 
ATOM     32  C   UNL     1       7.090   5.649  16.638  0.00  0.00    +0.000 C 
ATOM     33  C   UNL     1       7.017   4.463  17.592  0.00  0.00    +0.000 C 
ATOM     34  C   UNL     1       5.731   4.518  18.415  0.00  0.00    +0.000 C 
ATOM     35  C   UNL     1       4.501   4.678  17.499  0.00  0.00    +0.000 C 
BRANCH  34  36
ATOM     36  O   UNL     1       5.642   3.321  19.185  0.00  0.00    +0.000 OA
ATOM     37  H   UNL     1       4.703   3.189  19.399  0.00  0.00    +0.000 HD
ENDBRANCH  34  36
ENDBRANCH  29  30
ENDBRANCH  28  29
ENDBRANCH  27  28
ENDBRANCH   8  27
TORSDOF 11
ENDMDL
MODEL 5
REMARK VINA RESULT:      -6.6      1.136      1.521
REMARK  Name = 
REMARK  16 active torsions:
REMARK  status: ('A' for Active; 'I' for Inactive)
REMARK    1  A    between atoms: C_1  and  C_2
REMARK    2  A    between atoms: C_2  and  C_3
REMARK    3  A    between atoms: C_3  and  N_4
REMARK    4  A    between atoms: N_4  and  C_5
REMARK    5  A    between atoms: N_4  and  C_8
REMARK    6  A    between atoms: C_5  and  C_6
REMARK    7  A    between atoms: C_6  and  C_7
REMARK    8  A    between atoms: C_9  and  C_10
REMARK    9  A    between atoms: C_12  and  C_13
REMARK   10  A    between atoms: C_14  and  C_15
REMARK   11  A    between atoms: C_17  and  C_18
REMARK   12  A    between atoms: C_20  and  O_21
REMARK   13  A    between atoms: O_21  and  C_22
REMARK   14  A    between atoms: C_22  and  C_23
REMARK   15  A    between atoms: C_23  and  N_24
REMARK   16  A    between atoms: C_28  and  O_29
REMARK                            x       y       z     vdW  Elec       q    Type
REMARK                         _______ _______ _______ _____ _____    ______ ____
ROOT
ATOM      1  C   UNL     1       1.361   8.679  19.843  0.00  0.00    +0.000 A 
ATOM      2  C   UNL     1       0.774   8.032  20.996  0.00  0.00    +0.000 A 
ATOM      3  C   UNL     1      -0.079   8.698  22.053  0.00  0.00    +0.000 C 
ATOM      4  C   UNL     1       0.939   6.643  21.258  0.00  0.00    +0.000 A 
ATOM      5  C   UNL     1       1.827   5.873  20.548  0.00  0.00    +0.000 A 
ATOM      6  C   UNL     1       1.996   4.400  20.773  0.00  0.00    +0.000 C 
ATOM      7  C   UNL     1       2.537   6.511  19.549  0.00  0.00    +0.000 A 
ATOM      8  C   UNL     1       2.259   7.844  19.096  0.00  0.00    +0.000 A 
ENDROOT
BRANCH   1  13
ATOM      9  C   UNL     1       0.347  12.950  19.305  0.00  0.00    +0.000 A 
ATOM     10  C   UNL     1       1.337  12.412  20.162  0.00  0.00    +0.000 A 
ATOM     11  C   UNL     1       2.077  13.243  21.176  0.00  0.00    +0.000 C 
ATOM     12  N   UNL     1       1.683  11.075  20.238  0.00  0.00    +0.000 NA
ATOM     13  C   UNL     1       1.030  10.142  19.494  0.00  0.00    +0.000 A 
ATOM     14  C   UNL     1      -0.009  10.560  18.613  0.00  0.00    +0.000 A 
ATOM     15  C   UNL     1      -0.787   9.653  17.850  0.00  0.00    +0.000 A 
ATOM     16  C   UNL     1      -1.974  10.024  17.218  0.00  0.00    +0.000 A 
ATOM     17  C   UNL     1      -2.306  11.360  17.141  0.00  0.00    +0.000 A 
ATOM     18  C   UNL     1      -1.452  12.302  17.707  0.00  0.00    +0.000 A 
ATOM     19  C   UNL     1      -0.355  11.961  18.533  0.00  0.00    +0.000 A 
BRANCH   9  20
ATOM     20  N   UNL     1      -0.076  14.326  19.232  0.00  0.00    +0.000 N 
BRANCH  20  21
ATOM     21  C   UNL     1       0.792  15.385  18.653  0.00  0.00    +0.000 C 
BRANCH  21  23
ATOM     22  C   UNL     1       3.337  15.582  18.521  0.00  0.00    +0.000 C 
ATOM     23  C   UNL     1       2.089  14.876  18.021  0.00  0.00    +0.000 C 
ENDBRANCH  21  23
ENDBRANCH  20  21
BRANCH  20  24
ATOM     24  C   UNL     1      -0.819  14.753  20.461  0.00  0.00    +0.000 C 
BRANCH  24  25
ATOM     25  C   UNL     1      -2.002  13.818  20.788  0.00  0.00    +0.000 C 
ATOM     26  C   UNL     1      -1.887  13.228  22.193  0.00  0.00    +0.000 C 
ENDBRANCH  24  25
ENDBRANCH  20  24
ENDBRANCH   9  20
ENDBRANCH   1  13
BRANCH   8  27
ATOM     27  O   UNL     1       2.827   8.253  17.868  0.00  0.00    +0.000 OA
BRANCH  27  28
ATOM     28  C   UNL     1       4.172   7.724  17.709  0.00  0.00    +0.000 C 
BRANCH  28  29
ATOM     29  C   UNL     1       4.509   6.796  16.538  0.00  0.00    +0.000 C 
BRANCH  29  30
ATOM     30  N   UNL     1       4.655   5.378  17.011  0.00  0.00    +0.000 NA
ATOM     31  C   UNL     1       5.144   4.419  15.998  0.00  0.00    +0.000 C 
ATOM     32  C   UNL     1       6.612   4.621  15.623  0.00  0.00    +0.000 C 
ATOM     33  C   UNL     1       7.494   4.510  16.862  0.00  0.00    +0.000 C 
ATOM     34  C   UNL     1       7.005   5.463  17.951  0.00  0.00    +0.000 C 
ATOM     35  C   UNL     1       5.498   5.264  18.218  0.00  0.00    +0.000 C 
BRANCH  34  36
ATOM     36  O   UNL     1       7.768   5.221  19.132  0.00  0.00    +0.000 OA
ATOM     37  H   UNL     1       8.436   5.924  19.188  0.00  0.00    +0.000 HD
ENDBRANCH  34  36
ENDBRANCH  29  30
ENDBRANCH  28  29
ENDBRANCH  27  28
ENDBRANCH   8  27
TORSDOF 11
ENDMDL
MODEL 6
REMARK VINA RESULT:      -6.6      0.859      1.077
REMARK  Name = 
REMARK  16 active torsions:
REMARK  status: ('A' for Active; 'I' for Inactive)
REMARK    1  A    between atoms: C_1  and  C_2
REMARK    2  A    between atoms: C_2  and  C_3
REMARK    3  A    between atoms: C_3  and  N_4
REMARK    4  A    between atoms: N_4  and  C_5
REMARK    5  A    between atoms: N_4  and  C_8
REMARK    6  A    between atoms: C_5  and  C_6
REMARK    7  A    between atoms: C_6  and  C_7
REMARK    8  A    between atoms: C_9  and  C_10
REMARK    9  A    between atoms: C_12  and  C_13
REMARK   10  A    between atoms: C_14  and  C_15
REMARK   11  A    between atoms: C_17  and  C_18
REMARK   12  A    between atoms: C_20  and  O_21
REMARK   13  A    between atoms: O_21  and  C_22
REMARK   14  A    between atoms: C_22  and  C_23
REMARK   15  A    between atoms: C_23  and  N_24
REMARK   16  A    between atoms: C_28  and  O_29
REMARK                            x       y       z     vdW  Elec       q    Type
REMARK                         _______ _______ _______ _____ _____    ______ ____
ROOT
ATOM      1  C   UNL     1       1.282   8.796  19.796  0.00  0.00    +0.000 A 
ATOM      2  C   UNL     1       0.817   8.148  21.003  0.00  0.00    +0.000 A 
ATOM      3  C   UNL     1       0.024   8.799  22.115  0.00  0.00    +0.000 C 
ATOM      4  C   UNL     1       1.061   6.772  21.272  0.00  0.00    +0.000 A 
ATOM      5  C   UNL     1       1.921   6.026  20.505  0.00  0.00    +0.000 A 
ATOM      6  C   UNL     1       2.170   4.566  20.740  0.00  0.00    +0.000 C 
ATOM      7  C   UNL     1       2.521   6.672  19.442  0.00  0.00    +0.000 A 
ATOM      8  C   UNL     1       2.152   7.984  18.992  0.00  0.00    +0.000 A 
ENDROOT
BRANCH   1  13
ATOM      9  C   UNL     1       0.035  13.007  19.273  0.00  0.00    +0.000 A 
ATOM     10  C   UNL     1       1.093  12.527  20.082  0.00  0.00    +0.000 A 
ATOM     11  C   UNL     1       1.843  13.405  21.049  0.00  0.00    +0.000 C 
ATOM     12  N   UNL     1       1.507  11.209  20.152  0.00  0.00    +0.000 NA
ATOM     13  C   UNL     1       0.863  10.238  19.451  0.00  0.00    +0.000 A 
ATOM     14  C   UNL     1      -0.239  10.595  18.622  0.00  0.00    +0.000 A 
ATOM     15  C   UNL     1      -1.010   9.642  17.908  0.00  0.00    +0.000 A 
ATOM     16  C   UNL     1      -2.245   9.948  17.336  0.00  0.00    +0.000 A 
ATOM     17  C   UNL     1      -2.645  11.266  17.265  0.00  0.00    +0.000 A 
ATOM     18  C   UNL     1      -1.811  12.255  17.776  0.00  0.00    +0.000 A 
ATOM     19  C   UNL     1      -0.657  11.976  18.547  0.00  0.00    +0.000 A 
BRANCH   9  20
ATOM     20  N   UNL     1      -0.457  14.360  19.210  0.00  0.00    +0.000 N 
BRANCH  20  21
ATOM     21  C   UNL     1       0.267  15.426  18.470  0.00  0.00    +0.000 C 
BRANCH  21  23
ATOM     22  C   UNL     1       0.334  17.896  17.815  0.00  0.00    +0.000 C 
ATOM     23  C   UNL     1      -0.512  16.732  18.299  0.00  0.00    +0.000 C 
ENDBRANCH  21  23
ENDBRANCH  20  21
BRANCH  20  24
ATOM     24  C   UNL     1      -1.035  14.810  20.517  0.00  0.00    +0.000 C 
BRANCH  24  25
ATOM     25  C   UNL     1      -2.000  13.771  21.124  0.00  0.00    +0.000 C 
ATOM     26  C   UNL     1      -3.453  14.062  20.752  0.00  0.00    +0.000 C 
ENDBRANCH  24  25
ENDBRANCH  20  24
ENDBRANCH   9  20
ENDBRANCH   1  13
BRANCH   8  27
ATOM     27  O   UNL     1       2.602   8.392  17.716  0.00  0.00    +0.000 OA
BRANCH  27  28
ATOM     28  C   UNL     1       4.002   8.053  17.519  0.00  0.00    +0.000 C 
BRANCH  28  29
ATOM     29  C   UNL     1       4.412   7.028  16.457  0.00  0.00    +0.000 C 
BRANCH  29  30
ATOM     30  N   UNL     1       5.644   6.284  16.887  0.00  0.00    +0.000 NA
ATOM     31  C   UNL     1       5.460   5.356  18.021  0.00  0.00    +0.000 C 
ATOM     32  C   UNL     1       4.632   4.119  17.673  0.00  0.00    +0.000 C 
ATOM     33  C   UNL     1       5.280   3.357  16.523  0.00  0.00    +0.000 C 
ATOM     34  C   UNL     1       5.519   4.287  15.335  0.00  0.00    +0.000 C 
ATOM     35  C   UNL     1       6.283   5.552  15.775  0.00  0.00    +0.000 C 
BRANCH  34  36
ATOM     36  O   UNL     1       6.251   3.567  14.345  0.00  0.00    +0.000 OA
ATOM     37  H   UNL     1       7.186   3.587  14.610  0.00  0.00    +0.000 HD
ENDBRANCH  34  36
ENDBRANCH  29  30
ENDBRANCH  28  29
ENDBRANCH  27  28
ENDBRANCH   8  27
TORSDOF 11
ENDMDL
MODEL 7
REMARK VINA RESULT:      -6.6      5.286      7.767
REMARK  Name = 
REMARK  16 active torsions:
REMARK  status: ('A' for Active; 'I' for Inactive)
REMARK    1  A    between atoms: C_1  and  C_2
REMARK    2  A    between atoms: C_2  and  C_3
REMARK    3  A    between atoms: C_3  and  N_4
REMARK    4  A    between atoms: N_4  and  C_5
REMARK    5  A    between atoms: N_4  and  C_8
REMARK    6  A    between atoms: C_5  and  C_6
REMARK    7  A    between atoms: C_6  and  C_7
REMARK    8  A    between atoms: C_9  and  C_10
REMARK    9  A    between atoms: C_12  and  C_13
REMARK   10  A    between atoms: C_14  and  C_15
REMARK   11  A    between atoms: C_17  and  C_18
REMARK   12  A    between atoms: C_20  and  O_21
REMARK   13  A    between atoms: O_21  and  C_22
REMARK   14  A    between atoms: C_22  and  C_23
REMARK   15  A    between atoms: C_23  and  N_24
REMARK   16  A    between atoms: C_28  and  O_29
REMARK                            x       y       z     vdW  Elec       q    Type
REMARK                         _______ _______ _______ _____ _____    ______ ____
ROOT
ATOM      1  C   UNL     1      -4.295  11.900  18.381  0.00  0.00    +0.000 A 
ATOM      2  C   UNL     1      -5.065  11.951  17.157  0.00  0.00    +0.000 A 
ATOM      3  C   UNL     1      -6.432  12.575  16.989  0.00  0.00    +0.000 C 
ATOM      4  C   UNL     1      -4.587  11.403  15.933  0.00  0.00    +0.000 A 
ATOM      5  C   UNL     1      -3.462  10.619  15.882  0.00  0.00    +0.000 A 
ATOM      6  C   UNL     1      -2.912  10.059  14.604  0.00  0.00    +0.000 C 
ATOM      7  C   UNL     1      -2.801  10.406  17.076  0.00  0.00    +0.000 A 
ATOM      8  C   UNL     1      -3.105  11.103  18.294  0.00  0.00    +0.000 A 
ENDROOT
BRANCH   1  13
ATOM      9  C   UNL     1      -5.198  13.949  22.196  0.00  0.00    +0.000 A 
ATOM     10  C   UNL     1      -4.103  14.199  21.335  0.00  0.00    +0.000 A 
ATOM     11  C   UNL     1      -2.960  15.104  21.711  0.00  0.00    +0.000 C 
ATOM     12  N   UNL     1      -3.902  13.595  20.106  0.00  0.00    +0.000 NA
ATOM     13  C   UNL     1      -4.760  12.644  19.648  0.00  0.00    +0.000 A 
ATOM     14  C   UNL     1      -5.887  12.285  20.442  0.00  0.00    +0.000 A 
ATOM     15  C   UNL     1      -6.795  11.260  20.076  0.00  0.00    +0.000 A 
ATOM     16  C   UNL     1      -7.717  10.716  20.970  0.00  0.00    +0.000 A 
ATOM     17  C   UNL     1      -7.916  11.329  22.189  0.00  0.00    +0.000 A 
ATOM     18  C   UNL     1      -7.181  12.469  22.499  0.00  0.00    +0.000 A 
ATOM     19  C   UNL     1      -6.094  12.930  21.719  0.00  0.00    +0.000 A 
BRANCH   9  20
ATOM     20  N   UNL     1      -5.417  14.519  23.502  0.00  0.00    +0.000 N 
BRANCH  20  21
ATOM     21  C   UNL     1      -5.935  15.901  23.679  0.00  0.00    +0.000 C 
BRANCH  21  23
ATOM     22  C   UNL     1      -4.335  17.875  23.958  0.00  0.00    +0.000 C 
ATOM     23  C   UNL     1      -5.123  16.771  24.641  0.00  0.00    +0.000 C 
ENDBRANCH  21  23
ENDBRANCH  20  21
BRANCH  20  24
ATOM     24  C   UNL     1      -4.334  14.146  24.467  0.00  0.00    +0.000 C 
BRANCH  24  25
ATOM     25  C   UNL     1      -4.224  12.620  24.669  0.00  0.00    +0.000 C 
ATOM     26  C   UNL     1      -3.054  12.027  23.887  0.00  0.00    +0.000 C 
ENDBRANCH  24  25
ENDBRANCH  20  24
ENDBRANCH   9  20
ENDBRANCH   1  13
BRANCH   8  27
ATOM     27  O   UNL     1      -2.159  11.038  19.342  0.00  0.00    +0.000 OA
BRANCH  27  28
ATOM     28  C   UNL     1      -0.864  11.542  18.913  0.00  0.00    +0.000 C 
BRANCH  28  29
ATOM     29  C   UNL     1      -0.566  13.044  18.938  0.00  0.00    +0.000 C 
BRANCH  29  30
ATOM     30  N   UNL     1       0.589  13.340  19.851  0.00  0.00    +0.000 NA
ATOM     31  C   UNL     1       1.841  12.619  19.543  0.00  0.00    +0.000 C 
ATOM     32  C   UNL     1       2.520  13.091  18.258  0.00  0.00    +0.000 C 
ATOM     33  C   UNL     1       2.827  14.582  18.340  0.00  0.00    +0.000 C 
ATOM     34  C   UNL     1       1.564  15.368  18.689  0.00  0.00    +0.000 C 
ATOM     35  C   UNL     1       0.885  14.784  19.945  0.00  0.00    +0.000 C 
BRANCH  34  36
ATOM     36  O   UNL     1       1.929  16.731  18.894  0.00  0.00    +0.000 OA
ATOM     37  H   UNL     1       2.445  16.768  19.717  0.00  0.00    +0.000 HD
ENDBRANCH  34  36
ENDBRANCH  29  30
ENDBRANCH  28  29
ENDBRANCH  27  28
ENDBRANCH   8  27
TORSDOF 11
ENDMDL
MODEL 8
REMARK VINA RESULT:      -6.6      3.113      5.636
REMARK  Name = 
REMARK  16 active torsions:
REMARK  status: ('A' for Active; 'I' for Inactive)
REMARK    1  A    between atoms: C_1  and  C_2
REMARK    2  A    between atoms: C_2  and  C_3
REMARK    3  A    between atoms: C_3  and  N_4
REMARK    4  A    between atoms: N_4  and  C_5
REMARK    5  A    between atoms: N_4  and  C_8
REMARK    6  A    between atoms: C_5  and  C_6
REMARK    7  A    between atoms: C_6  and  C_7
REMARK    8  A    between atoms: C_9  and  C_10
REMARK    9  A    between atoms: C_12  and  C_13
REMARK   10  A    between atoms: C_14  and  C_15
REMARK   11  A    between atoms: C_17  and  C_18
REMARK   12  A    between atoms: C_20  and  O_21
REMARK   13  A    between atoms: O_21  and  C_22
REMARK   14  A    between atoms: C_22  and  C_23
REMARK   15  A    between atoms: C_23  and  N_24
REMARK   16  A    between atoms: C_28  and  O_29
REMARK                            x       y       z     vdW  Elec       q    Type
REMARK                         _______ _______ _______ _____ _____    ______ ____
ROOT
ATOM      1  C   UNL     1       0.348   9.768  20.040  0.00  0.00    +0.000 A 
ATOM      2  C   UNL     1       0.390   8.712  21.029  0.00  0.00    +0.000 A 
ATOM      3  C   UNL     1      -0.365   8.687  22.339  0.00  0.00    +0.000 C 
ATOM      4  C   UNL     1       1.172   7.536  20.854  0.00  0.00    +0.000 A 
ATOM      5  C   UNL     1       2.087   7.419  19.838  0.00  0.00    +0.000 A 
ATOM      6  C   UNL     1       2.898   6.179  19.604  0.00  0.00    +0.000 C 
ATOM      7  C   UNL     1       2.196   8.494  18.977  0.00  0.00    +0.000 A 
ATOM      8  C   UNL     1       1.290   9.607  18.969  0.00  0.00    +0.000 A 
ENDROOT
BRANCH   1  13
ATOM      9  C   UNL     1      -2.526  13.023  20.878  0.00  0.00    +0.000 A 
ATOM     10  C   UNL     1      -1.354  12.714  21.610  0.00  0.00    +0.000 A 
ATOM     11  C   UNL     1      -1.019  13.365  22.925  0.00  0.00    +0.000 C 
ATOM     12  N   UNL     1      -0.434  11.741  21.264  0.00  0.00    +0.000 NA
ATOM     13  C   UNL     1      -0.631  10.950  20.176  0.00  0.00    +0.000 A 
ATOM     14  C   UNL     1      -1.793  11.147  19.375  0.00  0.00    +0.000 A 
ATOM     15  C   UNL     1      -2.114  10.328  18.263  0.00  0.00    +0.000 A 
ATOM     16  C   UNL     1      -3.372  10.332  17.662  0.00  0.00    +0.000 A 
ATOM     17  C   UNL     1      -4.280  11.311  18.008  0.00  0.00    +0.000 A 
ATOM     18  C   UNL     1      -3.919  12.263  18.956  0.00  0.00    +0.000 A 
ATOM     19  C   UNL     1      -2.743  12.174  19.738  0.00  0.00    +0.000 A 
BRANCH   9  20
ATOM     20  N   UNL     1      -3.532  13.994  21.231  0.00  0.00    +0.000 N 
BRANCH  20  21
ATOM     21  C   UNL     1      -3.192  15.413  21.508  0.00  0.00    +0.000 C 
BRANCH  21  23
ATOM     22  C   UNL     1      -5.095  16.552  20.236  0.00  0.00    +0.000 C 
ATOM     23  C   UNL     1      -3.593  16.396  20.406  0.00  0.00    +0.000 C 
ENDBRANCH  21  23
ENDBRANCH  20  21
BRANCH  20  24
ATOM     24  C   UNL     1      -4.565  13.424  22.154  0.00  0.00    +0.000 C 
BRANCH  24  25
ATOM     25  C   UNL     1      -4.884  14.364  23.335  0.00  0.00    +0.000 C 
ATOM     26  C   UNL     1      -6.375  14.368  23.670  0.00  0.00    +0.000 C 
ENDBRANCH  24  25
ENDBRANCH  20  24
ENDBRANCH   9  20
ENDBRANCH   1  13
BRANCH   8  27
ATOM     27  O   UNL     1       1.311  10.463  17.845  0.00  0.00    +0.000 OA
BRANCH  27  28
ATOM     28  C   UNL     1       2.272  11.540  18.021  0.00  0.00    +0.000 C 
BRANCH  28  29
ATOM     29  C   UNL     1       1.805  12.940  18.430  0.00  0.00    +0.000 C 
BRANCH  29  30
ATOM     30  N   UNL     1       2.962  13.761  18.922  0.00  0.00    +0.000 NA
ATOM     31  C   UNL     1       3.041  15.133  18.379  0.00  0.00    +0.000 C 
ATOM     32  C   UNL     1       1.945  16.062  18.900  0.00  0.00    +0.000 C 
ATOM     33  C   UNL     1       1.997  16.139  20.422  0.00  0.00    +0.000 C 
ATOM     34  C   UNL     1       1.950  14.737  21.028  0.00  0.00    +0.000 C 
ATOM     35  C   UNL     1       3.026  13.831  20.395  0.00  0.00    +0.000 C 
BRANCH  34  36
ATOM     36  O   UNL     1       2.144  14.853  22.436  0.00  0.00    +0.000 OA
ATOM     37  H   UNL     1       1.274  14.740  22.854  0.00  0.00    +0.000 HD
ENDBRANCH  34  36
ENDBRANCH  29  30
ENDBRANCH  28  29
ENDBRANCH  27  28
ENDBRANCH   8  27
TORSDOF 11
ENDMDL
MODEL 9
REMARK VINA RESULT:      -6.5      3.085      5.654
REMARK  Name = 
REMARK  16 active torsions:
REMARK  status: ('A' for Active; 'I' for Inactive)
REMARK    1  A    between atoms: C_1  and  C_2
REMARK    2  A    between atoms: C_2  and  C_3
REMARK    3  A    between atoms: C_3  and  N_4
REMARK    4  A    between atoms: N_4  and  C_5
REMARK    5  A    between atoms: N_4  and  C_8
REMARK    6  A    between atoms: C_5  and  C_6
REMARK    7  A    between atoms: C_6  and  C_7
REMARK    8  A    between atoms: C_9  and  C_10
REMARK    9  A    between atoms: C_12  and  C_13
REMARK   10  A    between atoms: C_14  and  C_15
REMARK   11  A    between atoms: C_17  and  C_18
REMARK   12  A    between atoms: C_20  and  O_21
REMARK   13  A    between atoms: O_21  and  C_22
REMARK   14  A    between atoms: C_22  and  C_23
REMARK   15  A    between atoms: C_23  and  N_24
REMARK   16  A    between atoms: C_28  and  O_29
REMARK                            x       y       z     vdW  Elec       q    Type
REMARK                         _______ _______ _______ _____ _____    ______ ____
ROOT
ATOM      1  C   UNL     1       0.295   9.704  20.055  0.00  0.00    +0.000 A 
ATOM      2  C   UNL     1       0.316   8.652  21.048  0.00  0.00    +0.000 A 
ATOM      3  C   UNL     1      -0.481   8.622  22.333  0.00  0.00    +0.000 C 
ATOM      4  C   UNL     1       1.116   7.483  20.903  0.00  0.00    +0.000 A 
ATOM      5  C   UNL     1       2.066   7.374  19.918  0.00  0.00    +0.000 A 
ATOM      6  C   UNL     1       2.898   6.142  19.716  0.00  0.00    +0.000 C 
ATOM      7  C   UNL     1       2.191   8.447  19.057  0.00  0.00    +0.000 A 
ATOM      8  C   UNL     1       1.273   9.550  19.016  0.00  0.00    +0.000 A 
ENDROOT
BRANCH   1  13
ATOM      9  C   UNL     1      -2.639  12.931  20.788  0.00  0.00    +0.000 A 
ATOM     10  C   UNL     1      -1.485  12.641  21.554  0.00  0.00    +0.000 A 
ATOM     11  C   UNL     1      -1.194  13.305  22.873  0.00  0.00    +0.000 C 
ATOM     12  N   UNL     1      -0.544  11.676  21.242  0.00  0.00    +0.000 NA
ATOM     13  C   UNL     1      -0.701  10.875  20.154  0.00  0.00    +0.000 A 
ATOM     14  C   UNL     1      -1.843  11.052  19.320  0.00  0.00    +0.000 A 
ATOM     15  C   UNL     1      -2.122  10.221  18.205  0.00  0.00    +0.000 A 
ATOM     16  C   UNL     1      -3.364  10.206  17.570  0.00  0.00    +0.000 A 
ATOM     17  C   UNL     1      -4.292  11.177  17.882  0.00  0.00    +0.000 A 
ATOM     18  C   UNL     1      -3.969  12.139  18.834  0.00  0.00    +0.000 A 
ATOM     19  C   UNL     1      -2.814  12.071  19.649  0.00  0.00    +0.000 A 
BRANCH   9  20
ATOM     20  N   UNL     1      -3.666  13.892  21.104  0.00  0.00    +0.000 N 
BRANCH  20  21
ATOM     21  C   UNL     1      -3.416  15.355  21.049  0.00  0.00    +0.000 C 
BRANCH  21  23
ATOM     22  C   UNL     1      -2.665  16.777  23.036  0.00  0.00    +0.000 C 
ATOM     23  C   UNL     1      -3.826  16.124  22.307  0.00  0.00    +0.000 C 
ENDBRANCH  21  23
ENDBRANCH  20  21
BRANCH  20  24
ATOM     24  C   UNL     1      -4.500  13.460  22.272  0.00  0.00    +0.000 C 
BRANCH  24  25
ATOM     25  C   UNL     1      -5.809  12.767  21.837  0.00  0.00    +0.000 C 
ATOM     26  C   UNL     1      -6.907  13.780  21.516  0.00  0.00    +0.000 C 
ENDBRANCH  24  25
ENDBRANCH  20  24
ENDBRANCH   9  20
ENDBRANCH   1  13
BRANCH   8  27
ATOM     27  O   UNL     1       1.321  10.403  17.890  0.00  0.00    +0.000 OA
BRANCH  27  28
ATOM     28  C   UNL     1       2.528  11.214  17.896  0.00  0.00    +0.000 C 
BRANCH  28  29
ATOM     29  C   UNL     1       2.438  12.740  17.984  0.00  0.00    +0.000 C 
BRANCH  29  30
ATOM     30  N   UNL     1       1.688  13.157  19.217  0.00  0.00    +0.000 NA
ATOM     31  C   UNL     1       2.527  13.504  20.382  0.00  0.00    +0.000 C 
ATOM     32  C   UNL     1       3.302  14.811  20.211  0.00  0.00    +0.000 C 
ATOM     33  C   UNL     1       2.341  15.964  19.944  0.00  0.00    +0.000 C 
ATOM     34  C   UNL     1       1.429  15.635  18.763  0.00  0.00    +0.000 C 
ATOM     35  C   UNL     1       0.746  14.266  18.964  0.00  0.00    +0.000 C 
BRANCH  34  36
ATOM     36  O   UNL     1       0.460  16.675  18.644  0.00  0.00    +0.000 OA
ATOM     37  H   UNL     1      -0.144  16.421  17.926  0.00  0.00    +0.000 HD
ENDBRANCH  34  36
ENDBRANCH  29  30
ENDBRANCH  28  29
ENDBRANCH  27  28
ENDBRANCH   8  27
TORSDOF 11
ENDMDL
