MODEL 1
REMARK VINA RESULT:      -7.6      0.000      0.000
REMARK  Name = 
REMARK  12 active torsions:
REMARK  status: ('A' for Active; 'I' for Inactive)
REMARK    1  A    between atoms: C_1  and  C_2
REMARK    2  A    between atoms: C_2  and  C_3
REMARK    3  A    between atoms: C_2  and  C_4
REMARK    4  A    between atoms: C_2  and  N_14
REMARK    5  A    between atoms: C_4  and  C_5
REMARK    6  A    between atoms: N_14  and  C_15
REMARK    7  A    between atoms: C_15  and  C_16
REMARK    8  A    between atoms: C_16  and  O_17
REMARK    9  A    between atoms: C_16  and  C_18
REMARK   10  A    between atoms: N_22  and  C_23
REMARK   11  A    between atoms: C_23  and  C_24
REMARK   12  A    between atoms: C_28  and  C_29
REMARK                            x       y       z     vdW  Elec       q    Type
REMARK                         _______ _______ _______ _____ _____    ______ ____
ROOT
ATOM      1  C   UNL     1       4.842   4.244  19.528  0.00  0.00    +0.000 C 
ENDROOT
BRANCH   1   2
ATOM      2  C   UNL     1       3.693   4.800  18.628  0.00  0.00    +0.000 C 
ATOM      3  C   UNL     1       2.596   3.795  18.294  0.00  0.00    +0.000 C 
ATOM      4  C   UNL     1       1.605   3.932  19.429  0.00  0.00    +0.000 C 
ATOM      5  C   UNL     1       1.837   5.332  19.989  0.00  0.00    +0.000 C 
ATOM      6  N   UNL     1       2.961   5.934  19.247  0.00  0.00    +0.000 NA
BRANCH   6   7
ATOM      7  C   UNL     1       2.467   6.900  18.244  0.00  0.00    +0.000 C 
BRANCH   7   8
ATOM      8  C   UNL     1       1.884   8.164  18.854  0.00  0.00    +0.000 A 
ATOM      9  C   UNL     1       1.629   9.291  18.055  0.00  0.00    +0.000 A 
ATOM     10  C   UNL     1       1.141  10.469  18.623  0.00  0.00    +0.000 A 
ATOM     11  C   UNL     1       0.885  10.532  19.993  0.00  0.00    +0.000 A 
ATOM     12  C   UNL     1       1.121   9.413  20.803  0.00  0.00    +0.000 A 
ATOM     13  C   UNL     1       1.617   8.234  20.232  0.00  0.00    +0.000 A 
BRANCH  12  14
ATOM     14  C   UNL     1       0.840   9.474  22.206  0.00  0.00    +0.000 C 
ATOM     15  N   UNL     1       0.621   9.513  23.346  0.00  0.00    +0.000 NA
ENDBRANCH  12  14
ENDBRANCH   7   8
ENDBRANCH   6   7
ENDBRANCH   1   2
BRANCH   1  16
ATOM     16  O   UNL     1       5.226   2.903  19.187  0.00  0.00    +0.000 OA
ATOM     17  H   UNL     1       4.990   2.743  18.260  0.00  0.00    +0.000 HD
ENDBRANCH   1  16
BRANCH   1  18
ATOM     18  C   UNL     1       6.111   5.139  19.493  0.00  0.00    +0.000 C 
BRANCH  18  19
ATOM     19  N   UNL     1       5.889   6.433  18.844  0.00  0.00    +0.000 NA
ATOM     20  H   UNL     1       4.893   6.591  18.698  0.00  0.00    +0.000 HD
BRANCH  19  22
ATOM     21  C   UNL     1       7.532   7.826  17.797  0.00  0.00    +0.000 C 
ATOM     22  C   UNL     1       6.569   6.645  17.542  0.00  0.00    +0.000 C 
ATOM     23  C   UNL     1       5.540   7.081  16.480  0.00  0.00    +0.000 C 
BRANCH  22  24
ATOM     24  C   UNL     1       7.353   5.369  17.142  0.00  0.00    +0.000 C 
BRANCH  24  25
ATOM     25  C   UNL     1       7.072   4.868  15.759  0.00  0.00    +0.000 A 
ATOM     26  N   UNL     1       7.718   5.260  14.683  0.00  0.00    +0.000 NA
ATOM     27  C   UNL     1       7.179   4.655  13.562  0.00  0.00    +0.000 A 
ATOM     28  C   UNL     1       7.617   4.837  12.236  0.00  0.00    +0.000 A 
ATOM     29  C   UNL     1       6.963   4.173  11.193  0.00  0.00    +0.000 A 
ATOM     30  C   UNL     1       5.883   3.336  11.456  0.00  0.00    +0.000 A 
ATOM     31  C   UNL     1       5.435   3.135  12.764  0.00  0.00    +0.000 A 
ATOM     32  C   UNL     1       6.102   3.803  13.804  0.00  0.00    +0.000 A 
ATOM     33  S   UNL     1       5.791   3.756  15.493  0.00  0.00    +0.000 S 
ENDBRANCH  24  25
ENDBRANCH  22  24
ENDBRANCH  19  22
ENDBRANCH  18  19
ENDBRANCH   1  18
TORSDOF 10
ENDMDL
MODEL 2
REMARK VINA RESULT:      -7.5      3.437      9.496
REMARK  Name = 
REMARK  12 active torsions:
REMARK  status: ('A' for Active; 'I' for Inactive)
REMARK    1  A    between atoms: C_1  and  C_2
REMARK    2  A    between atoms: C_2  and  C_3
REMARK    3  A    between atoms: C_2  and  C_4
REMARK    4  A    between atoms: C_2  and  N_14
REMARK    5  A    between atoms: C_4  and  C_5
REMARK    6  A    between atoms: N_14  and  C_15
REMARK    7  A    between atoms: C_15  and  C_16
REMARK    8  A    between atoms: C_16  and  O_17
REMARK    9  A    between atoms: C_16  and  C_18
REMARK   10  A    between atoms: N_22  and  C_23
REMARK   11  A    between atoms: C_23  and  C_24
REMARK   12  A    between atoms: C_28  and  C_29
REMARK                            x       y       z     vdW  Elec       q    Type
REMARK                         _______ _______ _______ _____ _____    ______ ____
ROOT
ATOM      1  C   UNL     1       1.492   6.547  20.308  0.00  0.00    +0.000 C 
ENDROOT
BRANCH   1   2
ATOM      2  C   UNL     1       2.430   5.302  20.200  0.00  0.00    +0.000 C 
ATOM      3  C   UNL     1       2.183   4.221  21.247  0.00  0.00    +0.000 C 
ATOM      4  C   UNL     1       1.134   3.329  20.621  0.00  0.00    +0.000 C 
ATOM      5  C   UNL     1       1.267   3.554  19.119  0.00  0.00    +0.000 C 
ATOM      6  N   UNL     1       2.303   4.584  18.907  0.00  0.00    +0.000 NA
BRANCH   6   7
ATOM      7  C   UNL     1       3.574   3.966  18.478  0.00  0.00    +0.000 C 
BRANCH   7   8
ATOM      8  C   UNL     1       4.281   4.735  17.375  0.00  0.00    +0.000 A 
ATOM      9  C   UNL     1       4.427   6.131  17.457  0.00  0.00    +0.000 A 
ATOM     10  C   UNL     1       5.032   6.845  16.421  0.00  0.00    +0.000 A 
ATOM     11  C   UNL     1       5.513   6.172  15.296  0.00  0.00    +0.000 A 
ATOM     12  C   UNL     1       5.388   4.780  15.204  0.00  0.00    +0.000 A 
ATOM     13  C   UNL     1       4.775   4.066  16.242  0.00  0.00    +0.000 A 
BRANCH  12  14
ATOM     14  C   UNL     1       5.900   4.091  14.057  0.00  0.00    +0.000 C 
ATOM     15  N   UNL     1       6.324   3.528  13.135  0.00  0.00    +0.000 NA
ENDBRANCH  12  14
ENDBRANCH   7   8
ENDBRANCH   6   7
ENDBRANCH   1   2
BRANCH   1  16
ATOM     16  O   UNL     1       1.233   6.942  21.664  0.00  0.00    +0.000 OA
ATOM     17  H   UNL     1       2.076   6.960  22.144  0.00  0.00    +0.000 HD
ENDBRANCH   1  16
BRANCH   1  18
ATOM     18  C   UNL     1       2.046   7.777  19.540  0.00  0.00    +0.000 C 
BRANCH  18  19
ATOM     19  N   UNL     1       1.276   9.002  19.774  0.00  0.00    +0.000 NA
ATOM     20  H   UNL     1       0.324   8.774  20.055  0.00  0.00    +0.000 HD
BRANCH  19  22
ATOM     21  C   UNL     1      -0.187   9.667  18.000  0.00  0.00    +0.000 C 
ATOM     22  C   UNL     1       1.189   9.955  18.640  0.00  0.00    +0.000 C 
ATOM     23  C   UNL     1       2.283   9.631  17.601  0.00  0.00    +0.000 C 
BRANCH  22  24
ATOM     24  C   UNL     1       1.261  11.410  19.166  0.00  0.00    +0.000 C 
BRANCH  24  25
ATOM     25  C   UNL     1       0.126  11.811  20.058  0.00  0.00    +0.000 A 
ATOM     26  N   UNL     1      -0.080  11.319  21.260  0.00  0.00    +0.000 NA
ATOM     27  C   UNL     1      -1.240  11.851  21.794  0.00  0.00    +0.000 A 
ATOM     28  C   UNL     1      -1.775  11.555  23.064  0.00  0.00    +0.000 A 
ATOM     29  C   UNL     1      -2.972  12.154  23.469  0.00  0.00    +0.000 A 
ATOM     30  C   UNL     1      -3.639  13.039  22.627  0.00  0.00    +0.000 A 
ATOM     31  C   UNL     1      -3.125  13.352  21.366  0.00  0.00    +0.000 A 
ATOM     32  C   UNL     1      -1.920  12.749  20.971  0.00  0.00    +0.000 A 
ATOM     33  S   UNL     1      -1.047  12.935  19.503  0.00  0.00    +0.000 S 
ENDBRANCH  24  25
ENDBRANCH  22  24
ENDBRANCH  19  22
ENDBRANCH  18  19
ENDBRANCH   1  18
TORSDOF 10
ENDMDL
MODEL 3
REMARK VINA RESULT:      -7.3      3.590      9.078
REMARK  Name = 
REMARK  12 active torsions:
REMARK  status: ('A' for Active; 'I' for Inactive)
REMARK    1  A    between atoms: C_1  and  C_2
REMARK    2  A    between atoms: C_2  and  C_3
REMARK    3  A    between atoms: C_2  and  C_4
REMARK    4  A    between atoms: C_2  and  N_14
REMARK    5  A    between atoms: C_4  and  C_5
REMARK    6  A    between atoms: N_14  and  C_15
REMARK    7  A    between atoms: C_15  and  C_16
REMARK    8  A    between atoms: C_16  and  O_17
REMARK    9  A    between atoms: C_16  and  C_18
REMARK   10  A    between atoms: N_22  and  C_23
REMARK   11  A    between atoms: C_23  and  C_24
REMARK   12  A    between atoms: C_28  and  C_29
REMARK                            x       y       z     vdW  Elec       q    Type
REMARK                         _______ _______ _______ _____ _____    ______ ____
ROOT
ATOM      1  C   UNL     1       2.600   7.219  19.231  0.00  0.00    +0.000 C 
ENDROOT
BRANCH   1   2
ATOM      2  C   UNL     1       3.058   5.783  19.641  0.00  0.00    +0.000 C 
ATOM      3  C   UNL     1       2.319   5.192  20.837  0.00  0.00    +0.000 C 
ATOM      4  C   UNL     1       1.118   4.501  20.230  0.00  0.00    +0.000 C 
ATOM      5  C   UNL     1       1.516   4.211  18.786  0.00  0.00    +0.000 C 
ATOM      6  N   UNL     1       2.861   4.777  18.567  0.00  0.00    +0.000 NA
BRANCH   6   7
ATOM      7  C   UNL     1       3.887   3.714  18.596  0.00  0.00    +0.000 C 
BRANCH   7   8
ATOM      8  C   UNL     1       5.110   4.028  17.751  0.00  0.00    +0.000 A 
ATOM      9  C   UNL     1       6.265   4.571  18.340  0.00  0.00    +0.000 A 
ATOM     10  C   UNL     1       7.372   4.906  17.558  0.00  0.00    +0.000 A 
ATOM     11  C   UNL     1       7.345   4.689  16.179  0.00  0.00    +0.000 A 
ATOM     12  C   UNL     1       6.207   4.135  15.577  0.00  0.00    +0.000 A 
ATOM     13  C   UNL     1       5.096   3.806  16.363  0.00  0.00    +0.000 A 
BRANCH  12  14
ATOM     14  C   UNL     1       6.190   3.896  14.165  0.00  0.00    +0.000 C 
ATOM     15  N   UNL     1       6.169   3.691  13.023  0.00  0.00    +0.000 NA
ENDBRANCH  12  14
ENDBRANCH   7   8
ENDBRANCH   6   7
ENDBRANCH   1   2
BRANCH   1  16
ATOM     16  O   UNL     1       1.944   7.259  17.955  0.00  0.00    +0.000 OA
ATOM     17  H   UNL     1       1.401   6.460  17.864  0.00  0.00    +0.000 HD
ENDBRANCH   1  16
BRANCH   1  18
ATOM     18  C   UNL     1       1.658   7.865  20.284  0.00  0.00    +0.000 C 
BRANCH  18  19
ATOM     19  N   UNL     1       1.352   9.270  20.002  0.00  0.00    +0.000 NA
ATOM     20  H   UNL     1       2.127   9.867  20.287  0.00  0.00    +0.000 HD
BRANCH  19  22
ATOM     21  C   UNL     1      -0.380   8.681  21.546  0.00  0.00    +0.000 C 
ATOM     22  C   UNL     1       0.119   9.815  20.623  0.00  0.00    +0.000 C 
ATOM     23  C   UNL     1      -0.949  10.060  19.538  0.00  0.00    +0.000 C 
BRANCH  22  24
ATOM     24  C   UNL     1       0.457  11.086  21.443  0.00  0.00    +0.000 C 
BRANCH  24  25
ATOM     25  C   UNL     1       0.874  12.268  20.623  0.00  0.00    +0.000 A 
ATOM     26  N   UNL     1       1.952  12.304  19.869  0.00  0.00    +0.000 NA
ATOM     27  C   UNL     1       2.082  13.554  19.292  0.00  0.00    +0.000 A 
ATOM     28  C   UNL     1       3.115  13.959  18.424  0.00  0.00    +0.000 A 
ATOM     29  C   UNL     1       3.132  15.266  17.928  0.00  0.00    +0.000 A 
ATOM     30  C   UNL     1       2.137  16.170  18.287  0.00  0.00    +0.000 A 
ATOM     31  C   UNL     1       1.099  15.791  19.141  0.00  0.00    +0.000 A 
ATOM     32  C   UNL     1       1.089  14.474  19.629  0.00  0.00    +0.000 A 
ATOM     33  S   UNL     1      -0.042  13.719  20.680  0.00  0.00    +0.000 S 
ENDBRANCH  24  25
ENDBRANCH  22  24
ENDBRANCH  19  22
ENDBRANCH  18  19
ENDBRANCH   1  18
TORSDOF 10
ENDMDL
MODEL 4
REMARK VINA RESULT:      -7.3      3.605      8.655
REMARK  Name = 
REMARK  12 active torsions:
REMARK  status: ('A' for Active; 'I' for Inactive)
REMARK    1  A    between atoms: C_1  and  C_2
REMARK    2  A    between atoms: C_2  and  C_3
REMARK    3  A    between atoms: C_2  and  C_4
REMARK    4  A    between atoms: C_2  and  N_14
REMARK    5  A    between atoms: C_4  and  C_5
REMARK    6  A    between atoms: N_14  and  C_15
REMARK    7  A    between atoms: C_15  and  C_16
REMARK    8  A    between atoms: C_16  and  O_17
REMARK    9  A    between atoms: C_16  and  C_18
REMARK   10  A    between atoms: N_22  and  C_23
REMARK   11  A    between atoms: C_23  and  C_24
REMARK   12  A    between atoms: C_28  and  C_29
REMARK                            x       y       z     vdW  Elec       q    Type
REMARK                         _______ _______ _______ _____ _____    ______ ____
ROOT
ATOM      1  C   UNL     1       2.747   7.144  19.278  0.00  0.00    +0.000 C 
ENDROOT
BRANCH   1   2
ATOM      2  C   UNL     1       3.177   5.644  19.341  0.00  0.00    +0.000 C 
ATOM      3  C   UNL     1       2.592   4.859  20.511  0.00  0.00    +0.000 C 
ATOM      4  C   UNL     1       1.275   4.331  19.985  0.00  0.00    +0.000 C 
ATOM      5  C   UNL     1       1.436   4.307  18.468  0.00  0.00    +0.000 C 
ATOM      6  N   UNL     1       2.764   4.865  18.147  0.00  0.00    +0.000 NA
BRANCH   6   7
ATOM      7  C   UNL     1       3.719   3.787  17.819  0.00  0.00    +0.000 C 
BRANCH   7   8
ATOM      8  C   UNL     1       4.923   4.263  17.025  0.00  0.00    +0.000 A 
ATOM      9  C   UNL     1       5.412   3.506  15.946  0.00  0.00    +0.000 A 
ATOM     10  C   UNL     1       6.548   3.917  15.246  0.00  0.00    +0.000 A 
ATOM     11  C   UNL     1       7.202   5.097  15.605  0.00  0.00    +0.000 A 
ATOM     12  C   UNL     1       6.720   5.871  16.669  0.00  0.00    +0.000 A 
ATOM     13  C   UNL     1       5.584   5.453  17.374  0.00  0.00    +0.000 A 
BRANCH  12  14
ATOM     14  C   UNL     1       7.382   7.090  17.023  0.00  0.00    +0.000 C 
ATOM     15  N   UNL     1       7.928   8.076  17.300  0.00  0.00    +0.000 NA
ENDBRANCH  12  14
ENDBRANCH   7   8
ENDBRANCH   6   7
ENDBRANCH   1   2
BRANCH   1  16
ATOM     16  O   UNL     1       2.136   7.503  18.029  0.00  0.00    +0.000 OA
ATOM     17  H   UNL     1       1.286   7.932  18.216  0.00  0.00    +0.000 HD
ENDBRANCH   1  16
BRANCH   1  18
ATOM     18  C   UNL     1       1.776   7.534  20.425  0.00  0.00    +0.000 C 
BRANCH  18  19
ATOM     19  N   UNL     1       1.135   8.836  20.225  0.00  0.00    +0.000 NA
ATOM     20  H   UNL     1       1.817   9.522  19.909  0.00  0.00    +0.000 HD
BRANCH  19  22
ATOM     21  C   UNL     1       1.513   9.475  22.502  0.00  0.00    +0.000 C 
ATOM     22  C   UNL     1       0.433   9.414  21.398  0.00  0.00    +0.000 C 
ATOM     23  C   UNL     1      -0.681   8.455  21.865  0.00  0.00    +0.000 C 
BRANCH  22  24
ATOM     24  C   UNL     1      -0.088  10.832  21.057  0.00  0.00    +0.000 C 
BRANCH  24  25
ATOM     25  C   UNL     1      -1.096  10.880  19.949  0.00  0.00    +0.000 A 
ATOM     26  N   UNL     1      -1.009  10.183  18.838  0.00  0.00    +0.000 NA
ATOM     27  C   UNL     1      -2.064  10.497  18.000  0.00  0.00    +0.000 A 
ATOM     28  C   UNL     1      -2.298   9.946  16.725  0.00  0.00    +0.000 A 
ATOM     29  C   UNL     1      -3.398  10.373  15.976  0.00  0.00    +0.000 A 
ATOM     30  C   UNL     1      -4.264  11.339  16.481  0.00  0.00    +0.000 A 
ATOM     31  C   UNL     1      -4.057  11.896  17.745  0.00  0.00    +0.000 A 
ATOM     32  C   UNL     1      -2.951  11.456  18.491  0.00  0.00    +0.000 A 
ATOM     33  S   UNL     1      -2.441  11.943  20.058  0.00  0.00    +0.000 S 
ENDBRANCH  24  25
ENDBRANCH  22  24
ENDBRANCH  19  22
ENDBRANCH  18  19
ENDBRANCH   1  18
TORSDOF 10
ENDMDL
MODEL 5
REMARK VINA RESULT:      -7.1      3.385      8.256
REMARK  Name = 
REMARK  12 active torsions:
REMARK  status: ('A' for Active; 'I' for Inactive)
REMARK    1  A    between atoms: C_1  and  C_2
REMARK    2  A    between atoms: C_2  and  C_3
REMARK    3  A    between atoms: C_2  and  C_4
REMARK    4  A    between atoms: C_2  and  N_14
REMARK    5  A    between atoms: C_4  and  C_5
REMARK    6  A    between atoms: N_14  and  C_15
REMARK    7  A    between atoms: C_15  and  C_16
REMARK    8  A    between atoms: C_16  and  O_17
REMARK    9  A    between atoms: C_16  and  C_18
REMARK   10  A    between atoms: N_22  and  C_23
REMARK   11  A    between atoms: C_23  and  C_24
REMARK   12  A    between atoms: C_28  and  C_29
REMARK                            x       y       z     vdW  Elec       q    Type
REMARK                         _______ _______ _______ _____ _____    ______ ____
ROOT
ATOM      1  C   UNL     1       1.579   5.098  20.143  0.00  0.00    +0.000 C 
ENDROOT
BRANCH   1   2
ATOM      2  C   UNL     1       2.844   4.186  20.230  0.00  0.00    +0.000 C 
ATOM      3  C   UNL     1       2.617   2.838  20.907  0.00  0.00    +0.000 C 
ATOM      4  C   UNL     1       2.186   1.923  19.783  0.00  0.00    +0.000 C 
ATOM      5  C   UNL     1       2.742   2.564  18.515  0.00  0.00    +0.000 C 
ATOM      6  N   UNL     1       3.400   3.828  18.901  0.00  0.00    +0.000 NA
BRANCH   6   7
ATOM      7  C   UNL     1       4.868   3.665  18.929  0.00  0.00    +0.000 C 
BRANCH   7   8
ATOM      8  C   UNL     1       5.590   4.485  17.873  0.00  0.00    +0.000 A 
ATOM      9  C   UNL     1       5.638   4.048  16.538  0.00  0.00    +0.000 A 
ATOM     10  C   UNL     1       6.342   4.774  15.577  0.00  0.00    +0.000 A 
ATOM     11  C   UNL     1       6.996   5.955  15.933  0.00  0.00    +0.000 A 
ATOM     12  C   UNL     1       6.948   6.413  17.256  0.00  0.00    +0.000 A 
ATOM     13  C   UNL     1       6.245   5.679  18.221  0.00  0.00    +0.000 A 
BRANCH  12  14
ATOM     14  C   UNL     1       7.604   7.634  17.614  0.00  0.00    +0.000 C 
ATOM     15  N   UNL     1       8.126   8.628  17.913  0.00  0.00    +0.000 NA
ENDBRANCH  12  14
ENDBRANCH   7   8
ENDBRANCH   6   7
ENDBRANCH   1   2
BRANCH   1  16
ATOM     16  O   UNL     1       0.350   4.375  20.306  0.00  0.00    +0.000 OA
ATOM     17  H   UNL     1      -0.089   4.318  19.443  0.00  0.00    +0.000 HD
ENDBRANCH   1  16
BRANCH   1  18
ATOM     18  C   UNL     1       1.607   6.252  21.182  0.00  0.00    +0.000 C 
BRANCH  18  19
ATOM     19  N   UNL     1       1.977   7.546  20.601  0.00  0.00    +0.000 NA
ATOM     20  H   UNL     1       2.920   7.805  20.884  0.00  0.00    +0.000 HD
BRANCH  19  22
ATOM     21  C   UNL     1       1.624   9.238  22.258  0.00  0.00    +0.000 C 
ATOM     22  C   UNL     1       1.087   8.691  20.917  0.00  0.00    +0.000 C 
ATOM     23  C   UNL     1      -0.353   8.186  21.144  0.00  0.00    +0.000 C 
BRANCH  22  24
ATOM     24  C   UNL     1       1.188   9.763  19.803  0.00  0.00    +0.000 C 
BRANCH  24  25
ATOM     25  C   UNL     1      -0.114  10.114  19.151  0.00  0.00    +0.000 A 
ATOM     26  N   UNL     1      -0.478   9.706  17.955  0.00  0.00    +0.000 NA
ATOM     27  C   UNL     1      -1.704  10.252  17.624  0.00  0.00    +0.000 A 
ATOM     28  C   UNL     1      -2.405  10.037  16.421  0.00  0.00    +0.000 A 
ATOM     29  C   UNL     1      -3.633  10.672  16.210  0.00  0.00    +0.000 A 
ATOM     30  C   UNL     1      -4.166  11.516  17.179  0.00  0.00    +0.000 A 
ATOM     31  C   UNL     1      -3.493  11.741  18.383  0.00  0.00    +0.000 A 
ATOM     32  C   UNL     1      -2.264  11.094  18.586  0.00  0.00    +0.000 A 
ATOM     33  S   UNL     1      -1.215  11.166  19.945  0.00  0.00    +0.000 S 
ENDBRANCH  24  25
ENDBRANCH  22  24
ENDBRANCH  19  22
ENDBRANCH  18  19
ENDBRANCH   1  18
TORSDOF 10
ENDMDL
MODEL 6
REMARK VINA RESULT:      -7.0      3.352      7.995
REMARK  Name = 
REMARK  12 active torsions:
REMARK  status: ('A' for Active; 'I' for Inactive)
REMARK    1  A    between atoms: C_1  and  C_2
REMARK    2  A    between atoms: C_2  and  C_3
REMARK    3  A    between atoms: C_2  and  C_4
REMARK    4  A    between atoms: C_2  and  N_14
REMARK    5  A    between atoms: C_4  and  C_5
REMARK    6  A    between atoms: N_14  and  C_15
REMARK    7  A    between atoms: C_15  and  C_16
REMARK    8  A    between atoms: C_16  and  O_17
REMARK    9  A    between atoms: C_16  and  C_18
REMARK   10  A    between atoms: N_22  and  C_23
REMARK   11  A    between atoms: C_23  and  C_24
REMARK   12  A    between atoms: C_28  and  C_29
REMARK                            x       y       z     vdW  Elec       q    Type
REMARK                         _______ _______ _______ _____ _____    ______ ____
ROOT
ATOM      1  C   UNL     1       1.821   5.417  20.415  0.00  0.00    +0.000 C 
ENDROOT
BRANCH   1   2
ATOM      2  C   UNL     1       2.605   4.406  19.519  0.00  0.00    +0.000 C 
ATOM      3  C   UNL     1       2.328   2.936  19.818  0.00  0.00    +0.000 C 
ATOM      4  C   UNL     1       1.139   2.595  18.947  0.00  0.00    +0.000 C 
ATOM      5  C   UNL     1       1.173   3.617  17.814  0.00  0.00    +0.000 C 
ATOM      6  N   UNL     1       2.294   4.541  18.074  0.00  0.00    +0.000 NA
BRANCH   6   7
ATOM      7  C   UNL     1       3.451   4.213  17.215  0.00  0.00    +0.000 C 
BRANCH   7   8
ATOM      8  C   UNL     1       4.642   5.132  17.425  0.00  0.00    +0.000 A 
ATOM      9  C   UNL     1       4.855   6.231  16.574  0.00  0.00    +0.000 A 
ATOM     10  C   UNL     1       5.975   7.048  16.735  0.00  0.00    +0.000 A 
ATOM     11  C   UNL     1       6.890   6.787  17.756  0.00  0.00    +0.000 A 
ATOM     12  C   UNL     1       6.687   5.705  18.622  0.00  0.00    +0.000 A 
ATOM     13  C   UNL     1       5.565   4.883  18.455  0.00  0.00    +0.000 A 
BRANCH  12  14
ATOM     14  C   UNL     1       7.617   5.451  19.681  0.00  0.00    +0.000 C 
ATOM     15  N   UNL     1       8.374   5.259  20.540  0.00  0.00    +0.000 NA
ENDBRANCH  12  14
ENDBRANCH   7   8
ENDBRANCH   6   7
ENDBRANCH   1   2
BRANCH   1  16
ATOM     16  O   UNL     1       2.250   5.407  21.785  0.00  0.00    +0.000 OA
ATOM     17  H   UNL     1       2.002   4.555  22.178  0.00  0.00    +0.000 HD
ENDBRANCH   1  16
BRANCH   1  18
ATOM     18  C   UNL     1       1.912   6.874  19.886  0.00  0.00    +0.000 C 
BRANCH  18  19
ATOM     19  N   UNL     1       2.130   7.862  20.946  0.00  0.00    +0.000 NA
ATOM     20  H   UNL     1       2.378   7.398  21.818  0.00  0.00    +0.000 HD
BRANCH  19  22
ATOM     21  C   UNL     1       1.157   9.123  22.734  0.00  0.00    +0.000 C 
ATOM     22  C   UNL     1       1.001   8.781  21.235  0.00  0.00    +0.000 C 
ATOM     23  C   UNL     1      -0.337   8.039  21.045  0.00  0.00    +0.000 C 
BRANCH  22  24
ATOM     24  C   UNL     1       1.121  10.056  20.363  0.00  0.00    +0.000 C 
BRANCH  24  25
ATOM     25  C   UNL     1      -0.017  10.274  19.412  0.00  0.00    +0.000 A 
ATOM     26  N   UNL     1      -1.084  10.992  19.685  0.00  0.00    +0.000 NA
ATOM     27  C   UNL     1      -1.968  10.945  18.623  0.00  0.00    +0.000 A 
ATOM     28  C   UNL     1      -3.216  11.595  18.559  0.00  0.00    +0.000 A 
ATOM     29  C   UNL     1      -4.021  11.443  17.426  0.00  0.00    +0.000 A 
ATOM     30  C   UNL     1      -3.598  10.653  16.361  0.00  0.00    +0.000 A 
ATOM     31  C   UNL     1      -2.362  10.003  16.398  0.00  0.00    +0.000 A 
ATOM     32  C   UNL     1      -1.560  10.167  17.539  0.00  0.00    +0.000 A 
ATOM     33  S   UNL     1      -0.009   9.508  17.875  0.00  0.00    +0.000 S 
ENDBRANCH  24  25
ENDBRANCH  22  24
ENDBRANCH  19  22
ENDBRANCH  18  19
ENDBRANCH   1  18
TORSDOF 10
ENDMDL
MODEL 7
REMARK VINA RESULT:      -6.9      8.815     11.911
REMARK  Name = 
REMARK  12 active torsions:
REMARK  status: ('A' for Active; 'I' for Inactive)
REMARK    1  A    between atoms: C_1  and  C_2
REMARK    2  A    between atoms: C_2  and  C_3
REMARK    3  A    between atoms: C_2  and  C_4
REMARK    4  A    between atoms: C_2  and  N_14
REMARK    5  A    between atoms: C_4  and  C_5
REMARK    6  A    between atoms: N_14  and  C_15
REMARK    7  A    between atoms: C_15  and  C_16
REMARK    8  A    between atoms: C_16  and  O_17
REMARK    9  A    between atoms: C_16  and  C_18
REMARK   10  A    between atoms: N_22  and  C_23
REMARK   11  A    between atoms: C_23  and  C_24
REMARK   12  A    between atoms: C_28  and  C_29
REMARK                            x       y       z     vdW  Elec       q    Type
REMARK                         _______ _______ _______ _____ _____    ______ ____
ROOT
ATOM      1  C   UNL     1      -0.228  12.336  18.358  0.00  0.00    +0.000 C 
ENDROOT
BRANCH   1   2
ATOM      2  C   UNL     1       0.060  13.311  19.544  0.00  0.00    +0.000 C 
ATOM      3  C   UNL     1       1.432  13.975  19.510  0.00  0.00    +0.000 C 
ATOM      4  C   UNL     1       1.220  15.229  18.692  0.00  0.00    +0.000 C 
ATOM      5  C   UNL     1      -0.270  15.532  18.811  0.00  0.00    +0.000 C 
ATOM      6  N   UNL     1      -0.887  14.453  19.606  0.00  0.00    +0.000 NA
BRANCH   6   7
ATOM      7  C   UNL     1      -1.139  14.902  20.991  0.00  0.00    +0.000 C 
BRANCH   7   8
ATOM      8  C   UNL     1      -1.708  13.815  21.887  0.00  0.00    +0.000 A 
ATOM      9  C   UNL     1      -2.969  13.973  22.489  0.00  0.00    +0.000 A 
ATOM     10  C   UNL     1      -3.472  12.998  23.351  0.00  0.00    +0.000 A 
ATOM     11  C   UNL     1      -2.729  11.846  23.614  0.00  0.00    +0.000 A 
ATOM     12  C   UNL     1      -1.477  11.665  23.012  0.00  0.00    +0.000 A 
ATOM     13  C   UNL     1      -0.971  12.648  22.151  0.00  0.00    +0.000 A 
BRANCH  12  14
ATOM     14  C   UNL     1      -0.726  10.473  23.268  0.00  0.00    +0.000 C 
ATOM     15  N   UNL     1      -0.106   9.514  23.478  0.00  0.00    +0.000 NA
ENDBRANCH  12  14
ENDBRANCH   7   8
ENDBRANCH   6   7
ENDBRANCH   1   2
BRANCH   1  16
ATOM     16  O   UNL     1       0.837  11.401  18.126  0.00  0.00    +0.000 OA
ATOM     17  H   UNL     1       1.072  10.988  18.972  0.00  0.00    +0.000 HD
ENDBRANCH   1  16
BRANCH   1  18
ATOM     18  C   UNL     1      -1.545  11.536  18.552  0.00  0.00    +0.000 C 
BRANCH  18  19
ATOM     19  N   UNL     1      -2.656  12.044  17.744  0.00  0.00    +0.000 NA
ATOM     20  H   UNL     1      -3.336  12.519  18.335  0.00  0.00    +0.000 HD
BRANCH  19  22
ATOM     21  C   UNL     1      -3.267   9.729  17.731  0.00  0.00    +0.000 C 
ATOM     22  C   UNL     1      -3.393  11.044  16.931  0.00  0.00    +0.000 C 
ATOM     23  C   UNL     1      -2.687  10.853  15.573  0.00  0.00    +0.000 C 
BRANCH  22  24
ATOM     24  C   UNL     1      -4.877  11.466  16.792  0.00  0.00    +0.000 C 
BRANCH  24  25
ATOM     25  C   UNL     1      -5.599  11.657  18.091  0.00  0.00    +0.000 A 
ATOM     26  N   UNL     1      -5.422  12.684  18.893  0.00  0.00    +0.000 NA
ATOM     27  C   UNL     1      -6.191  12.531  20.032  0.00  0.00    +0.000 A 
ATOM     28  C   UNL     1      -6.257  13.434  21.111  0.00  0.00    +0.000 A 
ATOM     29  C   UNL     1      -7.066  13.141  22.213  0.00  0.00    +0.000 A 
ATOM     30  C   UNL     1      -7.806  11.962  22.252  0.00  0.00    +0.000 A 
ATOM     31  C   UNL     1      -7.761  11.054  21.192  0.00  0.00    +0.000 A 
ATOM     32  C   UNL     1      -6.949  11.361  20.088  0.00  0.00    +0.000 A 
ATOM     33  S   UNL     1      -6.693  10.457  18.649  0.00  0.00    +0.000 S 
ENDBRANCH  24  25
ENDBRANCH  22  24
ENDBRANCH  19  22
ENDBRANCH  18  19
ENDBRANCH   1  18
TORSDOF 10
ENDMDL
MODEL 8
REMARK VINA RESULT:      -6.8      3.352      9.238
REMARK  Name = 
REMARK  12 active torsions:
REMARK  status: ('A' for Active; 'I' for Inactive)
REMARK    1  A    between atoms: C_1  and  C_2
REMARK    2  A    between atoms: C_2  and  C_3
REMARK    3  A    between atoms: C_2  and  C_4
REMARK    4  A    between atoms: C_2  and  N_14
REMARK    5  A    between atoms: C_4  and  C_5
REMARK    6  A    between atoms: N_14  and  C_15
REMARK    7  A    between atoms: C_15  and  C_16
REMARK    8  A    between atoms: C_16  and  O_17
REMARK    9  A    between atoms: C_16  and  C_18
REMARK   10  A    between atoms: N_22  and  C_23
REMARK   11  A    between atoms: C_23  and  C_24
REMARK   12  A    between atoms: C_28  and  C_29
REMARK                            x       y       z     vdW  Elec       q    Type
REMARK                         _______ _______ _______ _____ _____    ______ ____
ROOT
ATOM      1  C   UNL     1       1.800   6.549  20.022  0.00  0.00    +0.000 C 
ENDROOT
BRANCH   1   2
ATOM      2  C   UNL     1       2.559   5.184  19.986  0.00  0.00    +0.000 C 
ATOM      3  C   UNL     1       1.928   4.078  20.826  0.00  0.00    +0.000 C 
ATOM      4  C   UNL     1       0.943   3.414  19.890  0.00  0.00    +0.000 C 
ATOM      5  C   UNL     1       1.455   3.729  18.488  0.00  0.00    +0.000 C 
ATOM      6  N   UNL     1       2.642   4.595  18.625  0.00  0.00    +0.000 NA
BRANCH   6   7
ATOM      7  C   UNL     1       3.882   3.819  18.422  0.00  0.00    +0.000 C 
BRANCH   7   8
ATOM      8  C   UNL     1       4.867   4.486  17.477  0.00  0.00    +0.000 A 
ATOM      9  C   UNL     1       5.017   4.024  16.158  0.00  0.00    +0.000 A 
ATOM     10  C   UNL     1       5.957   4.604  15.304  0.00  0.00    +0.000 A 
ATOM     11  C   UNL     1       6.749   5.662  15.752  0.00  0.00    +0.000 A 
ATOM     12  C   UNL     1       6.604   6.145  17.059  0.00  0.00    +0.000 A 
ATOM     13  C   UNL     1       5.664   5.558  17.916  0.00  0.00    +0.000 A 
BRANCH  12  14
ATOM     14  C   UNL     1       7.405   7.243  17.509  0.00  0.00    +0.000 C 
ATOM     15  N   UNL     1       8.043   8.139  17.880  0.00  0.00    +0.000 NA
ENDBRANCH  12  14
ENDBRANCH   7   8
ENDBRANCH   6   7
ENDBRANCH   1   2
BRANCH   1  16
ATOM     16  O   UNL     1       1.696   7.102  21.343  0.00  0.00    +0.000 OA
ATOM     17  H   UNL     1       2.585   7.353  21.641  0.00  0.00    +0.000 HD
ENDBRANCH   1  16
BRANCH   1  18
ATOM     18  C   UNL     1       2.451   7.614  19.098  0.00  0.00    +0.000 C 
BRANCH  18  19
ATOM     19  N   UNL     1       1.472   8.399  18.340  0.00  0.00    +0.000 NA
ATOM     20  H   UNL     1       1.745   8.455  17.360  0.00  0.00    +0.000 HD
BRANCH  19  22
ATOM     21  C   UNL     1      -0.246  10.064  18.439  0.00  0.00    +0.000 C 
ATOM     22  C   UNL     1       1.226   9.784  18.814  0.00  0.00    +0.000 C 
ATOM     23  C   UNL     1       2.120  10.769  18.033  0.00  0.00    +0.000 C 
BRANCH  22  24
ATOM     24  C   UNL     1       1.430   9.861  20.348  0.00  0.00    +0.000 C 
BRANCH  24  25
ATOM     25  C   UNL     1       0.725  11.001  21.017  0.00  0.00    +0.000 A 
ATOM     26  N   UNL     1       1.095  12.259  20.923  0.00  0.00    +0.000 NA
ATOM     27  C   UNL     1       0.273  13.052  21.703  0.00  0.00    +0.000 A 
ATOM     28  C   UNL     1       0.370  14.450  21.848  0.00  0.00    +0.000 A 
ATOM     29  C   UNL     1      -0.520  15.124  22.689  0.00  0.00    +0.000 A 
ATOM     30  C   UNL     1      -1.500  14.424  23.386  0.00  0.00    +0.000 A 
ATOM     31  C   UNL     1      -1.620  13.038  23.254  0.00  0.00    +0.000 A 
ATOM     32  C   UNL     1      -0.724  12.372  22.403  0.00  0.00    +0.000 A 
ATOM     33  S   UNL     1      -0.624  10.696  22.035  0.00  0.00    +0.000 S 
ENDBRANCH  24  25
ENDBRANCH  22  24
ENDBRANCH  19  22
ENDBRANCH  18  19
ENDBRANCH   1  18
TORSDOF 10
ENDMDL
MODEL 9
REMARK VINA RESULT:      -6.8      0.935      1.310
REMARK  Name = 
REMARK  12 active torsions:
REMARK  status: ('A' for Active; 'I' for Inactive)
REMARK    1  A    between atoms: C_1  and  C_2
REMARK    2  A    between atoms: C_2  and  C_3
REMARK    3  A    between atoms: C_2  and  C_4
REMARK    4  A    between atoms: C_2  and  N_14
REMARK    5  A    between atoms: C_4  and  C_5
REMARK    6  A    between atoms: N_14  and  C_15
REMARK    7  A    between atoms: C_15  and  C_16
REMARK    8  A    between atoms: C_16  and  O_17
REMARK    9  A    between atoms: C_16  and  C_18
REMARK   10  A    between atoms: N_22  and  C_23
REMARK   11  A    between atoms: C_23  and  C_24
REMARK   12  A    between atoms: C_28  and  C_29
REMARK                            x       y       z     vdW  Elec       q    Type
REMARK                         _______ _______ _______ _____ _____    ______ ____
ROOT
ATOM      1  C   UNL     1       3.905   3.610  19.301  0.00  0.00    +0.000 C 
ENDROOT
BRANCH   1   2
ATOM      2  C   UNL     1       2.773   4.463  18.643  0.00  0.00    +0.000 C 
ATOM      3  C   UNL     1       1.368   3.891  18.796  0.00  0.00    +0.000 C 
ATOM      4  C   UNL     1       0.871   4.466  20.104  0.00  0.00    +0.000 C 
ATOM      5  C   UNL     1       1.694   5.732  20.318  0.00  0.00    +0.000 C 
ATOM      6  N   UNL     1       2.666   5.831  19.211  0.00  0.00    +0.000 NA
BRANCH   6   7
ATOM      7  C   UNL     1       2.220   6.823  18.212  0.00  0.00    +0.000 C 
BRANCH   7   8
ATOM      8  C   UNL     1       1.654   8.092  18.826  0.00  0.00    +0.000 A 
ATOM      9  C   UNL     1       1.258   9.166  18.011  0.00  0.00    +0.000 A 
ATOM     10  C   UNL     1       0.785  10.351  18.576  0.00  0.00    +0.000 A 
ATOM     11  C   UNL     1       0.686  10.474  19.963  0.00  0.00    +0.000 A 
ATOM     12  C   UNL     1       1.063   9.408  20.791  0.00  0.00    +0.000 A 
ATOM     13  C   UNL     1       1.544   8.222  20.221  0.00  0.00    +0.000 A 
BRANCH  12  14
ATOM     14  C   UNL     1       0.943   9.530  22.213  0.00  0.00    +0.000 C 
ATOM     15  N   UNL     1       0.849   9.643  23.364  0.00  0.00    +0.000 NA
ENDBRANCH  12  14
ENDBRANCH   7   8
ENDBRANCH   6   7
ENDBRANCH   1   2
BRANCH   1  16
ATOM     16  O   UNL     1       4.432   2.602  18.426  0.00  0.00    +0.000 OA
ATOM     17  H   UNL     1       4.096   2.767  17.531  0.00  0.00    +0.000 HD
ENDBRANCH   1  16
BRANCH   1  18
ATOM     18  C   UNL     1       5.086   4.481  19.809  0.00  0.00    +0.000 C 
BRANCH  18  19
ATOM     19  N   UNL     1       6.384   4.070  19.266  0.00  0.00    +0.000 NA
ATOM     20  H   UNL     1       6.971   3.684  20.004  0.00  0.00    +0.000 HD
BRANCH  19  22
ATOM     21  C   UNL     1       8.316   4.348  17.880  0.00  0.00    +0.000 C 
ATOM     22  C   UNL     1       7.172   5.119  18.574  0.00  0.00    +0.000 C 
ATOM     23  C   UNL     1       7.794   6.076  19.612  0.00  0.00    +0.000 C 
BRANCH  22  24
ATOM     24  C   UNL     1       6.285   5.846  17.531  0.00  0.00    +0.000 C 
BRANCH  24  25
ATOM     25  C   UNL     1       6.373   5.294  16.141  0.00  0.00    +0.000 A 
ATOM     26  N   UNL     1       7.249   5.686  15.243  0.00  0.00    +0.000 NA
ATOM     27  C   UNL     1       7.026   5.026  14.048  0.00  0.00    +0.000 A 
ATOM     28  C   UNL     1       7.770   5.192  12.863  0.00  0.00    +0.000 A 
ATOM     29  C   UNL     1       7.420   4.471  11.717  0.00  0.00    +0.000 A 
ATOM     30  C   UNL     1       6.341   3.592  11.739  0.00  0.00    +0.000 A 
ATOM     31  C   UNL     1       5.592   3.406  12.904  0.00  0.00    +0.000 A 
ATOM     32  C   UNL     1       5.956   4.132  14.049  0.00  0.00    +0.000 A 
ATOM     33  S   UNL     1       5.240   4.117  15.612  0.00  0.00    +0.000 S 
ENDBRANCH  24  25
ENDBRANCH  22  24
ENDBRANCH  19  22
ENDBRANCH  18  19
ENDBRANCH   1  18
TORSDOF 10
ENDMDL
