MODEL 1
REMARK VINA RESULT:      -8.0      0.000      0.000
REMARK  Name = 
REMARK  3 active torsions:
REMARK  status: ('A' for Active; 'I' for Inactive)
REMARK    1  A    between atoms: C_1  and  C_2
REMARK    2  A    between atoms: C_3  and  C_4
REMARK    3  A    between atoms: N_9  and  C_10
REMARK                            x       y       z     vdW  Elec       q    Type
REMARK                         _______ _______ _______ _____ _____    ______ ____
ROOT
ATOM      1  C   UNL     1       1.204   8.511  20.606  0.00  0.00    +0.000 C 
ATOM      2  O   UNL     1       1.082   8.066  21.751  0.00  0.00    +0.000 OA
ATOM      3  N   UNL     1       0.657   9.770  20.313  0.00  0.00    +0.000 N 
ATOM      4  C   UNL     1       0.011  10.524  21.410  0.00  0.00    +0.000 C 
ATOM      5  C   UNL     1       0.301  12.041  21.318  0.00  0.00    +0.000 C 
ATOM      6  N   UNL     1      -0.128  12.514  19.991  0.00  0.00    +0.000 N 
ATOM      7  C   UNL     1       0.576  11.836  18.886  0.00  0.00    +0.000 C 
ATOM      8  C   UNL     1       0.375  10.315  18.978  0.00  0.00    +0.000 C 
ENDROOT
BRANCH   1  11
ATOM      9  C   UNL     1       1.774   5.405  20.582  0.00  0.00    +0.000 C 
ATOM     10  C   UNL     1       2.317   6.430  19.634  0.00  0.00    +0.000 A 
ATOM     11  C   UNL     1       2.039   7.798  19.630  0.00  0.00    +0.000 A 
ATOM     12  S   UNL     1       2.612   8.514  18.172  0.00  0.00    +0.000 S 
ATOM     13  C   UNL     1       3.497   7.126  17.724  0.00  0.00    +0.000 A 
ATOM     14  N   UNL     1       4.281   7.084  16.605  0.00  0.00    +0.000 NA
ATOM     15  C   UNL     1       4.788   5.912  16.379  0.00  0.00    +0.000 A 
ATOM     16  N   UNL     1       4.614   4.798  17.178  0.00  0.00    +0.000 N 
ATOM     17  C   UNL     1       3.889   4.807  18.348  0.00  0.00    +0.000 A 
ATOM     18  O   UNL     1       3.804   3.844  19.099  0.00  0.00    +0.000 OA
ATOM     19  C   UNL     1       3.250   6.089  18.598  0.00  0.00    +0.000 A 
ATOM     20  C   UNL     1       5.277   3.629  16.685  0.00  0.00    +0.000 C 
ATOM     21  C   UNL     1       5.956   4.060  15.399  0.00  0.00    +0.000 C 
ATOM     22  C   UNL     1       5.647   5.545  15.208  0.00  0.00    +0.000 C 
ENDBRANCH   1  11
BRANCH   6  23
ATOM     23  C   UNL     1      -0.430  13.850  19.760  0.00  0.00    +0.000 A 
ATOM     24  C   UNL     1       0.142  14.622  18.742  0.00  0.00    +0.000 A 
ATOM     25  C   UNL     1      -0.212  15.969  18.576  0.00  0.00    +0.000 A 
ATOM     26  C   UNL     1      -1.136  16.551  19.436  0.00  0.00    +0.000 A 
ATOM     27  F   UNL     1      -1.470  17.840  19.279  0.00  0.00    +0.000 F 
ATOM     28  C   UNL     1      -1.716  15.815  20.455  0.00  0.00    +0.000 A 
ATOM     29  C   UNL     1      -1.362  14.475  20.609  0.00  0.00    +0.000 A 
ENDBRANCH   6  23
TORSDOF 2
ENDMDL
MODEL 2
REMARK VINA RESULT:      -8.0      2.902      3.998
REMARK  Name = 
REMARK  3 active torsions:
REMARK  status: ('A' for Active; 'I' for Inactive)
REMARK    1  A    between atoms: C_1  and  C_2
REMARK    2  A    between atoms: C_3  and  C_4
REMARK    3  A    between atoms: N_9  and  C_10
REMARK                            x       y       z     vdW  Elec       q    Type
REMARK                         _______ _______ _______ _____ _____    ______ ____
ROOT
ATOM      1  C   UNL     1       1.120   9.649  18.970  0.00  0.00    +0.000 C 
ATOM      2  O   UNL     1       1.049  10.002  17.789  0.00  0.00    +0.000 OA
ATOM      3  N   UNL     1       0.607  10.503  19.959  0.00  0.00    +0.000 N 
ATOM      4  C   UNL     1      -0.045  11.758  19.529  0.00  0.00    +0.000 C 
ATOM      5  C   UNL     1      -1.282  12.094  20.395  0.00  0.00    +0.000 C 
ATOM      6  N   UNL     1      -0.860  12.143  21.805  0.00  0.00    +0.000 N 
ATOM      7  C   UNL     1      -0.291  10.866  22.277  0.00  0.00    +0.000 C 
ATOM      8  C   UNL     1       0.900  10.455  21.398  0.00  0.00    +0.000 C 
ENDROOT
BRANCH   1  11
ATOM      9  C   UNL     1       3.395   8.064  17.458  0.00  0.00    +0.000 C 
ATOM     10  C   UNL     1       2.575   7.582  18.616  0.00  0.00    +0.000 A 
ATOM     11  C   UNL     1       1.592   8.297  19.301  0.00  0.00    +0.000 A 
ATOM     12  S   UNL     1       1.165   7.474  20.753  0.00  0.00    +0.000 S 
ATOM     13  C   UNL     1       2.005   6.057  20.311  0.00  0.00    +0.000 A 
ATOM     14  N   UNL     1       1.994   4.927  21.080  0.00  0.00    +0.000 NA
ATOM     15  C   UNL     1       2.776   3.995  20.630  0.00  0.00    +0.000 A 
ATOM     16  N   UNL     1       3.532   4.073  19.477  0.00  0.00    +0.000 N 
ATOM     17  C   UNL     1       3.526   5.162  18.637  0.00  0.00    +0.000 A 
ATOM     18  O   UNL     1       4.131   5.200  17.572  0.00  0.00    +0.000 OA
ATOM     19  C   UNL     1       2.712   6.254  19.144  0.00  0.00    +0.000 A 
ATOM     20  C   UNL     1       4.316   2.901  19.224  0.00  0.00    +0.000 C 
ATOM     21  C   UNL     1       4.019   1.959  20.374  0.00  0.00    +0.000 C 
ATOM     22  C   UNL     1       3.010   2.666  21.281  0.00  0.00    +0.000 C 
ENDBRANCH   1  11
BRANCH   6  23
ATOM     23  C   UNL     1      -1.587  12.847  22.756  0.00  0.00    +0.000 A 
ATOM     24  C   UNL     1      -2.848  12.463  23.227  0.00  0.00    +0.000 A 
ATOM     25  C   UNL     1      -3.522  13.232  24.187  0.00  0.00    +0.000 A 
ATOM     26  C   UNL     1      -2.938  14.395  24.674  0.00  0.00    +0.000 A 
ATOM     27  F   UNL     1      -3.586  15.131  25.587  0.00  0.00    +0.000 F 
ATOM     28  C   UNL     1      -1.694  14.804  24.225  0.00  0.00    +0.000 A 
ATOM     29  C   UNL     1      -1.029  14.030  23.275  0.00  0.00    +0.000 A 
ENDBRANCH   6  23
TORSDOF 2
ENDMDL
MODEL 3
REMARK VINA RESULT:      -7.9      4.404     10.282
REMARK  Name = 
REMARK  3 active torsions:
REMARK  status: ('A' for Active; 'I' for Inactive)
REMARK    1  A    between atoms: C_1  and  C_2
REMARK    2  A    between atoms: C_3  and  C_4
REMARK    3  A    between atoms: N_9  and  C_10
REMARK                            x       y       z     vdW  Elec       q    Type
REMARK                         _______ _______ _______ _____ _____    ______ ____
ROOT
ATOM      1  C   UNL     1      -0.968  11.714  19.136  0.00  0.00    +0.000 C 
ATOM      2  O   UNL     1      -1.345  12.180  18.056  0.00  0.00    +0.000 OA
ATOM      3  N   UNL     1      -0.243  10.512  19.133  0.00  0.00    +0.000 N 
ATOM      4  C   UNL     1       0.081   9.895  17.828  0.00  0.00    +0.000 C 
ATOM      5  C   UNL     1       1.496   9.268  17.820  0.00  0.00    +0.000 C 
ATOM      6  N   UNL     1       1.579   8.302  18.928  0.00  0.00    +0.000 N 
ATOM      7  C   UNL     1       1.350   8.921  20.248  0.00  0.00    +0.000 C 
ATOM      8  C   UNL     1      -0.019   9.620  20.278  0.00  0.00    +0.000 C 
ENDROOT
BRANCH   1  11
ATOM      9  C   UNL     1       0.828  14.139  20.069  0.00  0.00    +0.000 C 
ATOM     10  C   UNL     1      -0.337  13.544  20.800  0.00  0.00    +0.000 A 
ATOM     11  C   UNL     1      -1.147  12.492  20.370  0.00  0.00    +0.000 A 
ATOM     12  S   UNL     1      -2.547  12.378  21.366  0.00  0.00    +0.000 S 
ATOM     13  C   UNL     1      -1.928  13.462  22.528  0.00  0.00    +0.000 A 
ATOM     14  N   UNL     1      -2.594  13.760  23.684  0.00  0.00    +0.000 NA
ATOM     15  C   UNL     1      -2.013  14.683  24.386  0.00  0.00    +0.000 A 
ATOM     16  N   UNL     1      -0.822  15.303  24.062  0.00  0.00    +0.000 N 
ATOM     17  C   UNL     1      -0.082  14.992  22.945  0.00  0.00    +0.000 A 
ATOM     18  O   UNL     1       1.014  15.481  22.700  0.00  0.00    +0.000 OA
ATOM     19  C   UNL     1      -0.737  14.008  22.098  0.00  0.00    +0.000 A 
ATOM     20  C   UNL     1      -0.415  16.296  25.010  0.00  0.00    +0.000 C 
ATOM     21  C   UNL     1      -1.497  16.308  26.073  0.00  0.00    +0.000 C 
ATOM     22  C   UNL     1      -2.527  15.252  25.673  0.00  0.00    +0.000 C 
ENDBRANCH   1  11
BRANCH   6  23
ATOM     23  C   UNL     1       2.507   7.269  18.921  0.00  0.00    +0.000 A 
ATOM     24  C   UNL     1       2.554   6.245  19.875  0.00  0.00    +0.000 A 
ATOM     25  C   UNL     1       3.527   5.237  19.801  0.00  0.00    +0.000 A 
ATOM     26  C   UNL     1       4.464   5.257  18.776  0.00  0.00    +0.000 A 
ATOM     27  F   UNL     1       5.396   4.296  18.710  0.00  0.00    +0.000 F 
ATOM     28  C   UNL     1       4.448   6.258  17.820  0.00  0.00    +0.000 A 
ATOM     29  C   UNL     1       3.473   7.252  17.898  0.00  0.00    +0.000 A 
ENDBRANCH   6  23
TORSDOF 2
ENDMDL
MODEL 4
REMARK VINA RESULT:      -7.9      4.404     10.389
REMARK  Name = 
REMARK  3 active torsions:
REMARK  status: ('A' for Active; 'I' for Inactive)
REMARK    1  A    between atoms: C_1  and  C_2
REMARK    2  A    between atoms: C_3  and  C_4
REMARK    3  A    between atoms: N_9  and  C_10
REMARK                            x       y       z     vdW  Elec       q    Type
REMARK                         _______ _______ _______ _____ _____    ______ ____
ROOT
ATOM      1  C   UNL     1      -0.903  11.808  19.046  0.00  0.00    +0.000 C 
ATOM      2  O   UNL     1      -1.250  12.263  17.952  0.00  0.00    +0.000 OA
ATOM      3  N   UNL     1      -0.224  10.580  19.077  0.00  0.00    +0.000 N 
ATOM      4  C   UNL     1       0.093   9.923  17.790  0.00  0.00    +0.000 C 
ATOM      5  C   UNL     1       1.484   9.245  17.813  0.00  0.00    +0.000 C 
ATOM      6  N   UNL     1       1.519   8.301  18.942  0.00  0.00    +0.000 N 
ATOM      7  C   UNL     1       1.297   8.956  20.245  0.00  0.00    +0.000 C 
ATOM      8  C   UNL     1      -0.045   9.705  20.244  0.00  0.00    +0.000 C 
ENDROOT
BRANCH   1  11
ATOM      9  C   UNL     1      -3.655  12.600  20.379  0.00  0.00    +0.000 C 
ATOM     10  C   UNL     1      -2.283  12.995  20.835  0.00  0.00    +0.000 A 
ATOM     11  C   UNL     1      -1.068  12.618  20.260  0.00  0.00    +0.000 A 
ATOM     12  S   UNL     1       0.235  13.028  21.309  0.00  0.00    +0.000 S 
ATOM     13  C   UNL     1      -0.753  13.977  22.325  0.00  0.00    +0.000 A 
ATOM     14  N   UNL     1      -0.256  14.677  23.389  0.00  0.00    +0.000 NA
ATOM     15  C   UNL     1      -1.177  15.250  24.100  0.00  0.00    +0.000 A 
ATOM     16  N   UNL     1      -2.531  15.218  23.830  0.00  0.00    +0.000 N 
ATOM     17  C   UNL     1      -3.074  14.582  22.737  0.00  0.00    +0.000 A 
ATOM     18  O   UNL     1      -4.263  14.623  22.451  0.00  0.00    +0.000 OA
ATOM     19  C   UNL     1      -2.076  13.872  21.953  0.00  0.00    +0.000 A 
ATOM     20  C   UNL     1      -3.324  15.926  24.789  0.00  0.00    +0.000 C 
ATOM     21  C   UNL     1      -2.340  16.475  25.803  0.00  0.00    +0.000 C 
ATOM     22  C   UNL     1      -0.944  16.045  25.348  0.00  0.00    +0.000 C 
ENDBRANCH   1  11
BRANCH   6  23
ATOM     23  C   UNL     1       2.408   7.234  18.968  0.00  0.00    +0.000 A 
ATOM     24  C   UNL     1       3.424   7.032  18.028  0.00  0.00    +0.000 A 
ATOM     25  C   UNL     1       4.280   5.924  18.120  0.00  0.00    +0.000 A 
ATOM     26  C   UNL     1       4.114   5.008  19.151  0.00  0.00    +0.000 A 
ATOM     27  F   UNL     1       4.930   3.948  19.234  0.00  0.00    +0.000 F 
ATOM     28  C   UNL     1       3.115   5.177  20.094  0.00  0.00    +0.000 A 
ATOM     29  C   UNL     1       2.273   6.284  19.998  0.00  0.00    +0.000 A 
ENDBRANCH   6  23
TORSDOF 2
ENDMDL
MODEL 5
REMARK VINA RESULT:      -7.8      3.194      3.433
REMARK  Name = 
REMARK  3 active torsions:
REMARK  status: ('A' for Active; 'I' for Inactive)
REMARK    1  A    between atoms: C_1  and  C_2
REMARK    2  A    between atoms: C_3  and  C_4
REMARK    3  A    between atoms: N_9  and  C_10
REMARK                            x       y       z     vdW  Elec       q    Type
REMARK                         _______ _______ _______ _____ _____    ______ ____
ROOT
ATOM      1  C   UNL     1       0.789  10.238  20.413  0.00  0.00    +0.000 C 
ATOM      2  O   UNL     1       1.347  10.931  21.268  0.00  0.00    +0.000 OA
ATOM      3  N   UNL     1      -0.531  10.551  20.052  0.00  0.00    +0.000 N 
ATOM      4  C   UNL     1      -1.165  11.732  20.676  0.00  0.00    +0.000 C 
ATOM      5  C   UNL     1      -2.056  12.507  19.675  0.00  0.00    +0.000 C 
ATOM      6  N   UNL     1      -3.048  11.572  19.119  0.00  0.00    +0.000 N 
ATOM      7  C   UNL     1      -2.431  10.434  18.412  0.00  0.00    +0.000 C 
ATOM      8  C   UNL     1      -1.480   9.675  19.350  0.00  0.00    +0.000 C 
ENDROOT
BRANCH   1  11
ATOM      9  C   UNL     1       1.129   7.222  21.289  0.00  0.00    +0.000 C 
ATOM     10  C   UNL     1       1.731   7.888  20.089  0.00  0.00    +0.000 A 
ATOM     11  C   UNL     1       1.554   9.213  19.689  0.00  0.00    +0.000 A 
ATOM     12  S   UNL     1       2.156   9.434  18.090  0.00  0.00    +0.000 S 
ATOM     13  C   UNL     1       2.930   7.915  18.067  0.00  0.00    +0.000 A 
ATOM     14  N   UNL     1       3.691   7.494  17.013  0.00  0.00    +0.000 NA
ATOM     15  C   UNL     1       4.107   6.271  17.138  0.00  0.00    +0.000 A 
ATOM     16  N   UNL     1       3.864   5.451  18.223  0.00  0.00    +0.000 N 
ATOM     17  C   UNL     1       3.160   5.850  19.335  0.00  0.00    +0.000 A 
ATOM     18  O   UNL     1       3.015   5.153  20.331  0.00  0.00    +0.000 OA
ATOM     19  C   UNL     1       2.621   7.194  19.201  0.00  0.00    +0.000 A 
ATOM     20  C   UNL     1       4.432   4.143  18.091  0.00  0.00    +0.000 C 
ATOM     21  C   UNL     1       5.121   4.134  16.741  0.00  0.00    +0.000 C 
ATOM     22  C   UNL     1       4.919   5.520  16.128  0.00  0.00    +0.000 C 
ENDBRANCH   1  11
BRANCH   6  23
ATOM     23  C   UNL     1      -4.242  12.023  18.572  0.00  0.00    +0.000 A 
ATOM     24  C   UNL     1      -4.619  11.832  17.237  0.00  0.00    +0.000 A 
ATOM     25  C   UNL     1      -5.842  12.324  16.758  0.00  0.00    +0.000 A 
ATOM     26  C   UNL     1      -6.690  13.018  17.612  0.00  0.00    +0.000 A 
ATOM     27  F   UNL     1      -7.856  13.491  17.151  0.00  0.00    +0.000 F 
ATOM     28  C   UNL     1      -6.344  13.227  18.936  0.00  0.00    +0.000 A 
ATOM     29  C   UNL     1      -5.129  12.730  19.406  0.00  0.00    +0.000 A 
ENDBRANCH   6  23
TORSDOF 2
ENDMDL
MODEL 6
REMARK VINA RESULT:      -7.7      6.570      7.682
REMARK  Name = 
REMARK  3 active torsions:
REMARK  status: ('A' for Active; 'I' for Inactive)
REMARK    1  A    between atoms: C_1  and  C_2
REMARK    2  A    between atoms: C_3  and  C_4
REMARK    3  A    between atoms: N_9  and  C_10
REMARK                            x       y       z     vdW  Elec       q    Type
REMARK                         _______ _______ _______ _____ _____    ______ ____
ROOT
ATOM      1  C   UNL     1       4.665  16.043  19.467  0.00  0.00    +0.000 C 
ATOM      2  O   UNL     1       4.670  17.271  19.342  0.00  0.00    +0.000 OA
ATOM      3  N   UNL     1       3.433  15.390  19.627  0.00  0.00    +0.000 N 
ATOM      4  C   UNL     1       2.199  16.203  19.579  0.00  0.00    +0.000 C 
ATOM      5  C   UNL     1       1.050  15.468  18.848  0.00  0.00    +0.000 C 
ATOM      6  N   UNL     1       0.835  14.171  19.510  0.00  0.00    +0.000 N 
ATOM      7  C   UNL     1       2.032  13.309  19.485  0.00  0.00    +0.000 C 
ATOM      8  C   UNL     1       3.222  14.029  20.139  0.00  0.00    +0.000 C 
ENDROOT
BRANCH   1  11
ATOM      9  C   UNL     1       6.611  15.138  21.784  0.00  0.00    +0.000 C 
ATOM     10  C   UNL     1       6.790  14.911  20.314  0.00  0.00    +0.000 A 
ATOM     11  C   UNL     1       5.912  15.286  19.295  0.00  0.00    +0.000 A 
ATOM     12  S   UNL     1       6.363  14.527  17.816  0.00  0.00    +0.000 S 
ATOM     13  C   UNL     1       7.863  13.998  18.432  0.00  0.00    +0.000 A 
ATOM     14  N   UNL     1       8.782  13.339  17.664  0.00  0.00    +0.000 NA
ATOM     15  C   UNL     1       9.811  12.927  18.337  0.00  0.00    +0.000 A 
ATOM     16  N   UNL     1      10.022  13.141  19.686  0.00  0.00    +0.000 N 
ATOM     17  C   UNL     1       9.159  13.853  20.486  0.00  0.00    +0.000 A 
ATOM     18  O   UNL     1       9.385  14.114  21.661  0.00  0.00    +0.000 OA
ATOM     19  C   UNL     1       7.960  14.274  19.779  0.00  0.00    +0.000 A 
ATOM     20  C   UNL     1      11.237  12.564  20.175  0.00  0.00    +0.000 C 
ATOM     21  C   UNL     1      11.878  11.891  18.976  0.00  0.00    +0.000 C 
ATOM     22  C   UNL     1      10.956  12.138  17.781  0.00  0.00    +0.000 C 
ENDBRANCH   1  11
BRANCH   6  23
ATOM     23  C   UNL     1      -0.374  13.496  19.408  0.00  0.00    +0.000 A 
ATOM     24  C   UNL     1      -0.681  12.578  18.396  0.00  0.00    +0.000 A 
ATOM     25  C   UNL     1      -1.930  11.940  18.358  0.00  0.00    +0.000 A 
ATOM     26  C   UNL     1      -2.881  12.226  19.330  0.00  0.00    +0.000 A 
ATOM     27  F   UNL     1      -4.075  11.619  19.290  0.00  0.00    +0.000 F 
ATOM     28  C   UNL     1      -2.609  13.132  20.341  0.00  0.00    +0.000 A 
ATOM     29  C   UNL     1      -1.364  13.757  20.374  0.00  0.00    +0.000 A 
ENDBRANCH   6  23
TORSDOF 2
ENDMDL
MODEL 7
REMARK VINA RESULT:      -7.7      4.613     10.394
REMARK  Name = 
REMARK  3 active torsions:
REMARK  status: ('A' for Active; 'I' for Inactive)
REMARK    1  A    between atoms: C_1  and  C_2
REMARK    2  A    between atoms: C_3  and  C_4
REMARK    3  A    between atoms: N_9  and  C_10
REMARK                            x       y       z     vdW  Elec       q    Type
REMARK                         _______ _______ _______ _____ _____    ______ ____
ROOT
ATOM      1  C   UNL     1      -1.503  12.228  20.230  0.00  0.00    +0.000 C 
ATOM      2  O   UNL     1      -2.368  12.498  19.391  0.00  0.00    +0.000 OA
ATOM      3  N   UNL     1      -0.715  11.082  20.038  0.00  0.00    +0.000 N 
ATOM      4  C   UNL     1      -0.925  10.288  18.808  0.00  0.00    +0.000 C 
ATOM      5  C   UNL     1       0.407   9.748  18.234  0.00  0.00    +0.000 C 
ATOM      6  N   UNL     1       1.083   8.973  19.288  0.00  0.00    +0.000 N 
ATOM      7  C   UNL     1       1.383   9.776  20.488  0.00  0.00    +0.000 C 
ATOM      8  C   UNL     1       0.094  10.394  21.052  0.00  0.00    +0.000 C 
ENDROOT
BRANCH   1  11
ATOM      9  C   UNL     1      -2.958  12.332  23.031  0.00  0.00    +0.000 C 
ATOM     10  C   UNL     1      -1.877  13.246  22.541  0.00  0.00    +0.000 A 
ATOM     11  C   UNL     1      -1.215  13.178  21.313  0.00  0.00    +0.000 A 
ATOM     12  S   UNL     1       0.164  14.209  21.327  0.00  0.00    +0.000 S 
ATOM     13  C   UNL     1      -0.299  14.971  22.780  0.00  0.00    +0.000 A 
ATOM     14  N   UNL     1       0.409  16.006  23.326  0.00  0.00    +0.000 NA
ATOM     15  C   UNL     1      -0.042  16.381  24.483  0.00  0.00    +0.000 A 
ATOM     16  N   UNL     1      -1.143  15.846  25.124  0.00  0.00    +0.000 N 
ATOM     17  C   UNL     1      -1.925  14.849  24.587  0.00  0.00    +0.000 A 
ATOM     18  O   UNL     1      -2.948  14.433  25.115  0.00  0.00    +0.000 OA
ATOM     19  C   UNL     1      -1.410  14.358  23.319  0.00  0.00    +0.000 A 
ATOM     20  C   UNL     1      -1.409  16.440  26.399  0.00  0.00    +0.000 C 
ATOM     21  C   UNL     1      -0.328  17.486  26.592  0.00  0.00    +0.000 C 
ATOM     22  C   UNL     1       0.552  17.454  25.342  0.00  0.00    +0.000 C 
ENDBRANCH   1  11
BRANCH   6  23
ATOM     23  C   UNL     1       2.030   8.004  18.981  0.00  0.00    +0.000 A 
ATOM     24  C   UNL     1       2.819   8.011  17.825  0.00  0.00    +0.000 A 
ATOM     25  C   UNL     1       3.751   6.991  17.584  0.00  0.00    +0.000 A 
ATOM     26  C   UNL     1       3.891   5.954  18.497  0.00  0.00    +0.000 A 
ATOM     27  F   UNL     1       4.779   4.978  18.263  0.00  0.00    +0.000 F 
ATOM     28  C   UNL     1       3.122   5.915  19.648  0.00  0.00    +0.000 A 
ATOM     29  C   UNL     1       2.202   6.936  19.882  0.00  0.00    +0.000 A 
ENDBRANCH   6  23
TORSDOF 2
ENDMDL
MODEL 8
REMARK VINA RESULT:      -7.7      4.525     10.361
REMARK  Name = 
REMARK  3 active torsions:
REMARK  status: ('A' for Active; 'I' for Inactive)
REMARK    1  A    between atoms: C_1  and  C_2
REMARK    2  A    between atoms: C_3  and  C_4
REMARK    3  A    between atoms: N_9  and  C_10
REMARK                            x       y       z     vdW  Elec       q    Type
REMARK                         _______ _______ _______ _____ _____    ______ ____
ROOT
ATOM      1  C   UNL     1      -1.007  12.265  19.732  0.00  0.00    +0.000 C 
ATOM      2  O   UNL     1      -1.631  12.660  18.742  0.00  0.00    +0.000 OA
ATOM      3  N   UNL     1      -0.343  11.030  19.658  0.00  0.00    +0.000 N 
ATOM      4  C   UNL     1      -0.379  10.293  18.376  0.00  0.00    +0.000 C 
ATOM      5  C   UNL     1       0.969   9.595  18.072  0.00  0.00    +0.000 C 
ATOM      6  N   UNL     1       1.303   8.720  19.208  0.00  0.00    +0.000 N 
ATOM      7  C   UNL     1       1.433   9.455  20.480  0.00  0.00    +0.000 C 
ATOM      8  C   UNL     1       0.139  10.224  20.787  0.00  0.00    +0.000 C 
ENDROOT
BRANCH   1  11
ATOM      9  C   UNL     1      -2.740  12.183  22.371  0.00  0.00    +0.000 C 
ATOM     10  C   UNL     1      -1.628  13.135  22.049  0.00  0.00    +0.000 A 
ATOM     11  C   UNL     1      -0.845  13.148  20.894  0.00  0.00    +0.000 A 
ATOM     12  S   UNL     1       0.510  14.189  21.110  0.00  0.00    +0.000 S 
ATOM     13  C   UNL     1      -0.110  14.857  22.552  0.00  0.00    +0.000 A 
ATOM     14  N   UNL     1       0.524  15.863  23.228  0.00  0.00    +0.000 NA
ATOM     15  C   UNL     1      -0.047  16.161  24.354  0.00  0.00    +0.000 A 
ATOM     16  N   UNL     1      -1.199  15.578  24.846  0.00  0.00    +0.000 N 
ATOM     17  C   UNL     1      -1.908  14.609  24.173  0.00  0.00    +0.000 A 
ATOM     18  O   UNL     1      -2.972  14.152  24.568  0.00  0.00    +0.000 OA
ATOM     19  C   UNL     1      -1.260  14.202  22.936  0.00  0.00    +0.000 A 
ATOM     20  C   UNL     1      -1.602  16.090  26.120  0.00  0.00    +0.000 C 
ATOM     21  C   UNL     1      -0.563  17.132  26.486  0.00  0.00    +0.000 C 
ATOM     22  C   UNL     1       0.440  17.185  25.332  0.00  0.00    +0.000 C 
ENDBRANCH   1  11
BRANCH   6  23
ATOM     23  C   UNL     1       2.167   7.642  19.064  0.00  0.00    +0.000 A 
ATOM     24  C   UNL     1       2.269   6.586  19.977  0.00  0.00    +0.000 A 
ATOM     25  C   UNL     1       3.172   5.535  19.763  0.00  0.00    +0.000 A 
ATOM     26  C   UNL     1       3.985   5.542  18.636  0.00  0.00    +0.000 A 
ATOM     27  F   UNL     1       4.851   4.539  18.435  0.00  0.00    +0.000 F 
ATOM     28  C   UNL     1       3.912   6.575  17.717  0.00  0.00    +0.000 A 
ATOM     29  C   UNL     1       3.007   7.612  17.935  0.00  0.00    +0.000 A 
ENDBRANCH   6  23
TORSDOF 2
ENDMDL
MODEL 9
REMARK VINA RESULT:      -7.6      6.909      8.534
REMARK  Name = 
REMARK  3 active torsions:
REMARK  status: ('A' for Active; 'I' for Inactive)
REMARK    1  A    between atoms: C_1  and  C_2
REMARK    2  A    between atoms: C_3  and  C_4
REMARK    3  A    between atoms: N_9  and  C_10
REMARK                            x       y       z     vdW  Elec       q    Type
REMARK                         _______ _______ _______ _____ _____    ______ ____
ROOT
ATOM      1  C   UNL     1       4.370  16.238  18.616  0.00  0.00    +0.000 C 
ATOM      2  O   UNL     1       4.006  17.130  17.844  0.00  0.00    +0.000 OA
ATOM      3  N   UNL     1       3.430  15.692  19.504  0.00  0.00    +0.000 N 
ATOM      4  C   UNL     1       2.035  16.176  19.429  0.00  0.00    +0.000 C 
ATOM      5  C   UNL     1       1.013  15.034  19.649  0.00  0.00    +0.000 C 
ATOM      6  N   UNL     1       1.310  14.392  20.940  0.00  0.00    +0.000 N 
ATOM      7  C   UNL     1       2.669  13.822  20.998  0.00  0.00    +0.000 C 
ATOM      8  C   UNL     1       3.717  14.909  20.713  0.00  0.00    +0.000 C 
ENDROOT
BRANCH   1  11
ATOM      9  C   UNL     1       7.014  17.440  19.858  0.00  0.00    +0.000 C 
ATOM     10  C   UNL     1       6.892  16.211  19.009  0.00  0.00    +0.000 A 
ATOM     11  C   UNL     1       5.717  15.666  18.487  0.00  0.00    +0.000 A 
ATOM     12  S   UNL     1       6.021  14.087  17.869  0.00  0.00    +0.000 S 
ATOM     13  C   UNL     1       7.714  14.264  17.981  0.00  0.00    +0.000 A 
ATOM     14  N   UNL     1       8.583  13.300  17.549  0.00  0.00    +0.000 NA
ATOM     15  C   UNL     1       9.822  13.573  17.815  0.00  0.00    +0.000 A 
ATOM     16  N   UNL     1      10.273  14.723  18.435  0.00  0.00    +0.000 N 
ATOM     17  C   UNL     1       9.444  15.749  18.828  0.00  0.00    +0.000 A 
ATOM     18  O   UNL     1       9.850  16.803  19.300  0.00  0.00    +0.000 OA
ATOM     19  C   UNL     1       8.039  15.448  18.605  0.00  0.00    +0.000 A 
ATOM     20  C   UNL     1      11.692  14.759  18.616  0.00  0.00    +0.000 C 
ATOM     21  C   UNL     1      12.208  13.455  18.039  0.00  0.00    +0.000 C 
ATOM     22  C   UNL     1      10.993  12.691  17.508  0.00  0.00    +0.000 C 
ENDBRANCH   1  11
BRANCH   6  23
ATOM     23  C   UNL     1       0.344  13.673  21.631  0.00  0.00    +0.000 A 
ATOM     24  C   UNL     1      -0.463  14.207  22.643  0.00  0.00    +0.000 A 
ATOM     25  C   UNL     1      -1.415  13.412  23.299  0.00  0.00    +0.000 A 
ATOM     26  C   UNL     1      -1.556  12.075  22.950  0.00  0.00    +0.000 A 
ATOM     27  F   UNL     1      -2.462  11.316  23.581  0.00  0.00    +0.000 F 
ATOM     28  C   UNL     1      -0.770  11.516  21.957  0.00  0.00    +0.000 A 
ATOM     29  C   UNL     1       0.169  12.314  21.306  0.00  0.00    +0.000 A 
ENDBRANCH   6  23
TORSDOF 2
ENDMDL
