MODEL 1
REMARK VINA RESULT:      -6.7      0.000      0.000
REMARK  Name = 
REMARK  17 active torsions:
REMARK  status: ('A' for Active; 'I' for Inactive)
REMARK    1  A    between atoms: C_1  and  C_2
REMARK    2  A    between atoms: C_2  and  C_3
REMARK    3  A    between atoms: C_2  and  O_4
REMARK    4  A    between atoms: C_2  and  C_5
REMARK    5  A    between atoms: C_5  and  C_6
REMARK    6  A    between atoms: C_6  and  C_7
REMARK    7  A    between atoms: C_7  and  O_8
REMARK    8  A    between atoms: C_7  and  C_9
REMARK    9  A    between atoms: C_9  and  C_10
REMARK   10  A    between atoms: C_9  and  O_11
REMARK   11  A    between atoms: C_9  and  C_12
REMARK   12  A    between atoms: C_15  and  O_16
REMARK   13  A    between atoms: C_23  and  O_24
REMARK   14  A    between atoms: C_25  and  O_26
REMARK   15  A    between atoms: C_28  and  C_29
REMARK   16  A    between atoms: C_30  and  O_31
REMARK   17  A    between atoms: C_34  and  C_35
REMARK                            x       y       z     vdW  Elec       q    Type
REMARK                         _______ _______ _______ _____ _____    ______ ____
ROOT
ATOM      1  C   UNL     1       1.943  14.047  18.243  0.00  0.00    +0.000 C 
ATOM      2  C   UNL     1       2.374  12.563  18.323  0.00  0.00    +0.000 C 
ATOM      3  C   UNL     1       1.046  11.788  18.617  0.00  0.00    +0.000 C 
ATOM      4  C   UNL     1      -0.049  12.856  18.981  0.00  0.00    +0.000 C 
ATOM      5  C   UNL     1      -1.005  12.791  20.194  0.00  0.00    +0.000 C 
ATOM      6  C   UNL     1      -0.965  11.624  20.861  0.00  0.00    +0.000 C 
ATOM      7  C   UNL     1      -1.293  11.742  22.294  0.00  0.00    +0.000 C 
ATOM      8  O   UNL     1      -0.631  11.113  23.121  0.00  0.00    +0.000 OA
ATOM      9  C   UNL     1      -2.413  12.652  22.589  0.00  0.00    +0.000 C 
ATOM     10  C   UNL     1      -3.162  12.128  23.782  0.00  0.00    +0.000 C 
ATOM     11  C   UNL     1      -4.328  13.039  24.079  0.00  0.00    +0.000 C 
ATOM     12  C   UNL     1      -3.825  14.482  24.260  0.00  0.00    +0.000 C 
ATOM     13  C   UNL     1      -3.254  14.993  22.903  0.00  0.00    +0.000 C 
ATOM     14  C   UNL     1      -2.017  14.152  22.404  0.00  0.00    +0.000 C 
ATOM     15  C   UNL     1      -0.836  14.803  23.209  0.00  0.00    +0.000 C 
ATOM     16  C   UNL     1      -1.680  14.195  20.802  0.00  0.00    +0.000 C 
ATOM     17  C   UNL     1      -0.897  15.476  20.437  0.00  0.00    +0.000 C 
ATOM     18  C   UNL     1      -0.188  15.262  19.140  0.00  0.00    +0.000 C 
ATOM     19  C   UNL     1       0.816  14.097  19.288  0.00  0.00    +0.000 C 
ATOM     20  C   UNL     1       1.468  13.904  20.721  0.00  0.00    +0.000 C 
ENDROOT
BRANCH   1  21
ATOM     21  C   UNL     1       3.021  15.192  18.325  0.00  0.00    +0.000 C 
ATOM     22  C   UNL     1       3.146  16.119  17.093  0.00  0.00    +0.000 C 
BRANCH  21  23
ATOM     23  O   UNL     1       2.640  16.057  19.410  0.00  0.00    +0.000 OA
ATOM     24  H   UNL     1       2.484  16.927  18.991  0.00  0.00    +0.000 HD
ENDBRANCH  21  23
BRANCH  21  25
ATOM     25  C   UNL     1       4.469  14.636  18.656  0.00  0.00    +0.000 C 
BRANCH  25  26
ATOM     26  O   UNL     1       5.287  14.781  17.485  0.00  0.00    +0.000 OA
ATOM     27  H   UNL     1       6.181  15.024  17.768  0.00  0.00    +0.000 HD
ENDBRANCH  25  26
BRANCH  25  28
ATOM     28  C   UNL     1       5.130  15.314  19.895  0.00  0.00    +0.000 C 
BRANCH  28  29
ATOM     29  C   UNL     1       6.640  15.637  19.784  0.00  0.00    +0.000 C 
BRANCH  29  31
ATOM     30  C   UNL     1       8.123  17.241  18.501  0.00  0.00    +0.000 C 
ATOM     31  C   UNL     1       6.938  17.130  19.468  0.00  0.00    +0.000 C 
ATOM     32  C   UNL     1       7.238  17.994  20.705  0.00  0.00    +0.000 C 
BRANCH  31  33
ATOM     33  O   UNL     1       5.782  17.662  18.815  0.00  0.00    +0.000 OA
ATOM     34  H   UNL     1       6.055  18.457  18.324  0.00  0.00    +0.000 HD
ENDBRANCH  31  33
ENDBRANCH  29  31
ENDBRANCH  28  29
ENDBRANCH  25  28
ENDBRANCH  21  25
ENDBRANCH   1  21
BRANCH   4  35
ATOM     35  O   UNL     1      -0.833  12.993  17.792  0.00  0.00    +0.000 OA
ATOM     36  H   UNL     1      -1.130  13.918  17.744  0.00  0.00    +0.000 HD
ENDBRANCH   4  35
BRANCH  11  37
ATOM     37  O   UNL     1      -4.989  12.529  25.226  0.00  0.00    +0.000 OA
ATOM     38  H   UNL     1      -4.460  12.771  26.003  0.00  0.00    +0.000 HD
ENDBRANCH  11  37
BRANCH  12  39
ATOM     39  O   UNL     1      -2.876  14.572  25.333  0.00  0.00    +0.000 OA
ATOM     40  H   UNL     1      -2.271  13.798  25.299  0.00  0.00    +0.000 HD
ENDBRANCH  12  39
BRANCH  16  41
ATOM     41  O   UNL     1      -2.946  14.322  20.105  0.00  0.00    +0.000 OA
ATOM     42  H   UNL     1      -3.366  13.441  20.017  0.00  0.00    +0.000 HD
ENDBRANCH  16  41
TORSDOF 12
ENDMDL
MODEL 2
REMARK VINA RESULT:      -6.6      1.324      1.807
REMARK  Name = 
REMARK  17 active torsions:
REMARK  status: ('A' for Active; 'I' for Inactive)
REMARK    1  A    between atoms: C_1  and  C_2
REMARK    2  A    between atoms: C_2  and  C_3
REMARK    3  A    between atoms: C_2  and  O_4
REMARK    4  A    between atoms: C_2  and  C_5
REMARK    5  A    between atoms: C_5  and  C_6
REMARK    6  A    between atoms: C_6  and  C_7
REMARK    7  A    between atoms: C_7  and  O_8
REMARK    8  A    between atoms: C_7  and  C_9
REMARK    9  A    between atoms: C_9  and  C_10
REMARK   10  A    between atoms: C_9  and  O_11
REMARK   11  A    between atoms: C_9  and  C_12
REMARK   12  A    between atoms: C_15  and  O_16
REMARK   13  A    between atoms: C_23  and  O_24
REMARK   14  A    between atoms: C_25  and  O_26
REMARK   15  A    between atoms: C_28  and  C_29
REMARK   16  A    between atoms: C_30  and  O_31
REMARK   17  A    between atoms: C_34  and  C_35
REMARK                            x       y       z     vdW  Elec       q    Type
REMARK                         _______ _______ _______ _____ _____    ______ ____
ROOT
ATOM      1  C   UNL     1       1.967  14.188  18.299  0.00  0.00    +0.000 C 
ATOM      2  C   UNL     1       2.428  12.714  18.373  0.00  0.00    +0.000 C 
ATOM      3  C   UNL     1       1.114  11.908  18.644  0.00  0.00    +0.000 C 
ATOM      4  C   UNL     1      -0.008  12.949  19.003  0.00  0.00    +0.000 C 
ATOM      5  C   UNL     1      -0.978  12.853  20.204  0.00  0.00    +0.000 C 
ATOM      6  C   UNL     1      -0.920  11.683  20.862  0.00  0.00    +0.000 C 
ATOM      7  C   UNL     1      -1.268  11.781  22.292  0.00  0.00    +0.000 C 
ATOM      8  O   UNL     1      -0.603  11.160  23.121  0.00  0.00    +0.000 OA
ATOM      9  C   UNL     1      -2.411  12.665  22.579  0.00  0.00    +0.000 C 
ATOM     10  C   UNL     1      -3.163  12.115  23.759  0.00  0.00    +0.000 C 
ATOM     11  C   UNL     1      -4.352  12.998  24.049  0.00  0.00    +0.000 C 
ATOM     12  C   UNL     1      -3.883  14.450  24.247  0.00  0.00    +0.000 C 
ATOM     13  C   UNL     1      -3.306  14.984  22.902  0.00  0.00    +0.000 C 
ATOM     14  C   UNL     1      -2.046  14.174  22.411  0.00  0.00    +0.000 C 
ATOM     15  C   UNL     1      -0.889  14.844  23.236  0.00  0.00    +0.000 C 
ATOM     16  C   UNL     1      -1.690  14.238  20.814  0.00  0.00    +0.000 C 
ATOM     17  C   UNL     1      -0.931  15.538  20.469  0.00  0.00    +0.000 C 
ATOM     18  C   UNL     1      -0.202  15.350  19.179  0.00  0.00    +0.000 C 
ATOM     19  C   UNL     1       0.826  14.205  19.330  0.00  0.00    +0.000 C 
ATOM     20  C   UNL     1       1.464  14.015  20.770  0.00  0.00    +0.000 C 
ENDROOT
BRANCH   1  21
ATOM     21  C   UNL     1       3.018  15.356  18.403  0.00  0.00    +0.000 C 
ATOM     22  C   UNL     1       3.237  16.210  17.132  0.00  0.00    +0.000 C 
BRANCH  21  23
ATOM     23  O   UNL     1       2.534  16.277  19.397  0.00  0.00    +0.000 OA
ATOM     24  H   UNL     1       2.294  17.081  18.894  0.00  0.00    +0.000 HD
ENDBRANCH  21  23
BRANCH  21  25
ATOM     25  C   UNL     1       4.439  14.847  18.891  0.00  0.00    +0.000 C 
BRANCH  25  26
ATOM     26  O   UNL     1       5.385  15.070  17.834  0.00  0.00    +0.000 OA
ATOM     27  H   UNL     1       5.644  14.210  17.471  0.00  0.00    +0.000 HD
ENDBRANCH  25  26
BRANCH  25  28
ATOM     28  C   UNL     1       4.915  15.503  20.223  0.00  0.00    +0.000 C 
BRANCH  28  29
ATOM     29  C   UNL     1       5.026  14.571  21.453  0.00  0.00    +0.000 C 
BRANCH  29  31
ATOM     30  C   UNL     1       3.620  16.205  22.784  0.00  0.00    +0.000 C 
ATOM     31  C   UNL     1       4.864  15.308  22.812  0.00  0.00    +0.000 C 
ATOM     32  C   UNL     1       6.074  16.170  23.216  0.00  0.00    +0.000 C 
BRANCH  31  33
ATOM     33  O   UNL     1       4.667  14.309  23.815  0.00  0.00    +0.000 OA
ATOM     34  H   UNL     1       4.972  13.458  23.454  0.00  0.00    +0.000 HD
ENDBRANCH  31  33
ENDBRANCH  29  31
ENDBRANCH  28  29
ENDBRANCH  25  28
ENDBRANCH  21  25
ENDBRANCH   1  21
BRANCH   4  35
ATOM     35  O   UNL     1      -0.781  13.078  17.806  0.00  0.00    +0.000 OA
ATOM     36  H   UNL     1      -0.574  13.946  17.418  0.00  0.00    +0.000 HD
ENDBRANCH   4  35
BRANCH  11  37
ATOM     37  O   UNL     1      -5.016  12.465  25.184  0.00  0.00    +0.000 OA
ATOM     38  H   UNL     1      -4.339  12.102  25.778  0.00  0.00    +0.000 HD
ENDBRANCH  11  37
BRANCH  12  39
ATOM     39  O   UNL     1      -2.949  14.552  25.333  0.00  0.00    +0.000 OA
ATOM     40  H   UNL     1      -3.410  14.356  26.179  0.00  0.00    +0.000 HD
ENDBRANCH  12  39
BRANCH  16  41
ATOM     41  O   UNL     1      -2.950  14.343  20.103  0.00  0.00    +0.000 OA
ATOM     42  H   UNL     1      -3.559  13.636  20.401  0.00  0.00    +0.000 HD
ENDBRANCH  16  41
TORSDOF 12
ENDMDL
MODEL 3
REMARK VINA RESULT:      -6.5      0.816      1.119
REMARK  Name = 
REMARK  17 active torsions:
REMARK  status: ('A' for Active; 'I' for Inactive)
REMARK    1  A    between atoms: C_1  and  C_2
REMARK    2  A    between atoms: C_2  and  C_3
REMARK    3  A    between atoms: C_2  and  O_4
REMARK    4  A    between atoms: C_2  and  C_5
REMARK    5  A    between atoms: C_5  and  C_6
REMARK    6  A    between atoms: C_6  and  C_7
REMARK    7  A    between atoms: C_7  and  O_8
REMARK    8  A    between atoms: C_7  and  C_9
REMARK    9  A    between atoms: C_9  and  C_10
REMARK   10  A    between atoms: C_9  and  O_11
REMARK   11  A    between atoms: C_9  and  C_12
REMARK   12  A    between atoms: C_15  and  O_16
REMARK   13  A    between atoms: C_23  and  O_24
REMARK   14  A    between atoms: C_25  and  O_26
REMARK   15  A    between atoms: C_28  and  C_29
REMARK   16  A    between atoms: C_30  and  O_31
REMARK   17  A    between atoms: C_34  and  C_35
REMARK                            x       y       z     vdW  Elec       q    Type
REMARK                         _______ _______ _______ _____ _____    ______ ____
ROOT
ATOM      1  C   UNL     1       1.959  14.168  18.275  0.00  0.00    +0.000 C 
ATOM      2  C   UNL     1       2.417  12.693  18.352  0.00  0.00    +0.000 C 
ATOM      3  C   UNL     1       1.102  11.891  18.632  0.00  0.00    +0.000 C 
ATOM      4  C   UNL     1      -0.016  12.937  18.992  0.00  0.00    +0.000 C 
ATOM      5  C   UNL     1      -0.980  12.848  20.199  0.00  0.00    +0.000 C 
ATOM      6  C   UNL     1      -0.923  11.680  20.860  0.00  0.00    +0.000 C 
ATOM      7  C   UNL     1      -1.264  11.784  22.292  0.00  0.00    +0.000 C 
ATOM      8  O   UNL     1      -0.596  11.164  23.120  0.00  0.00    +0.000 OA
ATOM      9  C   UNL     1      -2.402  12.672  22.582  0.00  0.00    +0.000 C 
ATOM     10  C   UNL     1      -3.150  12.129  23.767  0.00  0.00    +0.000 C 
ATOM     11  C   UNL     1      -4.336  13.016  24.059  0.00  0.00    +0.000 C 
ATOM     12  C   UNL     1      -3.861  14.467  24.251  0.00  0.00    +0.000 C 
ATOM     13  C   UNL     1      -3.289  14.995  22.901  0.00  0.00    +0.000 C 
ATOM     14  C   UNL     1      -2.033  14.180  22.407  0.00  0.00    +0.000 C 
ATOM     15  C   UNL     1      -0.871  14.849  23.224  0.00  0.00    +0.000 C 
ATOM     16  C   UNL     1      -1.685  14.237  20.808  0.00  0.00    +0.000 C 
ATOM     17  C   UNL     1      -0.924  15.534  20.454  0.00  0.00    +0.000 C 
ATOM     18  C   UNL     1      -0.202  15.339  19.161  0.00  0.00    +0.000 C 
ATOM     19  C   UNL     1       0.823  14.192  19.312  0.00  0.00    +0.000 C 
ATOM     20  C   UNL     1       1.468  14.005  20.749  0.00  0.00    +0.000 C 
ENDROOT
BRANCH   1  21
ATOM     21  C   UNL     1       3.014  15.333  18.370  0.00  0.00    +0.000 C 
ATOM     22  C   UNL     1       3.162  16.241  17.126  0.00  0.00    +0.000 C 
BRANCH  21  23
ATOM     23  O   UNL     1       2.586  16.210  19.428  0.00  0.00    +0.000 OA
ATOM     24  H   UNL     1       3.162  15.984  20.186  0.00  0.00    +0.000 HD
ENDBRANCH  21  23
BRANCH  21  25
ATOM     25  C   UNL     1       4.460  14.808  18.755  0.00  0.00    +0.000 C 
BRANCH  25  26
ATOM     26  O   UNL     1       5.240  14.709  17.554  0.00  0.00    +0.000 OA
ATOM     27  H   UNL     1       4.828  14.046  16.979  0.00  0.00    +0.000 HD
ENDBRANCH  25  26
BRANCH  25  28
ATOM     28  C   UNL     1       5.180  15.686  19.825  0.00  0.00    +0.000 C 
BRANCH  28  29
ATOM     29  C   UNL     1       6.139  14.951  20.792  0.00  0.00    +0.000 C 
BRANCH  29  31
ATOM     30  C   UNL     1       8.523  14.406  21.453  0.00  0.00    +0.000 C 
ATOM     31  C   UNL     1       7.634  15.039  20.375  0.00  0.00    +0.000 C 
ATOM     32  C   UNL     1       8.138  16.468  20.107  0.00  0.00    +0.000 C 
BRANCH  31  33
ATOM     33  O   UNL     1       7.783  14.275  19.175  0.00  0.00    +0.000 OA
ATOM     34  H   UNL     1       8.493  14.681  18.647  0.00  0.00    +0.000 HD
ENDBRANCH  31  33
ENDBRANCH  29  31
ENDBRANCH  28  29
ENDBRANCH  25  28
ENDBRANCH  21  25
ENDBRANCH   1  21
BRANCH   4  35
ATOM     35  O   UNL     1      -0.794  13.064  17.799  0.00  0.00    +0.000 OA
ATOM     36  H   UNL     1      -1.694  13.324  18.064  0.00  0.00    +0.000 HD
ENDBRANCH   4  35
BRANCH  11  37
ATOM     37  O   UNL     1      -4.995  12.489  25.199  0.00  0.00    +0.000 OA
ATOM     38  H   UNL     1      -4.574  12.870  25.987  0.00  0.00    +0.000 HD
ENDBRANCH  11  37
BRANCH  12  39
ATOM     39  O   UNL     1      -2.922  14.571  25.331  0.00  0.00    +0.000 OA
ATOM     40  H   UNL     1      -3.407  14.571  26.186  0.00  0.00    +0.000 HD
ENDBRANCH  12  39
BRANCH  16  41
ATOM     41  O   UNL     1      -2.948  14.344  20.102  0.00  0.00    +0.000 OA
ATOM     42  H   UNL     1      -2.805  14.201  19.143  0.00  0.00    +0.000 HD
ENDBRANCH  16  41
TORSDOF 12
ENDMDL
MODEL 4
REMARK VINA RESULT:      -6.4      1.368      1.650
REMARK  Name = 
REMARK  17 active torsions:
REMARK  status: ('A' for Active; 'I' for Inactive)
REMARK    1  A    between atoms: C_1  and  C_2
REMARK    2  A    between atoms: C_2  and  C_3
REMARK    3  A    between atoms: C_2  and  O_4
REMARK    4  A    between atoms: C_2  and  C_5
REMARK    5  A    between atoms: C_5  and  C_6
REMARK    6  A    between atoms: C_6  and  C_7
REMARK    7  A    between atoms: C_7  and  O_8
REMARK    8  A    between atoms: C_7  and  C_9
REMARK    9  A    between atoms: C_9  and  C_10
REMARK   10  A    between atoms: C_9  and  O_11
REMARK   11  A    between atoms: C_9  and  C_12
REMARK   12  A    between atoms: C_15  and  O_16
REMARK   13  A    between atoms: C_23  and  O_24
REMARK   14  A    between atoms: C_25  and  O_26
REMARK   15  A    between atoms: C_28  and  C_29
REMARK   16  A    between atoms: C_30  and  O_31
REMARK   17  A    between atoms: C_34  and  C_35
REMARK                            x       y       z     vdW  Elec       q    Type
REMARK                         _______ _______ _______ _____ _____    ______ ____
ROOT
ATOM      1  C   UNL     1       2.021  14.544  18.962  0.00  0.00    +0.000 C 
ATOM      2  C   UNL     1       2.468  13.064  18.976  0.00  0.00    +0.000 C 
ATOM      3  C   UNL     1       1.131  12.255  19.076  0.00  0.00    +0.000 C 
ATOM      4  C   UNL     1      -0.014  13.282  19.405  0.00  0.00    +0.000 C 
ATOM      5  C   UNL     1      -1.085  13.116  20.507  0.00  0.00    +0.000 C 
ATOM      6  C   UNL     1      -1.091  11.903  21.087  0.00  0.00    +0.000 C 
ATOM      7  C   UNL     1      -1.563  11.909  22.485  0.00  0.00    +0.000 C 
ATOM      8  O   UNL     1      -0.976  11.227  23.325  0.00  0.00    +0.000 OA
ATOM      9  C   UNL     1      -2.723  12.784  22.730  0.00  0.00    +0.000 C 
ATOM     10  C   UNL     1      -3.578  12.164  23.800  0.00  0.00    +0.000 C 
ATOM     11  C   UNL     1      -4.784  13.038  24.044  0.00  0.00    +0.000 C 
ATOM     12  C   UNL     1      -4.328  14.468  24.381  0.00  0.00    +0.000 C 
ATOM     13  C   UNL     1      -3.632  15.085  23.130  0.00  0.00    +0.000 C 
ATOM     14  C   UNL     1      -2.337  14.296  22.698  0.00  0.00    +0.000 C 
ATOM     15  C   UNL     1      -1.254  14.898  23.664  0.00  0.00    +0.000 C 
ATOM     16  C   UNL     1      -1.842  14.464  21.146  0.00  0.00    +0.000 C 
ATOM     17  C   UNL     1      -1.050  15.776  20.957  0.00  0.00    +0.000 C 
ATOM     18  C   UNL     1      -0.211  15.667  19.726  0.00  0.00    +0.000 C 
ATOM     19  C   UNL     1       0.794  14.504  19.889  0.00  0.00    +0.000 C 
ATOM     20  C   UNL     1       1.302  14.211  21.362  0.00  0.00    +0.000 C 
ENDROOT
BRANCH   1  21
ATOM     21  C   UNL     1       3.064  15.691  19.237  0.00  0.00    +0.000 C 
ATOM     22  C   UNL     1       2.491  17.070  19.644  0.00  0.00    +0.000 C 
BRANCH  21  23
ATOM     23  O   UNL     1       3.870  15.274  20.354  0.00  0.00    +0.000 OA
ATOM     24  H   UNL     1       3.558  14.371  20.561  0.00  0.00    +0.000 HD
ENDBRANCH  21  23
BRANCH  21  25
ATOM     25  C   UNL     1       4.046  15.922  18.012  0.00  0.00    +0.000 C 
BRANCH  25  26
ATOM     26  O   UNL     1       3.809  17.236  17.485  0.00  0.00    +0.000 OA
ATOM     27  H   UNL     1       4.655  17.707  17.454  0.00  0.00    +0.000 HD
ENDBRANCH  25  26
BRANCH  25  28
ATOM     28  C   UNL     1       5.550  15.719  18.371  0.00  0.00    +0.000 C 
BRANCH  28  29
ATOM     29  C   UNL     1       6.289  14.573  17.638  0.00  0.00    +0.000 C 
BRANCH  29  31
ATOM     30  C   UNL     1       8.302  13.038  17.684  0.00  0.00    +0.000 C 
ATOM     31  C   UNL     1       7.784  14.436  18.041  0.00  0.00    +0.000 C 
ATOM     32  C   UNL     1       8.067  14.693  19.531  0.00  0.00    +0.000 C 
BRANCH  31  33
ATOM     33  O   UNL     1       8.518  15.391  17.270  0.00  0.00    +0.000 OA
ATOM     34  H   UNL     1       9.362  15.558  17.725  0.00  0.00    +0.000 HD
ENDBRANCH  31  33
ENDBRANCH  29  31
ENDBRANCH  28  29
ENDBRANCH  25  28
ENDBRANCH  21  25
ENDBRANCH   1  21
BRANCH   4  35
ATOM     35  O   UNL     1      -0.678  13.499  18.157  0.00  0.00    +0.000 OA
ATOM     36  H   UNL     1      -0.162  14.160  17.663  0.00  0.00    +0.000 HD
ENDBRANCH   4  35
BRANCH  11  37
ATOM     37  O   UNL     1      -5.548  12.437  25.078  0.00  0.00    +0.000 OA
ATOM     38  H   UNL     1      -6.412  12.877  25.100  0.00  0.00    +0.000 HD
ENDBRANCH  11  37
BRANCH  12  39
ATOM     39  O   UNL     1      -3.493  14.488  25.548  0.00  0.00    +0.000 OA
ATOM     40  H   UNL     1      -2.890  13.711  25.531  0.00  0.00    +0.000 HD
ENDBRANCH  12  39
BRANCH  16  41
ATOM     41  O   UNL     1      -3.034  14.630  20.336  0.00  0.00    +0.000 OA
ATOM     42  H   UNL     1      -3.221  13.801  19.847  0.00  0.00    +0.000 HD
ENDBRANCH  16  41
TORSDOF 12
ENDMDL
MODEL 5
REMARK VINA RESULT:      -6.2      1.762      2.401
REMARK  Name = 
REMARK  17 active torsions:
REMARK  status: ('A' for Active; 'I' for Inactive)
REMARK    1  A    between atoms: C_1  and  C_2
REMARK    2  A    between atoms: C_2  and  C_3
REMARK    3  A    between atoms: C_2  and  O_4
REMARK    4  A    between atoms: C_2  and  C_5
REMARK    5  A    between atoms: C_5  and  C_6
REMARK    6  A    between atoms: C_6  and  C_7
REMARK    7  A    between atoms: C_7  and  O_8
REMARK    8  A    between atoms: C_7  and  C_9
REMARK    9  A    between atoms: C_9  and  C_10
REMARK   10  A    between atoms: C_9  and  O_11
REMARK   11  A    between atoms: C_9  and  C_12
REMARK   12  A    between atoms: C_15  and  O_16
REMARK   13  A    between atoms: C_23  and  O_24
REMARK   14  A    between atoms: C_25  and  O_26
REMARK   15  A    between atoms: C_28  and  C_29
REMARK   16  A    between atoms: C_30  and  O_31
REMARK   17  A    between atoms: C_34  and  C_35
REMARK                            x       y       z     vdW  Elec       q    Type
REMARK                         _______ _______ _______ _____ _____    ______ ____
ROOT
ATOM      1  C   UNL     1       1.854  14.320  18.350  0.00  0.00    +0.000 C 
ATOM      2  C   UNL     1       2.417  12.882  18.444  0.00  0.00    +0.000 C 
ATOM      3  C   UNL     1       1.157  11.987  18.699  0.00  0.00    +0.000 C 
ATOM      4  C   UNL     1      -0.041  12.950  19.030  0.00  0.00    +0.000 C 
ATOM      5  C   UNL     1      -1.023  12.795  20.215  0.00  0.00    +0.000 C 
ATOM      6  C   UNL     1      -0.896  11.636  20.883  0.00  0.00    +0.000 C 
ATOM      7  C   UNL     1      -1.276  11.721  22.306  0.00  0.00    +0.000 C 
ATOM      8  O   UNL     1      -0.583  11.153  23.153  0.00  0.00    +0.000 OA
ATOM      9  C   UNL     1      -2.482  12.524  22.566  0.00  0.00    +0.000 C 
ATOM     10  C   UNL     1      -3.215  11.932  23.737  0.00  0.00    +0.000 C 
ATOM     11  C   UNL     1      -4.468  12.731  23.999  0.00  0.00    +0.000 C 
ATOM     12  C   UNL     1      -4.105  14.214  24.194  0.00  0.00    +0.000 C 
ATOM     13  C   UNL     1      -3.543  14.777  22.854  0.00  0.00    +0.000 C 
ATOM     14  C   UNL     1      -2.220  14.054  22.393  0.00  0.00    +0.000 C 
ATOM     15  C   UNL     1      -1.128  14.809  23.232  0.00  0.00    +0.000 C 
ATOM     16  C   UNL     1      -1.841  14.131  20.801  0.00  0.00    +0.000 C 
ATOM     17  C   UNL     1      -1.169  15.479  20.458  0.00  0.00    +0.000 C 
ATOM     18  C   UNL     1      -0.405  15.333  19.182  0.00  0.00    +0.000 C 
ATOM     19  C   UNL     1       0.697  14.264  19.362  0.00  0.00    +0.000 C 
ATOM     20  C   UNL     1       1.321  14.129  20.814  0.00  0.00    +0.000 C 
ENDROOT
BRANCH   1  21
ATOM     21  C   UNL     1       2.820  15.559  18.463  0.00  0.00    +0.000 C 
ATOM     22  C   UNL     1       4.082  15.540  17.569  0.00  0.00    +0.000 C 
BRANCH  21  23
ATOM     23  O   UNL     1       2.077  16.717  18.042  0.00  0.00    +0.000 OA
ATOM     24  H   UNL     1       2.147  17.342  18.791  0.00  0.00    +0.000 HD
ENDBRANCH  21  23
BRANCH  21  25
ATOM     25  C   UNL     1       3.291  15.823  19.954  0.00  0.00    +0.000 C 
BRANCH  25  26
ATOM     26  O   UNL     1       4.648  15.372  20.085  0.00  0.00    +0.000 OA
ATOM     27  H   UNL     1       5.175  15.788  19.386  0.00  0.00    +0.000 HD
ENDBRANCH  25  26
BRANCH  25  28
ATOM     28  C   UNL     1       3.144  17.309  20.402  0.00  0.00    +0.000 C 
BRANCH  28  29
ATOM     29  C   UNL     1       3.667  17.662  21.816  0.00  0.00    +0.000 C 
BRANCH  29  31
ATOM     30  C   UNL     1       1.198  17.754  22.373  0.00  0.00    +0.000 C 
ATOM     31  C   UNL     1       2.601  17.493  22.935  0.00  0.00    +0.000 C 
ATOM     32  C   UNL     1       2.812  18.405  24.156  0.00  0.00    +0.000 C 
BRANCH  31  33
ATOM     33  O   UNL     1       2.658  16.133  23.371  0.00  0.00    +0.000 OA
ATOM     34  H   UNL     1       2.419  16.111  24.314  0.00  0.00    +0.000 HD
ENDBRANCH  31  33
ENDBRANCH  29  31
ENDBRANCH  28  29
ENDBRANCH  25  28
ENDBRANCH  21  25
ENDBRANCH   1  21
BRANCH   4  35
ATOM     35  O   UNL     1      -0.800  13.016  17.819  0.00  0.00    +0.000 OA
ATOM     36  H   UNL     1      -0.215  12.736  17.094  0.00  0.00    +0.000 HD
ENDBRANCH   4  35
BRANCH  11  37
ATOM     37  O   UNL     1      -5.113  12.161  25.127  0.00  0.00    +0.000 OA
ATOM     38  H   UNL     1      -4.426  11.791  25.704  0.00  0.00    +0.000 HD
ENDBRANCH  11  37
BRANCH  12  39
ATOM     39  O   UNL     1      -3.200  14.389  25.294  0.00  0.00    +0.000 OA
ATOM     40  H   UNL     1      -2.471  14.991  25.025  0.00  0.00    +0.000 HD
ENDBRANCH  12  39
BRANCH  16  41
ATOM     41  O   UNL     1      -3.092  14.143  20.067  0.00  0.00    +0.000 OA
ATOM     42  H   UNL     1      -3.138  13.361  19.477  0.00  0.00    +0.000 HD
ENDBRANCH  16  41
TORSDOF 12
ENDMDL
MODEL 6
REMARK VINA RESULT:      -6.1      3.071      7.981
REMARK  Name = 
REMARK  17 active torsions:
REMARK  status: ('A' for Active; 'I' for Inactive)
REMARK    1  A    between atoms: C_1  and  C_2
REMARK    2  A    between atoms: C_2  and  C_3
REMARK    3  A    between atoms: C_2  and  O_4
REMARK    4  A    between atoms: C_2  and  C_5
REMARK    5  A    between atoms: C_5  and  C_6
REMARK    6  A    between atoms: C_6  and  C_7
REMARK    7  A    between atoms: C_7  and  O_8
REMARK    8  A    between atoms: C_7  and  C_9
REMARK    9  A    between atoms: C_9  and  C_10
REMARK   10  A    between atoms: C_9  and  O_11
REMARK   11  A    between atoms: C_9  and  C_12
REMARK   12  A    between atoms: C_15  and  O_16
REMARK   13  A    between atoms: C_23  and  O_24
REMARK   14  A    between atoms: C_25  and  O_26
REMARK   15  A    between atoms: C_28  and  C_29
REMARK   16  A    between atoms: C_30  and  O_31
REMARK   17  A    between atoms: C_34  and  C_35
REMARK                            x       y       z     vdW  Elec       q    Type
REMARK                         _______ _______ _______ _____ _____    ______ ____
ROOT
ATOM      1  C   UNL     1      -1.592  10.348  18.489  0.00  0.00    +0.000 C 
ATOM      2  C   UNL     1      -0.321   9.733  17.858  0.00  0.00    +0.000 C 
ATOM      3  C   UNL     1       0.853  10.275  18.740  0.00  0.00    +0.000 C 
ATOM      4  C   UNL     1       0.262  11.403  19.663  0.00  0.00    +0.000 C 
ATOM      5  C   UNL     1       0.878  12.805  19.883  0.00  0.00    +0.000 C 
ATOM      6  C   UNL     1       2.102  12.954  19.348  0.00  0.00    +0.000 C 
ATOM      7  C   UNL     1       2.416  14.339  18.948  0.00  0.00    +0.000 C 
ATOM      8  O   UNL     1       2.996  14.544  17.881  0.00  0.00    +0.000 OA
ATOM      9  C   UNL     1       1.962  15.365  19.902  0.00  0.00    +0.000 C 
ATOM     10  C   UNL     1       2.939  16.507  19.885  0.00  0.00    +0.000 C 
ATOM     11  C   UNL     1       2.500  17.555  20.878  0.00  0.00    +0.000 C 
ATOM     12  C   UNL     1       1.055  17.985  20.572  0.00  0.00    +0.000 C 
ATOM     13  C   UNL     1       0.104  16.775  20.820  0.00  0.00    +0.000 C 
ATOM     14  C   UNL     1       0.412  15.551  19.876  0.00  0.00    +0.000 C 
ATOM     15  C   UNL     1      -0.353  15.953  18.564  0.00  0.00    +0.000 C 
ATOM     16  C   UNL     1      -0.092  14.075  20.375  0.00  0.00    +0.000 C 
ATOM     17  C   UNL     1      -1.593  13.872  20.071  0.00  0.00    +0.000 C 
ATOM     18  C   UNL     1      -1.897  12.409  20.064  0.00  0.00    +0.000 C 
ATOM     19  C   UNL     1      -1.072  11.718  18.955  0.00  0.00    +0.000 C 
ATOM     20  C   UNL     1      -0.756  12.586  17.665  0.00  0.00    +0.000 C 
ENDROOT
BRANCH   1  21
ATOM     21  C   UNL     1      -2.951  10.352  17.693  0.00  0.00    +0.000 C 
ATOM     22  C   UNL     1      -2.852  10.303  16.150  0.00  0.00    +0.000 C 
BRANCH  21  23
ATOM     23  O   UNL     1      -3.664   9.157  18.062  0.00  0.00    +0.000 OA
ATOM     24  H   UNL     1      -4.087   8.855  17.234  0.00  0.00    +0.000 HD
ENDBRANCH  21  23
BRANCH  21  25
ATOM     25  C   UNL     1      -3.872  11.584  18.077  0.00  0.00    +0.000 C 
BRANCH  25  26
ATOM     26  O   UNL     1      -4.178  12.310  16.877  0.00  0.00    +0.000 OA
ATOM     27  H   UNL     1      -3.985  13.247  17.032  0.00  0.00    +0.000 HD
ENDBRANCH  25  26
BRANCH  25  28
ATOM     28  C   UNL     1      -5.171  11.179  18.839  0.00  0.00    +0.000 C 
BRANCH  28  29
ATOM     29  C   UNL     1      -5.645  12.138  19.958  0.00  0.00    +0.000 C 
BRANCH  29  31
ATOM     30  C   UNL     1      -7.287  13.945  20.630  0.00  0.00    +0.000 C 
ATOM     31  C   UNL     1      -6.561  13.286  19.450  0.00  0.00    +0.000 C 
ATOM     32  C   UNL     1      -7.613  12.850  18.415  0.00  0.00    +0.000 C 
BRANCH  31  33
ATOM     33  O   UNL     1      -5.714  14.267  18.848  0.00  0.00    +0.000 OA
ATOM     34  H   UNL     1      -6.202  14.673  18.110  0.00  0.00    +0.000 HD
ENDBRANCH  31  33
ENDBRANCH  29  31
ENDBRANCH  28  29
ENDBRANCH  25  28
ENDBRANCH  21  25
ENDBRANCH   1  21
BRANCH   4  35
ATOM     35  O   UNL     1       0.093  10.778  20.939  0.00  0.00    +0.000 OA
ATOM     36  H   UNL     1       0.716  11.200  21.555  0.00  0.00    +0.000 HD
ENDBRANCH   4  35
BRANCH  11  37
ATOM     37  O   UNL     1       3.428  18.627  20.809  0.00  0.00    +0.000 OA
ATOM     38  H   UNL     1       3.052  19.374  21.302  0.00  0.00    +0.000 HD
ENDBRANCH  11  37
BRANCH  12  39
ATOM     39  O   UNL     1       0.939  18.520  19.246  0.00  0.00    +0.000 OA
ATOM     40  H   UNL     1       0.151  19.107  19.198  0.00  0.00    +0.000 HD
ENDBRANCH  12  39
BRANCH  16  41
ATOM     41  O   UNL     1      -0.001  14.063  21.823  0.00  0.00    +0.000 OA
ATOM     42  H   UNL     1      -0.392  14.885  22.187  0.00  0.00    +0.000 HD
ENDBRANCH  16  41
TORSDOF 12
ENDMDL
MODEL 7
REMARK VINA RESULT:      -6.0      3.258      6.219
REMARK  Name = 
REMARK  17 active torsions:
REMARK  status: ('A' for Active; 'I' for Inactive)
REMARK    1  A    between atoms: C_1  and  C_2
REMARK    2  A    between atoms: C_2  and  C_3
REMARK    3  A    between atoms: C_2  and  O_4
REMARK    4  A    between atoms: C_2  and  C_5
REMARK    5  A    between atoms: C_5  and  C_6
REMARK    6  A    between atoms: C_6  and  C_7
REMARK    7  A    between atoms: C_7  and  O_8
REMARK    8  A    between atoms: C_7  and  C_9
REMARK    9  A    between atoms: C_9  and  C_10
REMARK   10  A    between atoms: C_9  and  O_11
REMARK   11  A    between atoms: C_9  and  C_12
REMARK   12  A    between atoms: C_15  and  O_16
REMARK   13  A    between atoms: C_23  and  O_24
REMARK   14  A    between atoms: C_25  and  O_26
REMARK   15  A    between atoms: C_28  and  C_29
REMARK   16  A    between atoms: C_30  and  O_31
REMARK   17  A    between atoms: C_34  and  C_35
REMARK                            x       y       z     vdW  Elec       q    Type
REMARK                         _______ _______ _______ _____ _____    ______ ____
ROOT
ATOM      1  C   UNL     1       1.353  11.745  19.320  0.00  0.00    +0.000 C 
ATOM      2  C   UNL     1       1.684  12.961  18.424  0.00  0.00    +0.000 C 
ATOM      3  C   UNL     1       1.529  14.197  19.373  0.00  0.00    +0.000 C 
ATOM      4  C   UNL     1       0.841  13.690  20.694  0.00  0.00    +0.000 C 
ATOM      5  C   UNL     1      -0.364  14.356  21.396  0.00  0.00    +0.000 C 
ATOM      6  C   UNL     1      -0.703  15.553  20.886  0.00  0.00    +0.000 C 
ATOM      7  C   UNL     1      -2.133  15.883  21.030  0.00  0.00    +0.000 C 
ATOM      8  O   UNL     1      -2.731  16.410  20.091  0.00  0.00    +0.000 OA
ATOM      9  C   UNL     1      -2.714  15.512  22.332  0.00  0.00    +0.000 C 
ATOM     10  C   UNL     1      -3.770  16.519  22.695  0.00  0.00    +0.000 C 
ATOM     11  C   UNL     1      -4.356  16.165  24.040  0.00  0.00    +0.000 C 
ATOM     12  C   UNL     1      -4.877  14.718  24.012  0.00  0.00    +0.000 C 
ATOM     13  C   UNL     1      -3.671  13.748  23.834  0.00  0.00    +0.000 C 
ATOM     14  C   UNL     1      -2.904  13.969  22.475  0.00  0.00    +0.000 C 
ATOM     15  C   UNL     1      -3.784  13.145  21.468  0.00  0.00    +0.000 C 
ATOM     16  C   UNL     1      -1.352  13.451  22.398  0.00  0.00    +0.000 C 
ATOM     17  C   UNL     1      -1.289  11.931  22.133  0.00  0.00    +0.000 C 
ATOM     18  C   UNL     1       0.056  11.586  21.583  0.00  0.00    +0.000 C 
ATOM     19  C   UNL     1       0.270  12.328  20.244  0.00  0.00    +0.000 C 
ATOM     20  C   UNL     1      -1.026  12.598  19.371  0.00  0.00    +0.000 C 
ENDROOT
BRANCH   1  21
ATOM     21  C   UNL     1       1.036  10.345  18.672  0.00  0.00    +0.000 C 
ATOM     22  C   UNL     1      -0.443  10.064  18.316  0.00  0.00    +0.000 C 
BRANCH  21  23
ATOM     23  O   UNL     1       1.743  10.286  17.420  0.00  0.00    +0.000 OA
ATOM     24  H   UNL     1       1.619  11.171  17.023  0.00  0.00    +0.000 HD
ENDBRANCH  21  23
BRANCH  21  25
ATOM     25  C   UNL     1       1.554   9.137  19.560  0.00  0.00    +0.000 C 
BRANCH  25  26
ATOM     26  O   UNL     1       0.475   8.699  20.400  0.00  0.00    +0.000 OA
ATOM     27  H   UNL     1       0.818   8.026  21.008  0.00  0.00    +0.000 HD
ENDBRANCH  25  26
BRANCH  25  28
ATOM     28  C   UNL     1       2.138   7.955  18.727  0.00  0.00    +0.000 C 
BRANCH  28  29
ATOM     29  C   UNL     1       2.510   6.673  19.510  0.00  0.00    +0.000 C 
BRANCH  29  31
ATOM     30  C   UNL     1       4.051   6.067  17.594  0.00  0.00    +0.000 C 
ATOM     31  C   UNL     1       3.038   5.522  18.608  0.00  0.00    +0.000 C 
ATOM     32  C   UNL     1       1.943   4.762  17.840  0.00  0.00    +0.000 C 
BRANCH  31  33
ATOM     33  O   UNL     1       3.718   4.597  19.459  0.00  0.00    +0.000 OA
ATOM     34  H   UNL     1       4.327   5.102  20.026  0.00  0.00    +0.000 HD
ENDBRANCH  31  33
ENDBRANCH  29  31
ENDBRANCH  28  29
ENDBRANCH  25  28
ENDBRANCH  21  25
ENDBRANCH   1  21
BRANCH   4  35
ATOM     35  O   UNL     1       1.909  13.573  21.638  0.00  0.00    +0.000 OA
ATOM     36  H   UNL     1       1.980  12.634  21.882  0.00  0.00    +0.000 HD
ENDBRANCH   4  35
BRANCH  11  37
ATOM     37  O   UNL     1      -5.367  17.118  24.331  0.00  0.00    +0.000 OA
ATOM     38  H   UNL     1      -5.184  17.480  25.213  0.00  0.00    +0.000 HD
ENDBRANCH  11  37
BRANCH  12  39
ATOM     39  O   UNL     1      -5.884  14.545  23.004  0.00  0.00    +0.000 OA
ATOM     40  H   UNL     1      -6.635  15.154  23.184  0.00  0.00    +0.000 HD
ENDBRANCH  12  39
BRANCH  16  41
ATOM     41  O   UNL     1      -0.782  13.621  23.721  0.00  0.00    +0.000 OA
ATOM     42  H   UNL     1       0.092  13.180  23.765  0.00  0.00    +0.000 HD
ENDBRANCH  16  41
TORSDOF 12
ENDMDL
MODEL 8
REMARK VINA RESULT:      -6.0      1.203      1.503
REMARK  Name = 
REMARK  17 active torsions:
REMARK  status: ('A' for Active; 'I' for Inactive)
REMARK    1  A    between atoms: C_1  and  C_2
REMARK    2  A    between atoms: C_2  and  C_3
REMARK    3  A    between atoms: C_2  and  O_4
REMARK    4  A    between atoms: C_2  and  C_5
REMARK    5  A    between atoms: C_5  and  C_6
REMARK    6  A    between atoms: C_6  and  C_7
REMARK    7  A    between atoms: C_7  and  O_8
REMARK    8  A    between atoms: C_7  and  C_9
REMARK    9  A    between atoms: C_9  and  C_10
REMARK   10  A    between atoms: C_9  and  O_11
REMARK   11  A    between atoms: C_9  and  C_12
REMARK   12  A    between atoms: C_15  and  O_16
REMARK   13  A    between atoms: C_23  and  O_24
REMARK   14  A    between atoms: C_25  and  O_26
REMARK   15  A    between atoms: C_28  and  C_29
REMARK   16  A    between atoms: C_30  and  O_31
REMARK   17  A    between atoms: C_34  and  C_35
REMARK                            x       y       z     vdW  Elec       q    Type
REMARK                         _______ _______ _______ _____ _____    ______ ____
ROOT
ATOM      1  C   UNL     1       2.009  13.979  18.728  0.00  0.00    +0.000 C 
ATOM      2  C   UNL     1       2.230  12.448  18.719  0.00  0.00    +0.000 C 
ATOM      3  C   UNL     1       0.788  11.846  18.822  0.00  0.00    +0.000 C 
ATOM      4  C   UNL     1      -0.188  13.028  19.174  0.00  0.00    +0.000 C 
ATOM      5  C   UNL     1      -1.264  13.009  20.285  0.00  0.00    +0.000 C 
ATOM      6  C   UNL     1      -1.447  11.803  20.850  0.00  0.00    +0.000 C 
ATOM      7  C   UNL     1      -1.902  11.860  22.251  0.00  0.00    +0.000 C 
ATOM      8  O   UNL     1      -1.417  11.086  23.078  0.00  0.00    +0.000 OA
ATOM      9  C   UNL     1      -2.916  12.894  22.519  0.00  0.00    +0.000 C 
ATOM     10  C   UNL     1      -3.846  12.394  23.589  0.00  0.00    +0.000 C 
ATOM     11  C   UNL     1      -4.907  13.435  23.855  0.00  0.00    +0.000 C 
ATOM     12  C   UNL     1      -4.239  14.776  24.205  0.00  0.00    +0.000 C 
ATOM     13  C   UNL     1      -3.469  15.300  22.956  0.00  0.00    +0.000 C 
ATOM     14  C   UNL     1      -2.310  14.333  22.502  0.00  0.00    +0.000 C 
ATOM     15  C   UNL     1      -1.142  14.752  23.465  0.00  0.00    +0.000 C 
ATOM     16  C   UNL     1      -1.807  14.445  20.947  0.00  0.00    +0.000 C 
ATOM     17  C   UNL     1      -0.829  15.627  20.768  0.00  0.00    +0.000 C 
ATOM     18  C   UNL     1      -0.025  15.412  19.527  0.00  0.00    +0.000 C 
ATOM     19  C   UNL     1       0.796  14.110  19.666  0.00  0.00    +0.000 C 
ATOM     20  C   UNL     1       1.267  13.724  21.131  0.00  0.00    +0.000 C 
ENDROOT
BRANCH   1  21
ATOM     21  C   UNL     1       3.214  14.953  19.007  0.00  0.00    +0.000 C 
ATOM     22  C   UNL     1       2.858  16.421  19.343  0.00  0.00    +0.000 C 
BRANCH  21  23
ATOM     23  O   UNL     1       3.901  14.457  20.170  0.00  0.00    +0.000 OA
ATOM     24  H   UNL     1       4.840  14.406  19.900  0.00  0.00    +0.000 HD
ENDBRANCH  21  23
BRANCH  21  25
ATOM     25  C   UNL     1       4.263  14.974  17.818  0.00  0.00    +0.000 C 
BRANCH  25  26
ATOM     26  O   UNL     1       3.653  15.618  16.689  0.00  0.00    +0.000 OA
ATOM     27  H   UNL     1       3.855  15.097  15.897  0.00  0.00    +0.000 HD
ENDBRANCH  25  26
BRANCH  25  28
ATOM     28  C   UNL     1       5.617  15.650  18.191  0.00  0.00    +0.000 C 
BRANCH  28  29
ATOM     29  C   UNL     1       6.901  14.837  17.898  0.00  0.00    +0.000 C 
BRANCH  29  31
ATOM     30  C   UNL     1       7.324  15.431  20.324  0.00  0.00    +0.000 C 
ATOM     31  C   UNL     1       7.967  14.924  19.027  0.00  0.00    +0.000 C 
ATOM     32  C   UNL     1       9.170  15.826  18.698  0.00  0.00    +0.000 C 
BRANCH  31  33
ATOM     33  O   UNL     1       8.446  13.598  19.259  0.00  0.00    +0.000 OA
ATOM     34  H   UNL     1       9.360  13.547  18.927  0.00  0.00    +0.000 HD
ENDBRANCH  31  33
ENDBRANCH  29  31
ENDBRANCH  28  29
ENDBRANCH  25  28
ENDBRANCH  21  25
ENDBRANCH   1  21
BRANCH   4  35
ATOM     35  O   UNL     1      -0.822  13.359  17.935  0.00  0.00    +0.000 OA
ATOM     36  H   UNL     1      -0.415  14.181  17.611  0.00  0.00    +0.000 HD
ENDBRANCH   4  35
BRANCH  11  37
ATOM     37  O   UNL     1      -5.744  12.940  24.889  0.00  0.00    +0.000 OA
ATOM     38  H   UNL     1      -5.567  11.990  24.982  0.00  0.00    +0.000 HD
ENDBRANCH  11  37
BRANCH  12  39
ATOM     39  O   UNL     1      -3.402  14.655  25.365  0.00  0.00    +0.000 OA
ATOM     40  H   UNL     1      -2.760  13.922  25.229  0.00  0.00    +0.000 HD
ENDBRANCH  12  39
BRANCH  16  41
ATOM     41  O   UNL     1      -2.966  14.799  20.151  0.00  0.00    +0.000 OA
ATOM     42  H   UNL     1      -3.434  15.555  20.563  0.00  0.00    +0.000 HD
ENDBRANCH  16  41
TORSDOF 12
ENDMDL
MODEL 9
REMARK VINA RESULT:      -6.0      4.107      6.062
REMARK  Name = 
REMARK  17 active torsions:
REMARK  status: ('A' for Active; 'I' for Inactive)
REMARK    1  A    between atoms: C_1  and  C_2
REMARK    2  A    between atoms: C_2  and  C_3
REMARK    3  A    between atoms: C_2  and  O_4
REMARK    4  A    between atoms: C_2  and  C_5
REMARK    5  A    between atoms: C_5  and  C_6
REMARK    6  A    between atoms: C_6  and  C_7
REMARK    7  A    between atoms: C_7  and  O_8
REMARK    8  A    between atoms: C_7  and  C_9
REMARK    9  A    between atoms: C_9  and  C_10
REMARK   10  A    between atoms: C_9  and  O_11
REMARK   11  A    between atoms: C_9  and  C_12
REMARK   12  A    between atoms: C_15  and  O_16
REMARK   13  A    between atoms: C_23  and  O_24
REMARK   14  A    between atoms: C_25  and  O_26
REMARK   15  A    between atoms: C_28  and  C_29
REMARK   16  A    between atoms: C_30  and  O_31
REMARK   17  A    between atoms: C_34  and  C_35
REMARK                            x       y       z     vdW  Elec       q    Type
REMARK                         _______ _______ _______ _____ _____    ______ ____
ROOT
ATOM      1  C   UNL     1      -0.241  10.578  18.773  0.00  0.00    +0.000 C 
ATOM      2  C   UNL     1      -1.548  10.014  18.168  0.00  0.00    +0.000 C 
ATOM      3  C   UNL     1      -2.543  11.222  18.193  0.00  0.00    +0.000 C 
ATOM      4  C   UNL     1      -1.884  12.352  19.067  0.00  0.00    +0.000 C 
ATOM      5  C   UNL     1      -2.583  13.140  20.200  0.00  0.00    +0.000 C 
ATOM      6  C   UNL     1      -3.905  12.916  20.288  0.00  0.00    +0.000 C 
ATOM      7  C   UNL     1      -4.450  13.072  21.649  0.00  0.00    +0.000 C 
ATOM      8  O   UNL     1      -5.276  12.259  22.068  0.00  0.00    +0.000 OA
ATOM      9  C   UNL     1      -3.906  14.221  22.393  0.00  0.00    +0.000 C 
ATOM     10  C   UNL     1      -4.980  14.766  23.293  0.00  0.00    +0.000 C 
ATOM     11  C   UNL     1      -4.444  15.961  24.043  0.00  0.00    +0.000 C 
ATOM     12  C   UNL     1      -3.161  15.567  24.795  0.00  0.00    +0.000 C 
ATOM     13  C   UNL     1      -2.053  15.215  23.757  0.00  0.00    +0.000 C 
ATOM     14  C   UNL     1      -2.432  13.982  22.850  0.00  0.00    +0.000 C 
ATOM     15  C   UNL     1      -2.033  12.771  23.767  0.00  0.00    +0.000 C 
ATOM     16  C   UNL     1      -1.670  13.853  21.406  0.00  0.00    +0.000 C 
ATOM     17  C   UNL     1      -0.265  13.236  21.577  0.00  0.00    +0.000 C 
ATOM     18  C   UNL     1       0.187  12.678  20.267  0.00  0.00    +0.000 C 
ATOM     19  C   UNL     1      -0.788  11.567  19.817  0.00  0.00    +0.000 C 
ATOM     20  C   UNL     1      -1.482  10.726  20.971  0.00  0.00    +0.000 C 
ENDROOT
BRANCH   1  21
ATOM     21  C   UNL     1       0.893   9.602  19.264  0.00  0.00    +0.000 C 
ATOM     22  C   UNL     1       1.971  10.203  20.196  0.00  0.00    +0.000 C 
BRANCH  21  23
ATOM     23  O   UNL     1       0.258   8.569  20.039  0.00  0.00    +0.000 OA
ATOM     24  H   UNL     1       0.775   7.761  19.847  0.00  0.00    +0.000 HD
ENDBRANCH  21  23
BRANCH  21  25
ATOM     25  C   UNL     1       1.640   8.890  18.060  0.00  0.00    +0.000 C 
BRANCH  25  26
ATOM     26  O   UNL     1       2.206   9.905  17.217  0.00  0.00    +0.000 OA
ATOM     27  H   UNL     1       3.098  10.107  17.542  0.00  0.00    +0.000 HD
ENDBRANCH  25  26
BRANCH  25  28
ATOM     28  C   UNL     1       2.724   7.865  18.516  0.00  0.00    +0.000 C 
BRANCH  28  29
ATOM     29  C   UNL     1       2.426   6.372  18.236  0.00  0.00    +0.000 C 
BRANCH  29  31
ATOM     30  C   UNL     1       3.884   4.888  19.680  0.00  0.00    +0.000 C 
ATOM     31  C   UNL     1       2.479   5.477  19.505  0.00  0.00    +0.000 C 
ATOM     32  C   UNL     1       1.464   4.320  19.510  0.00  0.00    +0.000 C 
BRANCH  31  33
ATOM     33  O   UNL     1       2.209   6.319  20.628  0.00  0.00    +0.000 OA
ATOM     34  H   UNL     1       1.941   7.192  20.291  0.00  0.00    +0.000 HD
ENDBRANCH  31  33
ENDBRANCH  29  31
ENDBRANCH  28  29
ENDBRANCH  25  28
ENDBRANCH  21  25
ENDBRANCH   1  21
BRANCH   4  35
ATOM     35  O   UNL     1      -1.362  13.287  18.119  0.00  0.00    +0.000 OA
ATOM     36  H   UNL     1      -2.032  13.982  17.996  0.00  0.00    +0.000 HD
ENDBRANCH   4  35
BRANCH  11  37
ATOM     37  O   UNL     1      -5.474  16.427  24.900  0.00  0.00    +0.000 OA
ATOM     38  H   UNL     1      -6.106  16.926  24.358  0.00  0.00    +0.000 HD
ENDBRANCH  11  37
BRANCH  12  39
ATOM     39  O   UNL     1      -3.409  14.503  25.726  0.00  0.00    +0.000 OA
ATOM     40  H   UNL     1      -2.555  14.086  25.981  0.00  0.00    +0.000 HD
ENDBRANCH  12  39
BRANCH  16  41
ATOM     41  O   UNL     1      -1.429  15.202  20.932  0.00  0.00    +0.000 OA
ATOM     42  H   UNL     1      -1.837  15.321  20.048  0.00  0.00    +0.000 HD
ENDBRANCH  16  41
TORSDOF 12
ENDMDL
