MODEL 1
REMARK VINA RESULT:      -6.3      0.000      0.000
REMARK  Name = 
REMARK  14 active torsions:
REMARK  status: ('A' for Active; 'I' for Inactive)
REMARK    1  A    between atoms: C_1  and  C_2
REMARK    2  A    between atoms: C_2  and  C_3
REMARK    3  A    between atoms: C_3  and  N_4
REMARK    4  A    between atoms: N_4  and  C_5
REMARK    5  A    between atoms: C_5  and  C_6
REMARK    6  A    between atoms: C_6  and  C_7
REMARK    7  A    between atoms: C_7  and  N_8
REMARK    8  A    between atoms: N_8  and  C_9
REMARK    9  A    between atoms: C_9  and  N_11
REMARK   10  A    between atoms: N_11  and  C_12
REMARK   11  A    between atoms: C_14  and  O_15
REMARK   12  A    between atoms: O_15  and  C_16
REMARK   13  A    between atoms: C_20  and  O_21
REMARK   14  A    between atoms: O_21  and  C_22
REMARK                            x       y       z     vdW  Elec       q    Type
REMARK                         _______ _______ _______ _____ _____    ______ ____
ROOT
ATOM      1  N   UNL     1       2.760   3.962  17.883  0.00  0.00    +0.000 N 
ATOM      2  H   UNL     1       2.089   3.643  17.205  0.00  0.00    +0.000 HD
ENDROOT
BRANCH   1   3
ATOM      3  C   UNL     1       2.375   4.998  18.766  0.00  0.00    +0.000 A 
ATOM      4  C   UNL     1       2.565   6.317  18.305  0.00  0.00    +0.000 A 
ATOM      5  C   UNL     1       2.290   7.455  19.074  0.00  0.00    +0.000 A 
ATOM      6  C   UNL     1       1.768   7.262  20.349  0.00  0.00    +0.000 A 
ATOM      7 CL   UNL     1       1.401   8.510  21.481  0.00  0.00    +0.000 Cl
ATOM      8  C   UNL     1       1.498   5.955  20.788  0.00  0.00    +0.000 A 
ATOM      9  C   UNL     1       1.771   4.810  20.012  0.00  0.00    +0.000 A 
BRANCH   5  10
ATOM     10  O   UNL     1       2.598   8.593  18.386  0.00  0.00    +0.000 OA
ATOM     11  C   UNL     1       1.588   9.377  17.787  0.00  0.00    +0.000 C 
ENDBRANCH   5  10
BRANCH   9  12
ATOM     12  O   UNL     1       1.409   3.682  20.686  0.00  0.00    +0.000 OA
ATOM     13  C   UNL     1       2.181   3.155  21.749  0.00  0.00    +0.000 C 
ENDBRANCH   9  12
ENDBRANCH   1   3
BRANCH   1  14
ATOM     14  C   UNL     1       3.750   3.010  18.118  0.00  0.00    +0.000 C 
ATOM     15  S   UNL     1       3.501   1.433  18.632  0.00  0.00    +0.000 S 
BRANCH  14  16
ATOM     16  N   UNL     1       4.980   3.530  17.760  0.00  0.00    +0.000 N 
ATOM     17  H   UNL     1       5.308   3.298  16.830  0.00  0.00    +0.000 HD
BRANCH  16  18
ATOM     18  C   UNL     1       5.745   4.528  18.493  0.00  0.00    +0.000 C 
BRANCH  18  19
ATOM     19  C   UNL     1       7.119   4.713  17.854  0.00  0.00    +0.000 C 
BRANCH  19  20
ATOM     20  C   UNL     1       7.221   6.106  17.239  0.00  0.00    +0.000 C 
BRANCH  20  21
ATOM     21  N   UNL     1       7.386   6.018  15.789  0.00  0.00    +0.000 NA
ATOM     22  H   UNL     1       6.736   6.662  15.327  0.00  0.00    +0.000 HD
BRANCH  21  23
ATOM     23  C   UNL     1       7.123   4.650  15.338  0.00  0.00    +0.000 C 
BRANCH  23  25
ATOM     24  C   UNL     1       6.064   3.709  13.264  0.00  0.00    +0.000 C 
ATOM     25  C   UNL     1       5.863   4.605  14.478  0.00  0.00    +0.000 C 
ENDBRANCH  23  25
ENDBRANCH  21  23
ENDBRANCH  20  21
ENDBRANCH  19  20
ENDBRANCH  18  19
ENDBRANCH  16  18
ENDBRANCH  14  16
ENDBRANCH   1  14
TORSDOF 11
ENDMDL
MODEL 2
REMARK VINA RESULT:      -6.2      0.845      1.178
REMARK  Name = 
REMARK  14 active torsions:
REMARK  status: ('A' for Active; 'I' for Inactive)
REMARK    1  A    between atoms: C_1  and  C_2
REMARK    2  A    between atoms: C_2  and  C_3
REMARK    3  A    between atoms: C_3  and  N_4
REMARK    4  A    between atoms: N_4  and  C_5
REMARK    5  A    between atoms: C_5  and  C_6
REMARK    6  A    between atoms: C_6  and  C_7
REMARK    7  A    between atoms: C_7  and  N_8
REMARK    8  A    between atoms: N_8  and  C_9
REMARK    9  A    between atoms: C_9  and  N_11
REMARK   10  A    between atoms: N_11  and  C_12
REMARK   11  A    between atoms: C_14  and  O_15
REMARK   12  A    between atoms: O_15  and  C_16
REMARK   13  A    between atoms: C_20  and  O_21
REMARK   14  A    between atoms: O_21  and  C_22
REMARK                            x       y       z     vdW  Elec       q    Type
REMARK                         _______ _______ _______ _____ _____    ______ ____
ROOT
ATOM      1  N   UNL     1       3.009   4.172  17.563  0.00  0.00    +0.000 N 
ATOM      2  H   UNL     1       2.443   4.014  16.748  0.00  0.00    +0.000 HD
ENDROOT
BRANCH   1   3
ATOM      3  C   UNL     1       2.570   5.134  18.504  0.00  0.00    +0.000 A 
ATOM      4  C   UNL     1       2.663   6.484  18.110  0.00  0.00    +0.000 A 
ATOM      5  C   UNL     1       2.325   7.560  18.940  0.00  0.00    +0.000 A 
ATOM      6  C   UNL     1       1.838   7.268  20.210  0.00  0.00    +0.000 A 
ATOM      7 CL   UNL     1       1.405   8.429  21.409  0.00  0.00    +0.000 Cl
ATOM      8  C   UNL     1       1.663   5.925  20.584  0.00  0.00    +0.000 A 
ATOM      9  C   UNL     1       2.000   4.842  19.746  0.00  0.00    +0.000 A 
BRANCH   5  10
ATOM     10  O   UNL     1       2.544   8.750  18.308  0.00  0.00    +0.000 OA
ATOM     11  C   UNL     1       1.472   9.605  17.973  0.00  0.00    +0.000 C 
ENDBRANCH   5  10
BRANCH   9  12
ATOM     12  O   UNL     1       1.725   3.659  20.365  0.00  0.00    +0.000 OA
ATOM     13  C   UNL     1       2.133   3.388  21.693  0.00  0.00    +0.000 C 
ENDBRANCH   9  12
ENDBRANCH   1   3
BRANCH   1  14
ATOM     14  C   UNL     1       3.851   3.093  17.827  0.00  0.00    +0.000 C 
ATOM     15  S   UNL     1       3.382   1.603  18.438  0.00  0.00    +0.000 S 
BRANCH  14  16
ATOM     16  N   UNL     1       5.133   3.398  17.408  0.00  0.00    +0.000 N 
ATOM     17  H   UNL     1       5.597   2.692  16.849  0.00  0.00    +0.000 HD
BRANCH  16  18
ATOM     18  C   UNL     1       5.793   4.691  17.511  0.00  0.00    +0.000 C 
BRANCH  18  19
ATOM     19  C   UNL     1       7.192   4.617  16.904  0.00  0.00    +0.000 C 
BRANCH  19  20
ATOM     20  C   UNL     1       7.108   4.764  15.388  0.00  0.00    +0.000 C 
BRANCH  20  21
ATOM     21  N   UNL     1       6.431   3.611  14.796  0.00  0.00    +0.000 NA
ATOM     22  H   UNL     1       7.122   2.981  14.376  0.00  0.00    +0.000 HD
BRANCH  21  23
ATOM     23  C   UNL     1       5.489   4.058  13.768  0.00  0.00    +0.000 C 
BRANCH  23  25
ATOM     24  C   UNL     1       7.073   3.868  11.828  0.00  0.00    +0.000 C 
ATOM     25  C   UNL     1       5.776   3.360  12.442  0.00  0.00    +0.000 C 
ENDBRANCH  23  25
ENDBRANCH  21  23
ENDBRANCH  20  21
ENDBRANCH  19  20
ENDBRANCH  18  19
ENDBRANCH  16  18
ENDBRANCH  14  16
ENDBRANCH   1  14
TORSDOF 11
ENDMDL
MODEL 3
REMARK VINA RESULT:      -6.2      2.649      4.192
REMARK  Name = 
REMARK  14 active torsions:
REMARK  status: ('A' for Active; 'I' for Inactive)
REMARK    1  A    between atoms: C_1  and  C_2
REMARK    2  A    between atoms: C_2  and  C_3
REMARK    3  A    between atoms: C_3  and  N_4
REMARK    4  A    between atoms: N_4  and  C_5
REMARK    5  A    between atoms: C_5  and  C_6
REMARK    6  A    between atoms: C_6  and  C_7
REMARK    7  A    between atoms: C_7  and  N_8
REMARK    8  A    between atoms: N_8  and  C_9
REMARK    9  A    between atoms: C_9  and  N_11
REMARK   10  A    between atoms: N_11  and  C_12
REMARK   11  A    between atoms: C_14  and  O_15
REMARK   12  A    between atoms: O_15  and  C_16
REMARK   13  A    between atoms: C_20  and  O_21
REMARK   14  A    between atoms: O_21  and  C_22
REMARK                            x       y       z     vdW  Elec       q    Type
REMARK                         _______ _______ _______ _____ _____    ______ ____
ROOT
ATOM      1  N   UNL     1       4.349   6.542  17.930  0.00  0.00    +0.000 N 
ATOM      2  H   UNL     1       3.866   7.250  17.404  0.00  0.00    +0.000 HD
ENDROOT
BRANCH   1   3
ATOM      3  C   UNL     1       3.601   5.763  18.844  0.00  0.00    +0.000 A 
ATOM      4  C   UNL     1       3.915   4.390  18.902  0.00  0.00    +0.000 A 
ATOM      5  C   UNL     1       3.234   3.471  19.711  0.00  0.00    +0.000 A 
ATOM      6  C   UNL     1       2.215   3.957  20.523  0.00  0.00    +0.000 A 
ATOM      7 CL   UNL     1       1.218   3.004  21.558  0.00  0.00    +0.000 Cl
ATOM      8  C   UNL     1       1.946   5.336  20.534  0.00  0.00    +0.000 A 
ATOM      9  C   UNL     1       2.635   6.261  19.724  0.00  0.00    +0.000 A 
BRANCH   5  10
ATOM     10  O   UNL     1       3.732   2.212  19.540  0.00  0.00    +0.000 OA
ATOM     11  C   UNL     1       3.607   1.541  18.305  0.00  0.00    +0.000 C 
ENDBRANCH   5  10
BRANCH   9  12
ATOM     12  O   UNL     1       2.169   7.523  19.941  0.00  0.00    +0.000 OA
ATOM     13  C   UNL     1       1.344   7.845  21.046  0.00  0.00    +0.000 C 
ENDBRANCH   9  12
ENDBRANCH   1   3
BRANCH   1  14
ATOM     14  C   UNL     1       5.542   6.165  17.317  0.00  0.00    +0.000 C 
ATOM     15  S   UNL     1       7.050   6.106  18.047  0.00  0.00    +0.000 S 
BRANCH  14  16
ATOM     16  N   UNL     1       5.281   5.739  16.028  0.00  0.00    +0.000 N 
ATOM     17  H   UNL     1       5.325   6.449  15.307  0.00  0.00    +0.000 HD
BRANCH  16  18
ATOM     18  C   UNL     1       5.154   4.359  15.581  0.00  0.00    +0.000 C 
BRANCH  18  19
ATOM     19  C   UNL     1       6.411   3.934  14.824  0.00  0.00    +0.000 C 
BRANCH  19  20
ATOM     20  C   UNL     1       6.281   4.311  13.351  0.00  0.00    +0.000 C 
BRANCH  20  21
ATOM     21  N   UNL     1       6.685   3.196  12.496  0.00  0.00    +0.000 NA
ATOM     22  H   UNL     1       7.300   3.536  11.750  0.00  0.00    +0.000 HD
BRANCH  21  23
ATOM     23  C   UNL     1       5.502   2.567  11.905  0.00  0.00    +0.000 C 
BRANCH  23  25
ATOM     24  C   UNL     1       3.353   3.019  10.687  0.00  0.00    +0.000 C 
ATOM     25  C   UNL     1       4.467   3.623  11.530  0.00  0.00    +0.000 C 
ENDBRANCH  23  25
ENDBRANCH  21  23
ENDBRANCH  20  21
ENDBRANCH  19  20
ENDBRANCH  18  19
ENDBRANCH  16  18
ENDBRANCH  14  16
ENDBRANCH   1  14
TORSDOF 11
ENDMDL
MODEL 4
REMARK VINA RESULT:      -6.1      2.335      3.295
REMARK  Name = 
REMARK  14 active torsions:
REMARK  status: ('A' for Active; 'I' for Inactive)
REMARK    1  A    between atoms: C_1  and  C_2
REMARK    2  A    between atoms: C_2  and  C_3
REMARK    3  A    between atoms: C_3  and  N_4
REMARK    4  A    between atoms: N_4  and  C_5
REMARK    5  A    between atoms: C_5  and  C_6
REMARK    6  A    between atoms: C_6  and  C_7
REMARK    7  A    between atoms: C_7  and  N_8
REMARK    8  A    between atoms: N_8  and  C_9
REMARK    9  A    between atoms: C_9  and  N_11
REMARK   10  A    between atoms: N_11  and  C_12
REMARK   11  A    between atoms: C_14  and  O_15
REMARK   12  A    between atoms: O_15  and  C_16
REMARK   13  A    between atoms: C_20  and  O_21
REMARK   14  A    between atoms: O_21  and  C_22
REMARK                            x       y       z     vdW  Elec       q    Type
REMARK                         _______ _______ _______ _____ _____    ______ ____
ROOT
ATOM      1  N   UNL     1       4.859   4.265  16.737  0.00  0.00    +0.000 N 
ATOM      2  H   UNL     1       4.560   3.387  16.349  0.00  0.00    +0.000 HD
ENDROOT
BRANCH   1   3
ATOM      3  C   UNL     1       4.030   4.886  17.701  0.00  0.00    +0.000 A 
ATOM      4  C   UNL     1       3.763   6.256  17.509  0.00  0.00    +0.000 A 
ATOM      5  C   UNL     1       3.009   7.033  18.398  0.00  0.00    +0.000 A 
ATOM      6  C   UNL     1       2.469   6.397  19.512  0.00  0.00    +0.000 A 
ATOM      7 CL   UNL     1       1.552   7.163  20.756  0.00  0.00    +0.000 Cl
ATOM      8  C   UNL     1       2.660   5.015  19.671  0.00  0.00    +0.000 A 
ATOM      9  C   UNL     1       3.416   4.233  18.774  0.00  0.00    +0.000 A 
BRANCH   5  10
ATOM     10  O   UNL     1       2.941   8.328  17.975  0.00  0.00    +0.000 OA
ATOM     11  C   UNL     1       1.697   8.973  17.802  0.00  0.00    +0.000 C 
ENDBRANCH   5  10
BRANCH   9  12
ATOM     12  O   UNL     1       3.431   2.931  19.175  0.00  0.00    +0.000 OA
ATOM     13  C   UNL     1       4.302   2.462  20.188  0.00  0.00    +0.000 C 
ENDBRANCH   9  12
ENDBRANCH   1   3
BRANCH   1  14
ATOM     14  C   UNL     1       6.233   4.452  16.596  0.00  0.00    +0.000 C 
ATOM     15  S   UNL     1       7.313   4.797  17.832  0.00  0.00    +0.000 S 
BRANCH  14  16
ATOM     16  N   UNL     1       6.598   4.204  15.286  0.00  0.00    +0.000 N 
ATOM     17  H   UNL     1       6.868   3.252  15.071  0.00  0.00    +0.000 HD
BRANCH  16  18
ATOM     18  C   UNL     1       6.438   5.109  14.157  0.00  0.00    +0.000 C 
BRANCH  18  19
ATOM     19  C   UNL     1       7.531   4.856  13.121  0.00  0.00    +0.000 C 
BRANCH  19  20
ATOM     20  C   UNL     1       6.973   4.020  11.973  0.00  0.00    +0.000 C 
BRANCH  20  21
ATOM     21  N   UNL     1       6.033   3.019  12.474  0.00  0.00    +0.000 NA
ATOM     22  H   UNL     1       6.549   2.222  12.859  0.00  0.00    +0.000 HD
BRANCH  21  23
ATOM     23  C   UNL     1       5.166   2.559  11.387  0.00  0.00    +0.000 C 
BRANCH  23  25
ATOM     24  C   UNL     1       3.418   3.769  10.050  0.00  0.00    +0.000 C 
ATOM     25  C   UNL     1       3.823   3.283  11.434  0.00  0.00    +0.000 C 
ENDBRANCH  23  25
ENDBRANCH  21  23
ENDBRANCH  20  21
ENDBRANCH  19  20
ENDBRANCH  18  19
ENDBRANCH  16  18
ENDBRANCH  14  16
ENDBRANCH   1  14
TORSDOF 11
ENDMDL
MODEL 5
REMARK VINA RESULT:      -6.1      3.545      6.926
REMARK  Name = 
REMARK  14 active torsions:
REMARK  status: ('A' for Active; 'I' for Inactive)
REMARK    1  A    between atoms: C_1  and  C_2
REMARK    2  A    between atoms: C_2  and  C_3
REMARK    3  A    between atoms: C_3  and  N_4
REMARK    4  A    between atoms: N_4  and  C_5
REMARK    5  A    between atoms: C_5  and  C_6
REMARK    6  A    between atoms: C_6  and  C_7
REMARK    7  A    between atoms: C_7  and  N_8
REMARK    8  A    between atoms: N_8  and  C_9
REMARK    9  A    between atoms: C_9  and  N_11
REMARK   10  A    between atoms: N_11  and  C_12
REMARK   11  A    between atoms: C_14  and  O_15
REMARK   12  A    between atoms: O_15  and  C_16
REMARK   13  A    between atoms: C_20  and  O_21
REMARK   14  A    between atoms: O_21  and  C_22
REMARK                            x       y       z     vdW  Elec       q    Type
REMARK                         _______ _______ _______ _____ _____    ______ ____
ROOT
ATOM      1  N   UNL     1       5.172   3.202  16.941  0.00  0.00    +0.000 N 
ATOM      2  H   UNL     1       5.464   2.285  17.230  0.00  0.00    +0.000 HD
ENDROOT
BRANCH   1   3
ATOM      3  C   UNL     1       5.890   3.833  15.898  0.00  0.00    +0.000 A 
ATOM      4  C   UNL     1       5.452   3.566  14.585  0.00  0.00    +0.000 A 
ATOM      5  C   UNL     1       6.085   4.065  13.439  0.00  0.00    +0.000 A 
ATOM      6  C   UNL     1       7.186   4.896  13.620  0.00  0.00    +0.000 A 
ATOM      7 CL   UNL     1       8.142   5.581  12.358  0.00  0.00    +0.000 Cl
ATOM      8  C   UNL     1       7.583   5.234  14.924  0.00  0.00    +0.000 A 
ATOM      9  C   UNL     1       6.942   4.736  16.077  0.00  0.00    +0.000 A 
BRANCH   5  10
ATOM     10  O   UNL     1       5.464   3.620  12.308  0.00  0.00    +0.000 OA
ATOM     11  C   UNL     1       5.773   2.358  11.756  0.00  0.00    +0.000 C 
ENDBRANCH   5  10
BRANCH   9  12
ATOM     12  O   UNL     1       7.535   5.229  17.200  0.00  0.00    +0.000 OA
ATOM     13  C   UNL     1       7.452   6.595  17.562  0.00  0.00    +0.000 C 
ENDBRANCH   9  12
ENDBRANCH   1   3
BRANCH   1  14
ATOM     14  C   UNL     1       3.851   3.463  17.300  0.00  0.00    +0.000 C 
ATOM     15  S   UNL     1       2.715   2.324  17.774  0.00  0.00    +0.000 S 
BRANCH  14  16
ATOM     16  N   UNL     1       3.640   4.829  17.312  0.00  0.00    +0.000 N 
ATOM     17  H   UNL     1       3.040   5.193  16.581  0.00  0.00    +0.000 HD
BRANCH  16  18
ATOM     18  C   UNL     1       4.017   5.755  18.370  0.00  0.00    +0.000 C 
BRANCH  18  19
ATOM     19  C   UNL     1       2.893   6.758  18.617  0.00  0.00    +0.000 C 
BRANCH  19  20
ATOM     20  C   UNL     1       2.237   6.481  19.967  0.00  0.00    +0.000 C 
BRANCH  20  21
ATOM     21  N   UNL     1       2.390   5.074  20.334  0.00  0.00    +0.000 NA
ATOM     22  H   UNL     1       2.879   4.572  19.586  0.00  0.00    +0.000 HD
BRANCH  21  23
ATOM     23  C   UNL     1       1.074   4.469  20.550  0.00  0.00    +0.000 C 
BRANCH  23  25
ATOM     24  C   UNL     1       2.547   2.726  21.600  0.00  0.00    +0.000 C 
ATOM     25  C   UNL     1       1.219   2.992  20.907  0.00  0.00    +0.000 C 
ENDBRANCH  23  25
ENDBRANCH  21  23
ENDBRANCH  20  21
ENDBRANCH  19  20
ENDBRANCH  18  19
ENDBRANCH  16  18
ENDBRANCH  14  16
ENDBRANCH   1  14
TORSDOF 11
ENDMDL
MODEL 6
REMARK VINA RESULT:      -6.0      3.640      6.530
REMARK  Name = 
REMARK  14 active torsions:
REMARK  status: ('A' for Active; 'I' for Inactive)
REMARK    1  A    between atoms: C_1  and  C_2
REMARK    2  A    between atoms: C_2  and  C_3
REMARK    3  A    between atoms: C_3  and  N_4
REMARK    4  A    between atoms: N_4  and  C_5
REMARK    5  A    between atoms: C_5  and  C_6
REMARK    6  A    between atoms: C_6  and  C_7
REMARK    7  A    between atoms: C_7  and  N_8
REMARK    8  A    between atoms: N_8  and  C_9
REMARK    9  A    between atoms: C_9  and  N_11
REMARK   10  A    between atoms: N_11  and  C_12
REMARK   11  A    between atoms: C_14  and  O_15
REMARK   12  A    between atoms: O_15  and  C_16
REMARK   13  A    between atoms: C_20  and  O_21
REMARK   14  A    between atoms: O_21  and  C_22
REMARK                            x       y       z     vdW  Elec       q    Type
REMARK                         _______ _______ _______ _____ _____    ______ ____
ROOT
ATOM      1  N   UNL     1       4.207   5.762  19.617  0.00  0.00    +0.000 N 
ATOM      2  H   UNL     1       4.673   5.544  20.481  0.00  0.00    +0.000 HD
ENDROOT
BRANCH   1   3
ATOM      3  C   UNL     1       4.829   5.376  18.406  0.00  0.00    +0.000 A 
ATOM      4  C   UNL     1       5.908   6.173  17.974  0.00  0.00    +0.000 A 
ATOM      5  C   UNL     1       6.596   5.962  16.772  0.00  0.00    +0.000 A 
ATOM      6  C   UNL     1       6.207   4.883  15.986  0.00  0.00    +0.000 A 
ATOM      7 CL   UNL     1       6.879   4.465  14.454  0.00  0.00    +0.000 Cl
ATOM      8  C   UNL     1       5.187   4.034  16.446  0.00  0.00    +0.000 A 
ATOM      9  C   UNL     1       4.498   4.243  17.658  0.00  0.00    +0.000 A 
BRANCH   5  10
ATOM     10  O   UNL     1       7.570   6.903  16.598  0.00  0.00    +0.000 OA
ATOM     11  C   UNL     1       7.731   7.962  17.517  0.00  0.00    +0.000 C 
ENDBRANCH   5  10
BRANCH   9  12
ATOM     12  O   UNL     1       3.565   3.268  17.849  0.00  0.00    +0.000 OA
ATOM     13  C   UNL     1       2.266   3.345  17.293  0.00  0.00    +0.000 C 
ENDBRANCH   9  12
ENDBRANCH   1   3
BRANCH   1  14
ATOM     14  C   UNL     1       2.843   5.977  19.805  0.00  0.00    +0.000 C 
ATOM     15  S   UNL     1       1.764   4.906  20.513  0.00  0.00    +0.000 S 
BRANCH  14  16
ATOM     16  N   UNL     1       2.523   7.264  19.412  0.00  0.00    +0.000 N 
ATOM     17  H   UNL     1       2.522   7.965  20.143  0.00  0.00    +0.000 HD
BRANCH  16  18
ATOM     18  C   UNL     1       2.390   7.743  18.044  0.00  0.00    +0.000 C 
BRANCH  18  19
ATOM     19  C   UNL     1       1.566   9.029  18.014  0.00  0.00    +0.000 C 
BRANCH  19  20
ATOM     20  C   UNL     1       1.177   9.428  19.434  0.00  0.00    +0.000 C 
BRANCH  20  21
ATOM     21  N   UNL     1      -0.195   9.931  19.470  0.00  0.00    +0.000 NA
ATOM     22  H   UNL     1      -0.823   9.201  19.823  0.00  0.00    +0.000 HD
BRANCH  21  23
ATOM     23  C   UNL     1      -0.617  10.330  18.126  0.00  0.00    +0.000 C 
BRANCH  23  25
ATOM     24  C   UNL     1      -2.508   9.842  16.548  0.00  0.00    +0.000 C 
ATOM     25  C   UNL     1      -2.129  10.195  17.979  0.00  0.00    +0.000 C 
ENDBRANCH  23  25
ENDBRANCH  21  23
ENDBRANCH  20  21
ENDBRANCH  19  20
ENDBRANCH  18  19
ENDBRANCH  16  18
ENDBRANCH  14  16
ENDBRANCH   1  14
TORSDOF 11
ENDMDL
MODEL 7
REMARK VINA RESULT:      -6.0      3.121      4.596
REMARK  Name = 
REMARK  14 active torsions:
REMARK  status: ('A' for Active; 'I' for Inactive)
REMARK    1  A    between atoms: C_1  and  C_2
REMARK    2  A    between atoms: C_2  and  C_3
REMARK    3  A    between atoms: C_3  and  N_4
REMARK    4  A    between atoms: N_4  and  C_5
REMARK    5  A    between atoms: C_5  and  C_6
REMARK    6  A    between atoms: C_6  and  C_7
REMARK    7  A    between atoms: C_7  and  N_8
REMARK    8  A    between atoms: N_8  and  C_9
REMARK    9  A    between atoms: C_9  and  N_11
REMARK   10  A    between atoms: N_11  and  C_12
REMARK   11  A    between atoms: C_14  and  O_15
REMARK   12  A    between atoms: O_15  and  C_16
REMARK   13  A    between atoms: C_20  and  O_21
REMARK   14  A    between atoms: O_21  and  C_22
REMARK                            x       y       z     vdW  Elec       q    Type
REMARK                         _______ _______ _______ _____ _____    ______ ____
ROOT
ATOM      1  N   UNL     1       4.579   4.958  16.510  0.00  0.00    +0.000 N 
ATOM      2  H   UNL     1       4.844   4.345  15.758  0.00  0.00    +0.000 HD
ENDROOT
BRANCH   1   3
ATOM      3  C   UNL     1       4.195   4.375  17.741  0.00  0.00    +0.000 A 
ATOM      4  C   UNL     1       2.838   4.014  17.867  0.00  0.00    +0.000 A 
ATOM      5  C   UNL     1       2.282   3.479  19.036  0.00  0.00    +0.000 A 
ATOM      6  C   UNL     1       3.133   3.265  20.116  0.00  0.00    +0.000 A 
ATOM      7 CL   UNL     1       2.659   2.663  21.661  0.00  0.00    +0.000 Cl
ATOM      8  C   UNL     1       4.502   3.545  19.975  0.00  0.00    +0.000 A 
ATOM      9  C   UNL     1       5.062   4.079  18.796  0.00  0.00    +0.000 A 
BRANCH   5  10
ATOM     10  O   UNL     1       0.945   3.254  18.881  0.00  0.00    +0.000 OA
ATOM     11  C   UNL     1       0.439   1.944  18.736  0.00  0.00    +0.000 C 
ENDBRANCH   5  10
BRANCH   9  12
ATOM     12  O   UNL     1       6.406   4.248  18.943  0.00  0.00    +0.000 OA
ATOM     13  C   UNL     1       6.979   5.499  19.277  0.00  0.00    +0.000 C 
ENDBRANCH   9  12
ENDBRANCH   1   3
BRANCH   1  14
ATOM     14  C   UNL     1       5.088   6.243  16.335  0.00  0.00    +0.000 C 
ATOM     15  S   UNL     1       4.436   7.655  16.961  0.00  0.00    +0.000 S 
BRANCH  14  16
ATOM     16  N   UNL     1       6.287   6.173  15.649  0.00  0.00    +0.000 N 
ATOM     17  H   UNL     1       6.786   7.047  15.535  0.00  0.00    +0.000 HD
BRANCH  16  18
ATOM     18  C   UNL     1       6.992   4.960  15.261  0.00  0.00    +0.000 C 
BRANCH  18  19
ATOM     19  C   UNL     1       6.926   4.774  13.747  0.00  0.00    +0.000 C 
BRANCH  19  20
ATOM     20  C   UNL     1       5.962   3.643  13.405  0.00  0.00    +0.000 C 
BRANCH  20  21
ATOM     21  N   UNL     1       6.438   2.893  12.244  0.00  0.00    +0.000 NA
ATOM     22  H   UNL     1       7.035   3.492  11.665  0.00  0.00    +0.000 HD
BRANCH  21  23
ATOM     23  C   UNL     1       5.300   2.426  11.450  0.00  0.00    +0.000 C 
BRANCH  23  25
ATOM     24  C   UNL     1       3.349   3.451  10.246  0.00  0.00    +0.000 C 
ATOM     25  C   UNL     1       4.142   3.414  11.545  0.00  0.00    +0.000 C 
ENDBRANCH  23  25
ENDBRANCH  21  23
ENDBRANCH  20  21
ENDBRANCH  19  20
ENDBRANCH  18  19
ENDBRANCH  16  18
ENDBRANCH  14  16
ENDBRANCH   1  14
TORSDOF 11
ENDMDL
MODEL 8
REMARK VINA RESULT:      -6.0      2.581      3.686
REMARK  Name = 
REMARK  14 active torsions:
REMARK  status: ('A' for Active; 'I' for Inactive)
REMARK    1  A    between atoms: C_1  and  C_2
REMARK    2  A    between atoms: C_2  and  C_3
REMARK    3  A    between atoms: C_3  and  N_4
REMARK    4  A    between atoms: N_4  and  C_5
REMARK    5  A    between atoms: C_5  and  C_6
REMARK    6  A    between atoms: C_6  and  C_7
REMARK    7  A    between atoms: C_7  and  N_8
REMARK    8  A    between atoms: N_8  and  C_9
REMARK    9  A    between atoms: C_9  and  N_11
REMARK   10  A    between atoms: N_11  and  C_12
REMARK   11  A    between atoms: C_14  and  O_15
REMARK   12  A    between atoms: O_15  and  C_16
REMARK   13  A    between atoms: C_20  and  O_21
REMARK   14  A    between atoms: O_21  and  C_22
REMARK                            x       y       z     vdW  Elec       q    Type
REMARK                         _______ _______ _______ _____ _____    ______ ____
ROOT
ATOM      1  N   UNL     1       5.169   6.328  16.759  0.00  0.00    +0.000 N 
ATOM      2  H   UNL     1       4.914   6.478  15.798  0.00  0.00    +0.000 HD
ENDROOT
BRANCH   1   3
ATOM      3  C   UNL     1       4.163   5.897  17.656  0.00  0.00    +0.000 A 
ATOM      4  C   UNL     1       3.468   6.908  18.350  0.00  0.00    +0.000 A 
ATOM      5  C   UNL     1       2.484   6.651  19.314  0.00  0.00    +0.000 A 
ATOM      6  C   UNL     1       2.159   5.323  19.566  0.00  0.00    +0.000 A 
ATOM      7 CL   UNL     1       1.017   4.776  20.738  0.00  0.00    +0.000 Cl
ATOM      8  C   UNL     1       2.787   4.310  18.823  0.00  0.00    +0.000 A 
ATOM      9  C   UNL     1       3.774   4.569  17.850  0.00  0.00    +0.000 A 
BRANCH   5  10
ATOM     10  O   UNL     1       2.005   7.815  19.841  0.00  0.00    +0.000 OA
ATOM     11  C   UNL     1       1.564   8.865  19.008  0.00  0.00    +0.000 C 
ENDBRANCH   5  10
BRANCH   9  12
ATOM     12  O   UNL     1       4.205   3.404  17.290  0.00  0.00    +0.000 OA
ATOM     13  C   UNL     1       3.738   2.139  17.720  0.00  0.00    +0.000 C 
ENDBRANCH   9  12
ENDBRANCH   1   3
BRANCH   1  14
ATOM     14  C   UNL     1       6.540   6.125  16.906  0.00  0.00    +0.000 C 
ATOM     15  S   UNL     1       7.412   6.276  18.331  0.00  0.00    +0.000 S 
BRANCH  14  16
ATOM     16  N   UNL     1       7.068   5.671  15.711  0.00  0.00    +0.000 N 
ATOM     17  H   UNL     1       7.673   6.316  15.219  0.00  0.00    +0.000 HD
BRANCH  16  18
ATOM     18  C   UNL     1       7.008   4.309  15.200  0.00  0.00    +0.000 C 
BRANCH  18  19
ATOM     19  C   UNL     1       5.865   4.172  14.198  0.00  0.00    +0.000 C 
BRANCH  19  20
ATOM     20  C   UNL     1       6.425   4.089  12.781  0.00  0.00    +0.000 C 
BRANCH  20  21
ATOM     21  N   UNL     1       6.521   2.696  12.346  0.00  0.00    +0.000 NA
ATOM     22  H   UNL     1       7.328   2.582  11.725  0.00  0.00    +0.000 HD
BRANCH  21  23
ATOM     23  C   UNL     1       5.300   2.309  11.636  0.00  0.00    +0.000 C 
BRANCH  23  25
ATOM     24  C   UNL     1       3.203   3.160  10.549  0.00  0.00    +0.000 C 
ATOM     25  C   UNL     1       4.528   3.546  11.189  0.00  0.00    +0.000 C 
ENDBRANCH  23  25
ENDBRANCH  21  23
ENDBRANCH  20  21
ENDBRANCH  19  20
ENDBRANCH  18  19
ENDBRANCH  16  18
ENDBRANCH  14  16
ENDBRANCH   1  14
TORSDOF 11
ENDMDL
MODEL 9
REMARK VINA RESULT:      -6.0      0.886      2.023
REMARK  Name = 
REMARK  14 active torsions:
REMARK  status: ('A' for Active; 'I' for Inactive)
REMARK    1  A    between atoms: C_1  and  C_2
REMARK    2  A    between atoms: C_2  and  C_3
REMARK    3  A    between atoms: C_3  and  N_4
REMARK    4  A    between atoms: N_4  and  C_5
REMARK    5  A    between atoms: C_5  and  C_6
REMARK    6  A    between atoms: C_6  and  C_7
REMARK    7  A    between atoms: C_7  and  N_8
REMARK    8  A    between atoms: N_8  and  C_9
REMARK    9  A    between atoms: C_9  and  N_11
REMARK   10  A    between atoms: N_11  and  C_12
REMARK   11  A    between atoms: C_14  and  O_15
REMARK   12  A    between atoms: O_15  and  C_16
REMARK   13  A    between atoms: C_20  and  O_21
REMARK   14  A    between atoms: O_21  and  C_22
REMARK                            x       y       z     vdW  Elec       q    Type
REMARK                         _______ _______ _______ _____ _____    ______ ____
ROOT
ATOM      1  N   UNL     1       2.298   4.026  17.679  0.00  0.00    +0.000 N 
ATOM      2  H   UNL     1       1.495   3.631  17.221  0.00  0.00    +0.000 HD
ENDROOT
BRANCH   1   3
ATOM      3  C   UNL     1       2.086   5.055  18.627  0.00  0.00    +0.000 A 
ATOM      4  C   UNL     1       2.304   6.374  18.180  0.00  0.00    +0.000 A 
ATOM      5  C   UNL     1       2.194   7.501  19.005  0.00  0.00    +0.000 A 
ATOM      6  C   UNL     1       1.814   7.298  20.327  0.00  0.00    +0.000 A 
ATOM      7 CL   UNL     1       1.662   8.530  21.526  0.00  0.00    +0.000 Cl
ATOM      8  C   UNL     1       1.515   5.997  20.763  0.00  0.00    +0.000 A 
ATOM      9  C   UNL     1       1.622   4.863  19.931  0.00  0.00    +0.000 A 
BRANCH   5  10
ATOM     10  O   UNL     1       2.490   8.640  18.313  0.00  0.00    +0.000 OA
ATOM     11  C   UNL     1       1.488   9.583  18.002  0.00  0.00    +0.000 C 
ENDBRANCH   5  10
BRANCH   9  12
ATOM     12  O   UNL     1       1.271   3.738  20.616  0.00  0.00    +0.000 OA
ATOM     13  C   UNL     1       2.018   3.260  21.719  0.00  0.00    +0.000 C 
ENDBRANCH   9  12
ENDBRANCH   1   3
BRANCH   1  14
ATOM     14  C   UNL     1       3.396   3.169  17.632  0.00  0.00    +0.000 C 
ATOM     15  S   UNL     1       3.617   1.796  18.570  0.00  0.00    +0.000 S 
BRANCH  14  16
ATOM     16  N   UNL     1       4.241   3.561  16.610  0.00  0.00    +0.000 N 
ATOM     17  H   UNL     1       4.516   2.836  15.958  0.00  0.00    +0.000 HD
BRANCH  16  18
ATOM     18  C   UNL     1       4.603   4.927  16.262  0.00  0.00    +0.000 C 
BRANCH  18  19
ATOM     19  C   UNL     1       5.727   4.927  15.229  0.00  0.00    +0.000 C 
BRANCH  19  20
ATOM     20  C   UNL     1       6.869   4.034  15.706  0.00  0.00    +0.000 C 
BRANCH  20  21
ATOM     21  N   UNL     1       7.839   4.807  16.480  0.00  0.00    +0.000 NA
ATOM     22  H   UNL     1       8.787   4.472  16.282  0.00  0.00    +0.000 HD
BRANCH  21  23
ATOM     23  C   UNL     1       7.561   4.669  17.911  0.00  0.00    +0.000 C 
BRANCH  23  25
ATOM     24  C   UNL     1       7.534   7.165  17.640  0.00  0.00    +0.000 C 
ATOM     25  C   UNL     1       7.714   6.012  18.617  0.00  0.00    +0.000 C 
ENDBRANCH  23  25
ENDBRANCH  21  23
ENDBRANCH  20  21
ENDBRANCH  19  20
ENDBRANCH  18  19
ENDBRANCH  16  18
ENDBRANCH  14  16
ENDBRANCH   1  14
TORSDOF 11
ENDMDL
