MODEL 1
REMARK VINA RESULT:      -7.2      0.000      0.000
REMARK  Name = 
REMARK  8 active torsions:
REMARK  status: ('A' for Active; 'I' for Inactive)
REMARK    1  A    between atoms: C_1  and  O_2
REMARK    2  A    between atoms: O_2  and  C_3
REMARK    3  A    between atoms: C_6  and  C_7
REMARK    4  A    between atoms: C_11  and  O_12
REMARK    5  A    between atoms: C_14  and  O_15
REMARK    6  A    between atoms: C_19  and  O_20
REMARK    7  A    between atoms: O_20  and  C_21
REMARK    8  A    between atoms: C_23  and  O_24
REMARK                            x       y       z     vdW  Elec       q    Type
REMARK                         _______ _______ _______ _____ _____    ______ ____
ROOT
ATOM      1  C   UNL     1       3.355   6.630  19.052  0.00  0.00    +0.000 C 
ATOM      2  O   UNL     1       3.068   6.042  20.363  0.00  0.00    +0.000 OA
ATOM      3  C   UNL     1       2.437   4.822  20.287  0.00  0.00    +0.000 A 
ATOM      4  C   UNL     1       2.244   4.063  21.439  0.00  0.00    +0.000 A 
ATOM      5  C   UNL     1       2.187   2.682  21.300  0.00  0.00    +0.000 A 
ATOM      6  C   UNL     1       2.525   2.108  20.083  0.00  0.00    +0.000 A 
ATOM      7  C   UNL     1       2.567   2.922  18.951  0.00  0.00    +0.000 A 
ATOM      8  C   UNL     1       2.209   4.253  19.052  0.00  0.00    +0.000 A 
ATOM      9  C   UNL     1       1.743   5.200  17.991  0.00  0.00    +0.000 C 
ATOM     10  O   UNL     1       1.120   4.811  17.011  0.00  0.00    +0.000 OA
ATOM     11  C   UNL     1       2.009   6.713  18.305  0.00  0.00    +0.000 C 
ENDROOT
BRANCH   1  15
ATOM     12  C   UNL     1       6.556   5.063  16.440  0.00  0.00    +0.000 A 
ATOM     13  C   UNL     1       5.446   5.672  15.881  0.00  0.00    +0.000 A 
ATOM     14  C   UNL     1       4.444   6.160  16.730  0.00  0.00    +0.000 A 
ATOM     15  C   UNL     1       4.470   6.009  18.139  0.00  0.00    +0.000 A 
ATOM     16  C   UNL     1       5.582   5.344  18.677  0.00  0.00    +0.000 A 
ATOM     17  C   UNL     1       6.596   4.873  17.821  0.00  0.00    +0.000 A 
BRANCH  12  19
ATOM     18  C   UNL     1       7.072   4.811  14.178  0.00  0.00    +0.000 C 
ATOM     19  O   UNL     1       7.499   4.673  15.530  0.00  0.00    +0.000 OA
ENDBRANCH  12  19
BRANCH  17  20
ATOM     20  O   UNL     1       7.668   4.198  18.370  0.00  0.00    +0.000 OA
ATOM     21  H   UNL     1       8.484   4.549  17.983  0.00  0.00    +0.000 HD
ENDBRANCH  17  20
ENDBRANCH   1  15
BRANCH   5  22
ATOM     22  O   UNL     1       1.938   1.865  22.357  0.00  0.00    +0.000 OA
ATOM     23  H   UNL     1       2.427   2.221  23.122  0.00  0.00    +0.000 HD
ENDBRANCH   5  22
BRANCH   7  24
ATOM     24  O   UNL     1       3.245   2.470  17.856  0.00  0.00    +0.000 OA
ATOM     25  H   UNL     1       2.572   2.359  17.150  0.00  0.00    +0.000 HD
ENDBRANCH   7  24
BRANCH  11  26
ATOM     26  O   UNL     1       2.193   7.751  17.355  0.00  0.00    +0.000 OA
ATOM     27  C   UNL     1       1.945   9.067  17.786  0.00  0.00    +0.000 C 
ENDBRANCH  11  26
TORSDOF 6
ENDMDL
MODEL 2
REMARK VINA RESULT:      -5.8      0.693      1.422
REMARK  Name = 
REMARK  8 active torsions:
REMARK  status: ('A' for Active; 'I' for Inactive)
REMARK    1  A    between atoms: C_1  and  O_2
REMARK    2  A    between atoms: O_2  and  C_3
REMARK    3  A    between atoms: C_6  and  C_7
REMARK    4  A    between atoms: C_11  and  O_12
REMARK    5  A    between atoms: C_14  and  O_15
REMARK    6  A    between atoms: C_19  and  O_20
REMARK    7  A    between atoms: O_20  and  C_21
REMARK    8  A    between atoms: C_23  and  O_24
REMARK                            x       y       z     vdW  Elec       q    Type
REMARK                         _______ _______ _______ _____ _____    ______ ____
ROOT
ATOM      1  C   UNL     1       3.039   6.795  19.204  0.00  0.00    +0.000 C 
ATOM      2  O   UNL     1       2.769   6.133  20.482  0.00  0.00    +0.000 OA
ATOM      3  C   UNL     1       2.263   4.861  20.341  0.00  0.00    +0.000 A 
ATOM      4  C   UNL     1       2.107   4.043  21.457  0.00  0.00    +0.000 A 
ATOM      5  C   UNL     1       2.190   2.670  21.268  0.00  0.00    +0.000 A 
ATOM      6  C   UNL     1       2.621   2.178  20.044  0.00  0.00    +0.000 A 
ATOM      7  C   UNL     1       2.620   3.036  18.944  0.00  0.00    +0.000 A 
ATOM      8  C   UNL     1       2.131   4.321  19.079  0.00  0.00    +0.000 A 
ATOM      9  C   UNL     1       1.609   5.260  18.037  0.00  0.00    +0.000 C 
ATOM     10  O   UNL     1       1.059   4.851  17.021  0.00  0.00    +0.000 OA
ATOM     11  C   UNL     1       1.716   6.778  18.413  0.00  0.00    +0.000 C 
ENDROOT
BRANCH   1  15
ATOM     12  C   UNL     1       6.338   5.276  16.687  0.00  0.00    +0.000 A 
ATOM     13  C   UNL     1       6.280   4.936  18.027  0.00  0.00    +0.000 A 
ATOM     14  C   UNL     1       5.225   5.431  18.804  0.00  0.00    +0.000 A 
ATOM     15  C   UNL     1       4.238   6.320  18.310  0.00  0.00    +0.000 A 
ATOM     16  C   UNL     1       4.348   6.690  16.961  0.00  0.00    +0.000 A 
ATOM     17  C   UNL     1       5.399   6.173  16.179  0.00  0.00    +0.000 A 
BRANCH  12  19
ATOM     18  C   UNL     1       6.964   4.014  14.827  0.00  0.00    +0.000 C 
ATOM     19  O   UNL     1       7.373   4.697  16.007  0.00  0.00    +0.000 OA
ENDBRANCH  12  19
BRANCH  17  20
ATOM     20  O   UNL     1       5.503   6.571  14.861  0.00  0.00    +0.000 OA
ATOM     21  H   UNL     1       5.328   5.806  14.293  0.00  0.00    +0.000 HD
ENDBRANCH  17  20
ENDBRANCH   1  15
BRANCH   5  22
ATOM     22  O   UNL     1       1.988   1.792  22.285  0.00  0.00    +0.000 OA
ATOM     23  H   UNL     1       1.341   1.131  21.975  0.00  0.00    +0.000 HD
ENDBRANCH   5  22
BRANCH   7  24
ATOM     24  O   UNL     1       3.374   2.694  17.858  0.00  0.00    +0.000 OA
ATOM     25  H   UNL     1       2.736   2.530  17.130  0.00  0.00    +0.000 HD
ENDBRANCH   7  24
BRANCH  11  26
ATOM     26  O   UNL     1       1.829   7.865  17.507  0.00  0.00    +0.000 OA
ATOM     27  C   UNL     1       1.758   9.161  18.049  0.00  0.00    +0.000 C 
ENDBRANCH  11  26
TORSDOF 6
ENDMDL
MODEL 3
REMARK VINA RESULT:      -5.6      5.596      9.823
REMARK  Name = 
REMARK  8 active torsions:
REMARK  status: ('A' for Active; 'I' for Inactive)
REMARK    1  A    between atoms: C_1  and  O_2
REMARK    2  A    between atoms: O_2  and  C_3
REMARK    3  A    between atoms: C_6  and  C_7
REMARK    4  A    between atoms: C_11  and  O_12
REMARK    5  A    between atoms: C_14  and  O_15
REMARK    6  A    between atoms: C_19  and  O_20
REMARK    7  A    between atoms: O_20  and  C_21
REMARK    8  A    between atoms: C_23  and  O_24
REMARK                            x       y       z     vdW  Elec       q    Type
REMARK                         _______ _______ _______ _____ _____    ______ ____
ROOT
ATOM      1  C   UNL     1      -0.491  10.274  20.042  0.00  0.00    +0.000 C 
ATOM      2  O   UNL     1      -0.566  11.114  21.240  0.00  0.00    +0.000 OA
ATOM      3  C   UNL     1      -0.095  12.392  21.041  0.00  0.00    +0.000 A 
ATOM      4  C   UNL     1      -0.249  13.355  22.034  0.00  0.00    +0.000 A 
ATOM      5  C   UNL     1      -0.340  14.683  21.637  0.00  0.00    +0.000 A 
ATOM      6  C   UNL     1      -0.483  14.979  20.288  0.00  0.00    +0.000 A 
ATOM      7  C   UNL     1      -0.180  13.990  19.353  0.00  0.00    +0.000 A 
ATOM      8  C   UNL     1       0.315  12.773  19.781  0.00  0.00    +0.000 A 
ATOM      9  C   UNL     1       1.113  11.750  19.035  0.00  0.00    +0.000 C 
ATOM     10  O   UNL     1       1.875  12.065  18.128  0.00  0.00    +0.000 OA
ATOM     11  C   UNL     1       0.982  10.289  19.589  0.00  0.00    +0.000 C 
ENDROOT
BRANCH   1  15
ATOM     12  C   UNL     1      -3.278  10.835  16.659  0.00  0.00    +0.000 A 
ATOM     13  C   UNL     1      -2.142  10.061  16.496  0.00  0.00    +0.000 A 
ATOM     14  C   UNL     1      -1.274   9.899  17.584  0.00  0.00    +0.000 A 
ATOM     15  C   UNL     1      -1.457  10.539  18.835  0.00  0.00    +0.000 A 
ATOM     16  C   UNL     1      -2.589  11.358  18.958  0.00  0.00    +0.000 A 
ATOM     17  C   UNL     1      -3.470  11.502  17.869  0.00  0.00    +0.000 A 
BRANCH  12  19
ATOM     18  C   UNL     1      -3.560  10.175  14.439  0.00  0.00    +0.000 C 
ATOM     19  O   UNL     1      -4.085  10.884  15.557  0.00  0.00    +0.000 OA
ENDBRANCH  12  19
BRANCH  17  20
ATOM     20  O   UNL     1      -4.563  12.334  18.003  0.00  0.00    +0.000 OA
ATOM     21  H   UNL     1      -5.104  12.264  17.203  0.00  0.00    +0.000 HD
ENDBRANCH  17  20
ENDBRANCH   1  15
BRANCH   5  22
ATOM     22  O   UNL     1      -0.428  15.697  22.537  0.00  0.00    +0.000 OA
ATOM     23  H   UNL     1       0.385  16.231  22.454  0.00  0.00    +0.000 HD
ENDBRANCH   5  22
BRANCH   7  24
ATOM     24  O   UNL     1      -0.663  14.132  18.084  0.00  0.00    +0.000 OA
ATOM     25  H   UNL     1       0.058  13.833  17.488  0.00  0.00    +0.000 HD
ENDBRANCH   7  24
BRANCH  11  26
ATOM     26  O   UNL     1       1.137   9.089  18.847  0.00  0.00    +0.000 OA
ATOM     27  C   UNL     1       2.300   8.964  18.065  0.00  0.00    +0.000 C 
ENDBRANCH  11  26
TORSDOF 6
ENDMDL
MODEL 4
REMARK VINA RESULT:      -5.6      6.180     10.206
REMARK  Name = 
REMARK  8 active torsions:
REMARK  status: ('A' for Active; 'I' for Inactive)
REMARK    1  A    between atoms: C_1  and  O_2
REMARK    2  A    between atoms: O_2  and  C_3
REMARK    3  A    between atoms: C_6  and  C_7
REMARK    4  A    between atoms: C_11  and  O_12
REMARK    5  A    between atoms: C_14  and  O_15
REMARK    6  A    between atoms: C_19  and  O_20
REMARK    7  A    between atoms: O_20  and  C_21
REMARK    8  A    between atoms: C_23  and  O_24
REMARK                            x       y       z     vdW  Elec       q    Type
REMARK                         _______ _______ _______ _____ _____    ______ ____
ROOT
ATOM      1  C   UNL     1      -0.578  10.900  20.866  0.00  0.00    +0.000 C 
ATOM      2  O   UNL     1      -0.747  11.903  21.921  0.00  0.00    +0.000 OA
ATOM      3  C   UNL     1      -0.249  13.140  21.582  0.00  0.00    +0.000 A 
ATOM      4  C   UNL     1      -0.478  14.235  22.411  0.00  0.00    +0.000 A 
ATOM      5  C   UNL     1      -0.523  15.492  21.821  0.00  0.00    +0.000 A 
ATOM      6  C   UNL     1      -0.547  15.592  20.437  0.00  0.00    +0.000 A 
ATOM      7  C   UNL     1      -0.175  14.479  19.683  0.00  0.00    +0.000 A 
ATOM      8  C   UNL     1       0.271  13.338  20.321  0.00  0.00    +0.000 A 
ATOM      9  C   UNL     1       1.120  12.221  19.800  0.00  0.00    +0.000 C 
ATOM     10  O   UNL     1       1.959  12.405  18.926  0.00  0.00    +0.000 OA
ATOM     11  C   UNL     1       0.928  10.854  20.544  0.00  0.00    +0.000 C 
ENDROOT
BRANCH   1  15
ATOM     12  C   UNL     1      -3.050  10.957  17.204  0.00  0.00    +0.000 A 
ATOM     13  C   UNL     1      -1.870  10.234  17.229  0.00  0.00    +0.000 A 
ATOM     14  C   UNL     1      -1.104  10.232  18.402  0.00  0.00    +0.000 A 
ATOM     15  C   UNL     1      -1.435  10.986  19.555  0.00  0.00    +0.000 A 
ATOM     16  C   UNL     1      -2.609  11.750  19.487  0.00  0.00    +0.000 A 
ATOM     17  C   UNL     1      -3.388  11.732  18.314  0.00  0.00    +0.000 A 
BRANCH  12  19
ATOM     18  C   UNL     1      -2.970  10.344  14.954  0.00  0.00    +0.000 C 
ATOM     19  O   UNL     1      -3.749  10.848  16.035  0.00  0.00    +0.000 OA
ENDBRANCH  12  19
BRANCH  17  20
ATOM     20  O   UNL     1      -4.525  12.513  18.259  0.00  0.00    +0.000 OA
ATOM     21  H   UNL     1      -4.601  13.005  19.089  0.00  0.00    +0.000 HD
ENDBRANCH  17  20
ENDBRANCH   1  15
BRANCH   5  22
ATOM     22  O   UNL     1      -0.678  16.624  22.556  0.00  0.00    +0.000 OA
ATOM     23  H   UNL     1      -0.432  16.410  23.476  0.00  0.00    +0.000 HD
ENDBRANCH   5  22
BRANCH   7  24
ATOM     24  O   UNL     1      -0.547  14.436  18.369  0.00  0.00    +0.000 OA
ATOM     25  H   UNL     1      -1.499  14.675  18.352  0.00  0.00    +0.000 HD
ENDBRANCH   7  24
BRANCH  11  26
ATOM     26  O   UNL     1       1.135   9.561  19.997  0.00  0.00    +0.000 OA
ATOM     27  C   UNL     1       1.184   8.483  20.899  0.00  0.00    +0.000 C 
ENDBRANCH  11  26
TORSDOF 6
ENDMDL
MODEL 5
REMARK VINA RESULT:      -5.5      9.469     12.114
REMARK  Name = 
REMARK  8 active torsions:
REMARK  status: ('A' for Active; 'I' for Inactive)
REMARK    1  A    between atoms: C_1  and  O_2
REMARK    2  A    between atoms: O_2  and  C_3
REMARK    3  A    between atoms: C_6  and  C_7
REMARK    4  A    between atoms: C_11  and  O_12
REMARK    5  A    between atoms: C_14  and  O_15
REMARK    6  A    between atoms: C_19  and  O_20
REMARK    7  A    between atoms: O_20  and  C_21
REMARK    8  A    between atoms: C_23  and  O_24
REMARK                            x       y       z     vdW  Elec       q    Type
REMARK                         _______ _______ _______ _____ _____    ______ ____
ROOT
ATOM      1  C   UNL     1      10.869  12.394  19.238  0.00  0.00    +0.000 C 
ATOM      2  O   UNL     1      11.613  13.461  18.565  0.00  0.00    +0.000 OA
ATOM      3  C   UNL     1      10.804  14.360  17.908  0.00  0.00    +0.000 A 
ATOM      4  C   UNL     1      11.349  15.518  17.358  0.00  0.00    +0.000 A 
ATOM      5  C   UNL     1      10.527  16.633  17.259  0.00  0.00    +0.000 A 
ATOM      6  C   UNL     1       9.288  16.621  17.885  0.00  0.00    +0.000 A 
ATOM      7  C   UNL     1       8.757  15.396  18.287  0.00  0.00    +0.000 A 
ATOM      8  C   UNL     1       9.435  14.228  17.996  0.00  0.00    +0.000 A 
ATOM      9  C   UNL     1       8.923  12.824  17.898  0.00  0.00    +0.000 C 
ATOM     10  O   UNL     1       7.774  12.583  17.549  0.00  0.00    +0.000 OA
ATOM     11  C   UNL     1      10.002  11.717  18.158  0.00  0.00    +0.000 C 
ENDROOT
BRANCH   1  15
ATOM     12  C   UNL     1       8.603  13.160  22.953  0.00  0.00    +0.000 A 
ATOM     13  C   UNL     1       8.412  11.977  22.260  0.00  0.00    +0.000 A 
ATOM     14  C   UNL     1       9.142  11.758  21.085  0.00  0.00    +0.000 A 
ATOM     15  C   UNL     1      10.026  12.712  20.522  0.00  0.00    +0.000 A 
ATOM     16  C   UNL     1      10.163  13.923  21.217  0.00  0.00    +0.000 A 
ATOM     17  C   UNL     1       9.444  14.131  22.409  0.00  0.00    +0.000 A 
BRANCH  12  19
ATOM     18  C   UNL     1       8.207  12.235  25.059  0.00  0.00    +0.000 C 
ATOM     19  O   UNL     1       7.886  13.250  24.114  0.00  0.00    +0.000 OA
ENDBRANCH  12  19
BRANCH  17  20
ATOM     20  O   UNL     1       9.574  15.340  23.062  0.00  0.00    +0.000 OA
ATOM     21  H   UNL     1      10.144  15.213  23.835  0.00  0.00    +0.000 HD
ENDBRANCH  17  20
ENDBRANCH   1  15
BRANCH   5  22
ATOM     22  O   UNL     1      10.951  17.786  16.680  0.00  0.00    +0.000 OA
ATOM     23  H   UNL     1      11.080  18.440  17.392  0.00  0.00    +0.000 HD
ENDBRANCH   5  22
BRANCH   7  24
ATOM     24  O   UNL     1       7.754  15.401  19.213  0.00  0.00    +0.000 OA
ATOM     25  H   UNL     1       7.098  14.739  18.902  0.00  0.00    +0.000 HD
ENDBRANCH   7  24
BRANCH  11  26
ATOM     26  O   UNL     1       9.765  10.411  18.660  0.00  0.00    +0.000 OA
ATOM     27  C   UNL     1       8.637   9.729  18.166  0.00  0.00    +0.000 C 
ENDBRANCH  11  26
TORSDOF 6
ENDMDL
MODEL 6
REMARK VINA RESULT:      -5.5      2.192      3.831
REMARK  Name = 
REMARK  8 active torsions:
REMARK  status: ('A' for Active; 'I' for Inactive)
REMARK    1  A    between atoms: C_1  and  O_2
REMARK    2  A    between atoms: O_2  and  C_3
REMARK    3  A    between atoms: C_6  and  C_7
REMARK    4  A    between atoms: C_11  and  O_12
REMARK    5  A    between atoms: C_14  and  O_15
REMARK    6  A    between atoms: C_19  and  O_20
REMARK    7  A    between atoms: O_20  and  C_21
REMARK    8  A    between atoms: C_23  and  O_24
REMARK                            x       y       z     vdW  Elec       q    Type
REMARK                         _______ _______ _______ _____ _____    ______ ____
ROOT
ATOM      1  C   UNL     1       7.214   5.122  17.562  0.00  0.00    +0.000 C 
ATOM      2  O   UNL     1       6.723   4.286  18.661  0.00  0.00    +0.000 OA
ATOM      3  C   UNL     1       5.352   4.283  18.773  0.00  0.00    +0.000 A 
ATOM      4  C   UNL     1       4.725   3.413  19.662  0.00  0.00    +0.000 A 
ATOM      5  C   UNL     1       3.438   2.992  19.354  0.00  0.00    +0.000 A 
ATOM      6  C   UNL     1       2.912   3.277  18.102  0.00  0.00    +0.000 A 
ATOM      7  C   UNL     1       3.529   4.261  17.329  0.00  0.00    +0.000 A 
ATOM      8  C   UNL     1       4.595   4.970  17.847  0.00  0.00    +0.000 A 
ATOM      9  C   UNL     1       5.131   6.312  17.457  0.00  0.00    +0.000 C 
ATOM     10  O   UNL     1       4.405   7.185  16.997  0.00  0.00    +0.000 OA
ATOM     11  C   UNL     1       6.645   6.535  17.799  0.00  0.00    +0.000 C 
ENDROOT
BRANCH   1  15
ATOM     12  C   UNL     1       6.433   3.909  13.386  0.00  0.00    +0.000 A 
ATOM     13  C   UNL     1       5.902   3.171  14.430  0.00  0.00    +0.000 A 
ATOM     14  C   UNL     1       6.165   3.576  15.745  0.00  0.00    +0.000 A 
ATOM     15  C   UNL     1       7.003   4.670  16.075  0.00  0.00    +0.000 A 
ATOM     16  C   UNL     1       7.569   5.370  15.000  0.00  0.00    +0.000 A 
ATOM     17  C   UNL     1       7.286   4.973  13.679  0.00  0.00    +0.000 A 
BRANCH  12  19
ATOM     18  C   UNL     1       4.665   3.312  11.985  0.00  0.00    +0.000 C 
ATOM     19  O   UNL     1       6.072   3.464  12.145  0.00  0.00    +0.000 OA
ENDBRANCH  12  19
BRANCH  17  20
ATOM     20  O   UNL     1       7.876   5.660  12.637  0.00  0.00    +0.000 OA
ATOM     21  H   UNL     1       7.185   6.134  12.151  0.00  0.00    +0.000 HD
ENDBRANCH  17  20
ENDBRANCH   1  15
BRANCH   5  22
ATOM     22  O   UNL     1       2.725   2.195  20.191  0.00  0.00    +0.000 OA
ATOM     23  H   UNL     1       1.965   1.848  19.686  0.00  0.00    +0.000 HD
ENDBRANCH   5  22
BRANCH   7  24
ATOM     24  O   UNL     1       3.268   4.286  15.988  0.00  0.00    +0.000 OA
ATOM     25  H   UNL     1       2.696   3.508  15.812  0.00  0.00    +0.000 HD
ENDBRANCH   7  24
BRANCH  11  26
ATOM     26  O   UNL     1       7.544   7.398  17.121  0.00  0.00    +0.000 OA
ATOM     27  C   UNL     1       7.951   8.562  17.799  0.00  0.00    +0.000 C 
ENDBRANCH  11  26
TORSDOF 6
ENDMDL
MODEL 7
REMARK VINA RESULT:      -5.5      5.533      8.808
REMARK  Name = 
REMARK  8 active torsions:
REMARK  status: ('A' for Active; 'I' for Inactive)
REMARK    1  A    between atoms: C_1  and  O_2
REMARK    2  A    between atoms: O_2  and  C_3
REMARK    3  A    between atoms: C_6  and  C_7
REMARK    4  A    between atoms: C_11  and  O_12
REMARK    5  A    between atoms: C_14  and  O_15
REMARK    6  A    between atoms: C_19  and  O_20
REMARK    7  A    between atoms: O_20  and  C_21
REMARK    8  A    between atoms: C_23  and  O_24
REMARK                            x       y       z     vdW  Elec       q    Type
REMARK                         _______ _______ _______ _____ _____    ______ ____
ROOT
ATOM      1  C   UNL     1      -0.331  12.239  21.841  0.00  0.00    +0.000 C 
ATOM      2  O   UNL     1       0.321  10.989  22.241  0.00  0.00    +0.000 OA
ATOM      3  C   UNL     1       0.369  10.052  21.234  0.00  0.00    +0.000 A 
ATOM      4  C   UNL     1       1.098   8.878  21.407  0.00  0.00    +0.000 A 
ATOM      5  C   UNL     1       1.627   8.275  20.274  0.00  0.00    +0.000 A 
ATOM      6  C   UNL     1       1.592   8.954  19.064  0.00  0.00    +0.000 A 
ATOM      7  C   UNL     1       0.732  10.044  18.937  0.00  0.00    +0.000 A 
ATOM      8  C   UNL     1      -0.107  10.379  19.982  0.00  0.00    +0.000 A 
ATOM      9  C   UNL     1      -1.384  11.161  19.971  0.00  0.00    +0.000 C 
ATOM     10  O   UNL     1      -2.126  11.164  18.996  0.00  0.00    +0.000 OA
ATOM     11  C   UNL     1      -1.734  11.857  21.331  0.00  0.00    +0.000 C 
ENDROOT
BRANCH   1  15
ATOM     12  C   UNL     1       1.730  14.834  18.918  0.00  0.00    +0.000 A 
ATOM     13  C   UNL     1       2.467  13.995  19.737  0.00  0.00    +0.000 A 
ATOM     14  C   UNL     1       1.790  13.183  20.656  0.00  0.00    +0.000 A 
ATOM     15  C   UNL     1       0.386  13.215  20.844  0.00  0.00    +0.000 A 
ATOM     16  C   UNL     1      -0.333  14.109  20.037  0.00  0.00    +0.000 A 
ATOM     17  C   UNL     1       0.349  14.909  19.100  0.00  0.00    +0.000 A 
BRANCH  12  19
ATOM     18  C   UNL     1       3.156  16.654  18.599  0.00  0.00    +0.000 C 
ATOM     19  O   UNL     1       2.480  15.541  18.021  0.00  0.00    +0.000 OA
ENDBRANCH  12  19
BRANCH  17  20
ATOM     20  O   UNL     1      -0.375  15.801  18.336  0.00  0.00    +0.000 OA
ATOM     21  H   UNL     1       0.160  16.597  18.201  0.00  0.00    +0.000 HD
ENDBRANCH  17  20
ENDBRANCH   1  15
BRANCH   5  22
ATOM     22  O   UNL     1       2.298   7.094  20.336  0.00  0.00    +0.000 OA
ATOM     23  H   UNL     1       2.185   6.743  21.240  0.00  0.00    +0.000 HD
ENDBRANCH   5  22
BRANCH   7  24
ATOM     24  O   UNL     1       0.956  10.928  17.920  0.00  0.00    +0.000 OA
ATOM     25  H   UNL     1       0.070  11.247  17.643  0.00  0.00    +0.000 HD
ENDBRANCH   7  24
BRANCH  11  26
ATOM     26  O   UNL     1      -2.507  13.035  21.500  0.00  0.00    +0.000 OA
ATOM     27  C   UNL     1      -3.902  12.880  21.595  0.00  0.00    +0.000 C 
ENDBRANCH  11  26
TORSDOF 6
ENDMDL
MODEL 8
REMARK VINA RESULT:      -5.5      4.975      8.116
REMARK  Name = 
REMARK  8 active torsions:
REMARK  status: ('A' for Active; 'I' for Inactive)
REMARK    1  A    between atoms: C_1  and  O_2
REMARK    2  A    between atoms: O_2  and  C_3
REMARK    3  A    between atoms: C_6  and  C_7
REMARK    4  A    between atoms: C_11  and  O_12
REMARK    5  A    between atoms: C_14  and  O_15
REMARK    6  A    between atoms: C_19  and  O_20
REMARK    7  A    between atoms: O_20  and  C_21
REMARK    8  A    between atoms: C_23  and  O_24
REMARK                            x       y       z     vdW  Elec       q    Type
REMARK                         _______ _______ _______ _____ _____    ______ ____
ROOT
ATOM      1  C   UNL     1      -0.291  11.886  20.954  0.00  0.00    +0.000 C 
ATOM      2  O   UNL     1       0.216  10.630  21.513  0.00  0.00    +0.000 OA
ATOM      3  C   UNL     1       0.477   9.675  20.557  0.00  0.00    +0.000 A 
ATOM      4  C   UNL     1       1.114   8.488  20.912  0.00  0.00    +0.000 A 
ATOM      5  C   UNL     1       1.881   7.853  19.944  0.00  0.00    +0.000 A 
ATOM      6  C   UNL     1       2.151   8.511  18.752  0.00  0.00    +0.000 A 
ATOM      7  C   UNL     1       1.374   9.618  18.412  0.00  0.00    +0.000 A 
ATOM      8  C   UNL     1       0.319   9.989  19.224  0.00  0.00    +0.000 A 
ATOM      9  C   UNL     1      -0.898  10.799  18.901  0.00  0.00    +0.000 C 
ATOM     10  O   UNL     1      -1.388  10.801  17.779  0.00  0.00    +0.000 OA
ATOM     11  C   UNL     1      -1.543  11.526  20.131  0.00  0.00    +0.000 C 
ENDROOT
BRANCH   1  15
ATOM     12  C   UNL     1       2.302  14.695  18.737  0.00  0.00    +0.000 A 
ATOM     13  C   UNL     1       1.015  14.446  18.292  0.00  0.00    +0.000 A 
ATOM     14  C   UNL     1       0.213  13.550  19.012  0.00  0.00    +0.000 A 
ATOM     15  C   UNL     1       0.666  12.828  20.144  0.00  0.00    +0.000 A 
ATOM     16  C   UNL     1       1.991  13.061  20.545  0.00  0.00    +0.000 A 
ATOM     17  C   UNL     1       2.787  13.977  19.831  0.00  0.00    +0.000 A 
BRANCH  12  19
ATOM     18  C   UNL     1       2.523  16.956  18.205  0.00  0.00    +0.000 C 
ATOM     19  O   UNL     1       2.980  15.623  17.998  0.00  0.00    +0.000 OA
ENDBRANCH  12  19
BRANCH  17  20
ATOM     20  O   UNL     1       4.095  14.171  20.226  0.00  0.00    +0.000 OA
ATOM     21  H   UNL     1       4.283  15.121  20.213  0.00  0.00    +0.000 HD
ENDBRANCH  17  20
ENDBRANCH   1  15
BRANCH   5  22
ATOM     22  O   UNL     1       2.488   6.660  20.178  0.00  0.00    +0.000 OA
ATOM     23  H   UNL     1       2.072   6.273  20.972  0.00  0.00    +0.000 HD
ENDBRANCH   5  22
BRANCH   7  24
ATOM     24  O   UNL     1       1.854  10.478  17.466  0.00  0.00    +0.000 OA
ATOM     25  H   UNL     1       1.354  10.279  16.645  0.00  0.00    +0.000 HD
ENDBRANCH   7  24
BRANCH  11  26
ATOM     26  O   UNL     1      -2.303  12.724  20.098  0.00  0.00    +0.000 OA
ATOM     27  C   UNL     1      -3.704  12.594  20.064  0.00  0.00    +0.000 C 
ENDBRANCH  11  26
TORSDOF 6
ENDMDL
MODEL 9
REMARK VINA RESULT:      -5.4      9.446     11.566
REMARK  Name = 
REMARK  8 active torsions:
REMARK  status: ('A' for Active; 'I' for Inactive)
REMARK    1  A    between atoms: C_1  and  O_2
REMARK    2  A    between atoms: O_2  and  C_3
REMARK    3  A    between atoms: C_6  and  C_7
REMARK    4  A    between atoms: C_11  and  O_12
REMARK    5  A    between atoms: C_14  and  O_15
REMARK    6  A    between atoms: C_19  and  O_20
REMARK    7  A    between atoms: O_20  and  C_21
REMARK    8  A    between atoms: C_23  and  O_24
REMARK                            x       y       z     vdW  Elec       q    Type
REMARK                         _______ _______ _______ _____ _____    ______ ____
ROOT
ATOM      1  C   UNL     1       9.142  14.649  18.453  0.00  0.00    +0.000 C 
ATOM      2  O   UNL     1       8.382  13.554  17.845  0.00  0.00    +0.000 OA
ATOM      3  C   UNL     1       8.982  12.325  17.994  0.00  0.00    +0.000 A 
ATOM      4  C   UNL     1       8.307  11.168  17.614  0.00  0.00    +0.000 A 
ATOM      5  C   UNL     1       8.616   9.991  18.284  0.00  0.00    +0.000 A 
ATOM      6  C   UNL     1       9.414  10.045  19.419  0.00  0.00    +0.000 A 
ATOM      7  C   UNL     1      10.161  11.200  19.653  0.00  0.00    +0.000 A 
ATOM      8  C   UNL     1      10.146  12.224  18.726  0.00  0.00    +0.000 A 
ATOM      9  C   UNL     1      11.141  13.318  18.493  0.00  0.00    +0.000 C 
ATOM     10  O   UNL     1      12.333  13.162  18.727  0.00  0.00    +0.000 OA
ATOM     11  C   UNL     1      10.549  14.607  17.824  0.00  0.00    +0.000 C 
ENDROOT
BRANCH   1  15
ATOM     12  C   UNL     1       9.339  15.203  22.832  0.00  0.00    +0.000 A 
ATOM     13  C   UNL     1      10.376  15.653  22.033  0.00  0.00    +0.000 A 
ATOM     14  C   UNL     1      10.290  15.464  20.647  0.00  0.00    +0.000 A 
ATOM     15  C   UNL     1       9.224  14.777  20.014  0.00  0.00    +0.000 A 
ATOM     16  C   UNL     1       8.212  14.287  20.852  0.00  0.00    +0.000 A 
ATOM     17  C   UNL     1       8.291  14.496  22.242  0.00  0.00    +0.000 A 
BRANCH  12  19
ATOM     18  C   UNL     1       9.846  16.841  24.415  0.00  0.00    +0.000 C 
ATOM     19  O   UNL     1       9.495  15.485  24.161  0.00  0.00    +0.000 OA
ENDBRANCH  12  19
BRANCH  17  20
ATOM     20  O   UNL     1       7.297  13.982  23.050  0.00  0.00    +0.000 OA
ATOM     21  H   UNL     1       6.666  13.502  22.494  0.00  0.00    +0.000 HD
ENDBRANCH  17  20
ENDBRANCH   1  15
BRANCH   5  22
ATOM     22  O   UNL     1       8.056   8.802  17.941  0.00  0.00    +0.000 OA
ATOM     23  H   UNL     1       7.908   8.817  16.977  0.00  0.00    +0.000 HD
ENDBRANCH   5  22
BRANCH   7  24
ATOM     24  O   UNL     1      10.637  11.416  20.914  0.00  0.00    +0.000 OA
ATOM     25  H   UNL     1      10.765  12.387  20.990  0.00  0.00    +0.000 HD
ENDBRANCH   7  24
BRANCH  11  26
ATOM     26  O   UNL     1      11.041  15.930  17.964  0.00  0.00    +0.000 OA
ATOM     27  C   UNL     1      10.487  16.913  17.123  0.00  0.00    +0.000 C 
ENDBRANCH  11  26
TORSDOF 6
ENDMDL
