MODEL 1
REMARK VINA RESULT:      -7.4      0.000      0.000
REMARK  Name = 
REMARK  11 active torsions:
REMARK  status: ('A' for Active; 'I' for Inactive)
REMARK    1  A    between atoms: C_2  and  C_4
REMARK    2  A    between atoms: C_4  and  C_5
REMARK    3  A    between atoms: C_5  and  O_6
REMARK    4  A    between atoms: C_5  and  C_7
REMARK    5  A    between atoms: C_7  and  C_8
REMARK    6  A    between atoms: C_8  and  O_9
REMARK    7  A    between atoms: C_8  and  C_10
REMARK    8  A    between atoms: C_11  and  C_12
REMARK    9  A    between atoms: C_12  and  C_28
REMARK   10  A    between atoms: C_13  and  C_14
REMARK   11  A    between atoms: C_13  and  C_21
REMARK                            x       y       z     vdW  Elec       q    Type
REMARK                         _______ _______ _______ _____ _____    ______ ____
ROOT
ATOM      1  C   UNL     1       5.176   5.741  17.821  0.00  0.00    +0.000 C 
ATOM      2  C   UNL     1       3.881   5.765  18.296  0.00  0.00    +0.000 C 
ENDROOT
BRANCH   2   3
ATOM      3  C   UNL     1       3.206   4.493  18.608  0.00  0.00    +0.000 A 
ATOM      4  C   UNL     1       3.387   3.872  19.849  0.00  0.00    +0.000 A 
ATOM      5  C   UNL     1       2.765   2.650  20.116  0.00  0.00    +0.000 A 
ATOM      6  C   UNL     1       1.969   2.062  19.140  0.00  0.00    +0.000 A 
ATOM      7  F   UNL     1       1.390   0.880  19.390  0.00  0.00    +0.000 F 
ATOM      8  C   UNL     1       1.771   2.672  17.913  0.00  0.00    +0.000 A 
ATOM      9  C   UNL     1       2.381   3.893  17.643  0.00  0.00    +0.000 A 
ENDBRANCH   2   3
BRANCH   2  10
ATOM     10  C   UNL     1       3.155   7.058  18.451  0.00  0.00    +0.000 A 
ATOM     11  C   UNL     1       2.449   7.324  19.636  0.00  0.00    +0.000 A 
ATOM     12  C   UNL     1       1.718   8.506  19.775  0.00  0.00    +0.000 A 
ATOM     13  C   UNL     1       1.700   9.424  18.734  0.00  0.00    +0.000 A 
ATOM     14  F   UNL     1       0.978  10.547  18.857  0.00  0.00    +0.000 F 
ATOM     15  C   UNL     1       2.413   9.193  17.563  0.00  0.00    +0.000 A 
ATOM     16  C   UNL     1       3.144   8.010  17.420  0.00  0.00    +0.000 A 
ENDBRANCH   2  10
BRANCH   1  17
ATOM     17  C   UNL     1       5.977   4.461  17.569  0.00  0.00    +0.000 C 
ATOM     18  N   UNL     1       7.162   4.324  18.439  0.00  0.00    +0.000 NA
ATOM     19  N   UNL     1       8.173   4.267  17.707  0.00  0.00    +0.000 NA
ATOM     20  N   UNL     1       7.802   4.341  16.355  0.00  0.00    +0.000 NA
ATOM     21  N   UNL     1       6.566   4.454  16.240  0.00  0.00    +0.000 NA
ENDBRANCH   1  17
BRANCH   1  23
ATOM     22  C   UNL     1       7.083   7.306  17.858  0.00  0.00    +0.000 C 
ATOM     23  C   UNL     1       5.829   6.990  17.497  0.00  0.00    +0.000 C 
BRANCH  22  24
ATOM     24  C   UNL     1       7.724   8.628  17.556  0.00  0.00    +0.000 C 
BRANCH  24  25
ATOM     25  O   UNL     1       6.694   9.613  17.473  0.00  0.00    +0.000 OA
ATOM     26  H   UNL     1       5.900   9.248  17.886  0.00  0.00    +0.000 HD
ENDBRANCH  24  25
BRANCH  24  27
ATOM     27  C   UNL     1       8.755   8.941  18.646  0.00  0.00    +0.000 C 
BRANCH  27  28
ATOM     28  C   UNL     1       8.982  10.436  18.909  0.00  0.00    +0.000 C 
BRANCH  28  29
ATOM     29  O   UNL     1       9.376  10.590  20.269  0.00  0.00    +0.000 OA
ATOM     30  H   UNL     1       9.180   9.760  20.739  0.00  0.00    +0.000 HD
ENDBRANCH  28  29
BRANCH  28  31
ATOM     31  C   UNL     1       9.997  11.040  17.953  0.00  0.00    +0.000 C 
BRANCH  31  33
ATOM     32  O   UNL     1      11.069  13.147  18.202  0.00  0.00    +0.000 OA
ATOM     33  C   UNL     1      11.018  11.936  18.574  0.00  0.00    +0.000 C 
ATOM     34  O   UNL     1      12.002  11.390  19.152  0.00  0.00    +0.000 OA
ENDBRANCH  31  33
ENDBRANCH  28  31
ENDBRANCH  27  28
ENDBRANCH  24  27
ENDBRANCH  22  24
ENDBRANCH   1  23
TORSDOF 11
ENDMDL
MODEL 2
REMARK VINA RESULT:      -7.4      5.892      9.356
REMARK  Name = 
REMARK  11 active torsions:
REMARK  status: ('A' for Active; 'I' for Inactive)
REMARK    1  A    between atoms: C_2  and  C_4
REMARK    2  A    between atoms: C_4  and  C_5
REMARK    3  A    between atoms: C_5  and  O_6
REMARK    4  A    between atoms: C_5  and  C_7
REMARK    5  A    between atoms: C_7  and  C_8
REMARK    6  A    between atoms: C_8  and  O_9
REMARK    7  A    between atoms: C_8  and  C_10
REMARK    8  A    between atoms: C_11  and  C_12
REMARK    9  A    between atoms: C_12  and  C_28
REMARK   10  A    between atoms: C_13  and  C_14
REMARK   11  A    between atoms: C_13  and  C_21
REMARK                            x       y       z     vdW  Elec       q    Type
REMARK                         _______ _______ _______ _____ _____    ______ ____
ROOT
ATOM      1  C   UNL     1      -0.546  10.779  20.299  0.00  0.00    +0.000 C 
ATOM      2  C   UNL     1      -1.556  11.470  19.661  0.00  0.00    +0.000 C 
ENDROOT
BRANCH   2   3
ATOM      3  C   UNL     1      -2.116  12.675  20.298  0.00  0.00    +0.000 A 
ATOM      4  C   UNL     1      -3.358  12.633  20.943  0.00  0.00    +0.000 A 
ATOM      5  C   UNL     1      -3.888  13.792  21.514  0.00  0.00    +0.000 A 
ATOM      6  C   UNL     1      -3.172  14.981  21.434  0.00  0.00    +0.000 A 
ATOM      7  F   UNL     1      -3.692  16.097  21.963  0.00  0.00    +0.000 F 
ATOM      8  C   UNL     1      -1.937  15.034  20.811  0.00  0.00    +0.000 A 
ATOM      9  C   UNL     1      -1.399  13.881  20.247  0.00  0.00    +0.000 A 
ENDBRANCH   2   3
BRANCH   2  10
ATOM     10  C   UNL     1      -2.105  10.982  18.364  0.00  0.00    +0.000 A 
ATOM     11  C   UNL     1      -1.887  11.723  17.191  0.00  0.00    +0.000 A 
ATOM     12  C   UNL     1      -2.442  11.309  15.978  0.00  0.00    +0.000 A 
ATOM     13  C   UNL     1      -3.207  10.151  15.937  0.00  0.00    +0.000 A 
ATOM     14  F   UNL     1      -3.761   9.768  14.778  0.00  0.00    +0.000 F 
ATOM     15  C   UNL     1      -3.413   9.389  17.081  0.00  0.00    +0.000 A 
ATOM     16  C   UNL     1      -2.861   9.801  18.297  0.00  0.00    +0.000 A 
ENDBRANCH   2  10
BRANCH   1  17
ATOM     17  C   UNL     1       0.035  11.167  21.661  0.00  0.00    +0.000 C 
ATOM     18  N   UNL     1       1.233  10.390  22.036  0.00  0.00    +0.000 NA
ATOM     19  N   UNL     1       0.982   9.784  23.100  0.00  0.00    +0.000 NA
ATOM     20  N   UNL     1      -0.320  10.079  23.534  0.00  0.00    +0.000 NA
ATOM     21  N   UNL     1      -0.886  10.858  22.742  0.00  0.00    +0.000 NA
ENDBRANCH   1  17
BRANCH   1  23
ATOM     22  C   UNL     1       1.147   9.535  19.005  0.00  0.00    +0.000 C 
ATOM     23  C   UNL     1      -0.012   9.586  19.681  0.00  0.00    +0.000 C 
BRANCH  22  24
ATOM     24  C   UNL     1       1.658   8.300  18.328  0.00  0.00    +0.000 C 
BRANCH  24  25
ATOM     25  O   UNL     1       2.527   8.699  17.269  0.00  0.00    +0.000 OA
ATOM     26  H   UNL     1       2.564   9.665  17.262  0.00  0.00    +0.000 HD
ENDBRANCH  24  25
BRANCH  24  27
ATOM     27  C   UNL     1       2.360   7.417  19.367  0.00  0.00    +0.000 C 
BRANCH  27  28
ATOM     28  C   UNL     1       2.724   6.010  18.878  0.00  0.00    +0.000 C 
BRANCH  28  29
ATOM     29  O   UNL     1       1.941   5.727  17.722  0.00  0.00    +0.000 OA
ATOM     30  H   UNL     1       1.929   6.522  17.160  0.00  0.00    +0.000 HD
ENDBRANCH  28  29
BRANCH  28  31
ATOM     31  C   UNL     1       4.212   5.863  18.605  0.00  0.00    +0.000 C 
BRANCH  31  33
ATOM     32  O   UNL     1       4.648   6.782  16.457  0.00  0.00    +0.000 OA
ATOM     33  C   UNL     1       4.597   5.733  17.168  0.00  0.00    +0.000 C 
ATOM     34  O   UNL     1       4.498   4.589  16.637  0.00  0.00    +0.000 OA
ENDBRANCH  31  33
ENDBRANCH  28  31
ENDBRANCH  27  28
ENDBRANCH  24  27
ENDBRANCH  22  24
ENDBRANCH   1  23
TORSDOF 11
ENDMDL
MODEL 3
REMARK VINA RESULT:      -7.3      0.169      1.331
REMARK  Name = 
REMARK  11 active torsions:
REMARK  status: ('A' for Active; 'I' for Inactive)
REMARK    1  A    between atoms: C_2  and  C_4
REMARK    2  A    between atoms: C_4  and  C_5
REMARK    3  A    between atoms: C_5  and  O_6
REMARK    4  A    between atoms: C_5  and  C_7
REMARK    5  A    between atoms: C_7  and  C_8
REMARK    6  A    between atoms: C_8  and  O_9
REMARK    7  A    between atoms: C_8  and  C_10
REMARK    8  A    between atoms: C_11  and  C_12
REMARK    9  A    between atoms: C_12  and  C_28
REMARK   10  A    between atoms: C_13  and  C_14
REMARK   11  A    between atoms: C_13  and  C_21
REMARK                            x       y       z     vdW  Elec       q    Type
REMARK                         _______ _______ _______ _____ _____    ______ ____
ROOT
ATOM      1  C   UNL     1       5.170   5.707  17.873  0.00  0.00    +0.000 C 
ATOM      2  C   UNL     1       3.864   5.712  18.317  0.00  0.00    +0.000 C 
ENDROOT
BRANCH   2   3
ATOM      3  C   UNL     1       3.200   4.430  18.613  0.00  0.00    +0.000 A 
ATOM      4  C   UNL     1       2.449   3.769  17.634  0.00  0.00    +0.000 A 
ATOM      5  C   UNL     1       1.801   2.571  17.942  0.00  0.00    +0.000 A 
ATOM      6  C   UNL     1       1.910   2.046  19.224  0.00  0.00    +0.000 A 
ATOM      7  F   UNL     1       1.270   0.907  19.524  0.00  0.00    +0.000 F 
ATOM      8  C   UNL     1       2.661   2.682  20.198  0.00  0.00    +0.000 A 
ATOM      9  C   UNL     1       3.316   3.872  19.896  0.00  0.00    +0.000 A 
ENDBRANCH   2   3
BRANCH   2  10
ATOM     10  C   UNL     1       3.115   6.994  18.454  0.00  0.00    +0.000 A 
ATOM     11  C   UNL     1       3.133   7.928  17.404  0.00  0.00    +0.000 A 
ATOM     12  C   UNL     1       2.485   9.157  17.538  0.00  0.00    +0.000 A 
ATOM     13  C   UNL     1       1.811   9.449  18.716  0.00  0.00    +0.000 A 
ATOM     14  F   UNL     1       1.209  10.638  18.854  0.00  0.00    +0.000 F 
ATOM     15  C   UNL     1       1.757   8.528  19.757  0.00  0.00    +0.000 A 
ATOM     16  C   UNL     1       2.408   7.297  19.627  0.00  0.00    +0.000 A 
ENDBRANCH   2  10
BRANCH   1  17
ATOM     17  C   UNL     1       5.995   4.439  17.642  0.00  0.00    +0.000 C 
ATOM     18  N   UNL     1       7.209   4.362  18.478  0.00  0.00    +0.000 NA
ATOM     19  N   UNL     1       8.199   4.304  17.718  0.00  0.00    +0.000 NA
ATOM     20  N   UNL     1       7.786   4.321  16.377  0.00  0.00    +0.000 NA
ATOM     21  N   UNL     1       6.545   4.399  16.296  0.00  0.00    +0.000 NA
ENDBRANCH   1  17
BRANCH   1  23
ATOM     22  C   UNL     1       7.096   7.250  17.840  0.00  0.00    +0.000 C 
ATOM     23  C   UNL     1       5.812   6.965  17.565  0.00  0.00    +0.000 C 
BRANCH  22  24
ATOM     24  C   UNL     1       7.727   8.580  17.557  0.00  0.00    +0.000 C 
BRANCH  24  25
ATOM     25  O   UNL     1       6.689   9.553  17.450  0.00  0.00    +0.000 OA
ATOM     26  H   UNL     1       6.246   9.422  16.600  0.00  0.00    +0.000 HD
ENDBRANCH  24  25
BRANCH  24  27
ATOM     27  C   UNL     1       8.726   8.903  18.675  0.00  0.00    +0.000 C 
BRANCH  27  28
ATOM     28  C   UNL     1       8.960  10.399  18.918  0.00  0.00    +0.000 C 
BRANCH  28  29
ATOM     29  O   UNL     1       9.346  10.571  20.279  0.00  0.00    +0.000 OA
ATOM     30  H   UNL     1       9.512   9.691  20.662  0.00  0.00    +0.000 HD
ENDBRANCH  28  29
BRANCH  28  31
ATOM     31  C   UNL     1       9.986  10.984  17.960  0.00  0.00    +0.000 C 
BRANCH  31  33
ATOM     32  O   UNL     1      12.033  11.390  19.097  0.00  0.00    +0.000 OA
ATOM     33  C   UNL     1      10.996  11.898  18.572  0.00  0.00    +0.000 C 
ATOM     34  O   UNL     1      10.622  13.070  18.867  0.00  0.00    +0.000 OA
ENDBRANCH  31  33
ENDBRANCH  28  31
ENDBRANCH  27  28
ENDBRANCH  24  27
ENDBRANCH  22  24
ENDBRANCH   1  23
TORSDOF 11
ENDMDL
MODEL 4
REMARK VINA RESULT:      -7.3      6.123      9.739
REMARK  Name = 
REMARK  11 active torsions:
REMARK  status: ('A' for Active; 'I' for Inactive)
REMARK    1  A    between atoms: C_2  and  C_4
REMARK    2  A    between atoms: C_4  and  C_5
REMARK    3  A    between atoms: C_5  and  O_6
REMARK    4  A    between atoms: C_5  and  C_7
REMARK    5  A    between atoms: C_7  and  C_8
REMARK    6  A    between atoms: C_8  and  O_9
REMARK    7  A    between atoms: C_8  and  C_10
REMARK    8  A    between atoms: C_11  and  C_12
REMARK    9  A    between atoms: C_12  and  C_28
REMARK   10  A    between atoms: C_13  and  C_14
REMARK   11  A    between atoms: C_13  and  C_21
REMARK                            x       y       z     vdW  Elec       q    Type
REMARK                         _______ _______ _______ _____ _____    ______ ____
ROOT
ATOM      1  C   UNL     1      -0.637  10.850  20.308  0.00  0.00    +0.000 C 
ATOM      2  C   UNL     1      -1.665  11.526  19.683  0.00  0.00    +0.000 C 
ENDROOT
BRANCH   2   3
ATOM      3  C   UNL     1      -2.262  12.699  20.347  0.00  0.00    +0.000 A 
ATOM      4  C   UNL     1      -1.609  13.937  20.338  0.00  0.00    +0.000 A 
ATOM      5  C   UNL     1      -2.175  15.030  20.999  0.00  0.00    +0.000 A 
ATOM      6  C   UNL     1      -3.386  14.873  21.664  0.00  0.00    +0.000 A 
ATOM      7  F   UNL     1      -3.916  15.916  22.316  0.00  0.00    +0.000 F 
ATOM      8  C   UNL     1      -4.048  13.657  21.670  0.00  0.00    +0.000 A 
ATOM      9  C   UNL     1      -3.495  12.567  21.005  0.00  0.00    +0.000 A 
ENDBRANCH   2   3
BRANCH   2  10
ATOM     10  C   UNL     1      -2.197  11.053  18.373  0.00  0.00    +0.000 A 
ATOM     11  C   UNL     1      -2.953   9.871  18.314  0.00  0.00    +0.000 A 
ATOM     12  C   UNL     1      -3.410   9.384  17.088  0.00  0.00    +0.000 A 
ATOM     13  C   UNL     1      -3.120  10.082  15.923  0.00  0.00    +0.000 A 
ATOM     14  F   UNL     1      -3.539   9.602  14.744  0.00  0.00    +0.000 F 
ATOM     15  C   UNL     1      -2.397  11.269  15.963  0.00  0.00    +0.000 A 
ATOM     16  C   UNL     1      -1.935  11.758  17.189  0.00  0.00    +0.000 A 
ENDBRANCH   2  10
BRANCH   1  17
ATOM     17  C   UNL     1      -0.070  11.223  21.680  0.00  0.00    +0.000 C 
ATOM     18  N   UNL     1       1.148  10.473  22.041  0.00  0.00    +0.000 NA
ATOM     19  N   UNL     1       0.912   9.835  23.089  0.00  0.00    +0.000 NA
ATOM     20  N   UNL     1      -0.399  10.081  23.526  0.00  0.00    +0.000 NA
ATOM     21  N   UNL     1      -0.985  10.861  22.750  0.00  0.00    +0.000 NA
ENDBRANCH   1  17
BRANCH   1  23
ATOM     22  C   UNL     1       0.979   9.726  18.820  0.00  0.00    +0.000 C 
ATOM     23  C   UNL     1      -0.066   9.689  19.663  0.00  0.00    +0.000 C 
BRANCH  22  24
ATOM     24  C   UNL     1       1.524   8.516  18.123  0.00  0.00    +0.000 C 
BRANCH  24  25
ATOM     25  O   UNL     1       2.554   8.942  17.231  0.00  0.00    +0.000 OA
ATOM     26  H   UNL     1       2.569   8.332  16.481  0.00  0.00    +0.000 HD
ENDBRANCH  24  25
BRANCH  24  27
ATOM     27  C   UNL     1       2.027   7.520  19.174  0.00  0.00    +0.000 C 
BRANCH  27  28
ATOM     28  C   UNL     1       2.901   6.386  18.622  0.00  0.00    +0.000 C 
BRANCH  28  29
ATOM     29  O   UNL     1       3.703   5.888  19.688  0.00  0.00    +0.000 OA
ATOM     30  H   UNL     1       4.210   6.631  20.061  0.00  0.00    +0.000 HD
ENDBRANCH  28  29
BRANCH  28  31
ATOM     31  C   UNL     1       2.074   5.288  17.973  0.00  0.00    +0.000 C 
BRANCH  31  33
ATOM     32  O   UNL     1       2.052   2.926  18.235  0.00  0.00    +0.000 OA
ATOM     33  C   UNL     1       1.883   4.053  18.791  0.00  0.00    +0.000 C 
ATOM     34  O   UNL     1       1.222   4.159  19.864  0.00  0.00    +0.000 OA
ENDBRANCH  31  33
ENDBRANCH  28  31
ENDBRANCH  27  28
ENDBRANCH  24  27
ENDBRANCH  22  24
ENDBRANCH   1  23
TORSDOF 11
ENDMDL
MODEL 5
REMARK VINA RESULT:      -7.2      6.241      9.778
REMARK  Name = 
REMARK  11 active torsions:
REMARK  status: ('A' for Active; 'I' for Inactive)
REMARK    1  A    between atoms: C_2  and  C_4
REMARK    2  A    between atoms: C_4  and  C_5
REMARK    3  A    between atoms: C_5  and  O_6
REMARK    4  A    between atoms: C_5  and  C_7
REMARK    5  A    between atoms: C_7  and  C_8
REMARK    6  A    between atoms: C_8  and  O_9
REMARK    7  A    between atoms: C_8  and  C_10
REMARK    8  A    between atoms: C_11  and  C_12
REMARK    9  A    between atoms: C_12  and  C_28
REMARK   10  A    between atoms: C_13  and  C_14
REMARK   11  A    between atoms: C_13  and  C_21
REMARK                            x       y       z     vdW  Elec       q    Type
REMARK                         _______ _______ _______ _____ _____    ______ ____
ROOT
ATOM      1  C   UNL     1      -1.030  11.244  20.440  0.00  0.00    +0.000 C 
ATOM      2  C   UNL     1      -2.092  11.973  19.944  0.00  0.00    +0.000 C 
ENDROOT
BRANCH   2   3
ATOM      3  C   UNL     1      -2.665  13.056  20.764  0.00  0.00    +0.000 A 
ATOM      4  C   UNL     1      -3.745  12.811  21.620  0.00  0.00    +0.000 A 
ATOM      5  C   UNL     1      -4.296  13.856  22.365  0.00  0.00    +0.000 A 
ATOM      6  C   UNL     1      -3.762  15.134  22.247  0.00  0.00    +0.000 A 
ATOM      7  F   UNL     1      -4.305  16.139  22.946  0.00  0.00    +0.000 F 
ATOM      8  C   UNL     1      -2.686  15.387  21.414  0.00  0.00    +0.000 A 
ATOM      9  C   UNL     1      -2.126  14.349  20.675  0.00  0.00    +0.000 A 
ENDBRANCH   2   3
BRANCH   2  10
ATOM     10  C   UNL     1      -2.682  11.644  18.616  0.00  0.00    +0.000 A 
ATOM     11  C   UNL     1      -4.037  11.281  18.525  0.00  0.00    +0.000 A 
ATOM     12  C   UNL     1      -4.591  10.915  17.297  0.00  0.00    +0.000 A 
ATOM     13  C   UNL     1      -3.795  10.920  16.159  0.00  0.00    +0.000 A 
ATOM     14  F   UNL     1      -4.321  10.545  14.985  0.00  0.00    +0.000 F 
ATOM     15  C   UNL     1      -2.460  11.302  16.222  0.00  0.00    +0.000 A 
ATOM     16  C   UNL     1      -1.901  11.667  17.451  0.00  0.00    +0.000 A 
ENDBRANCH   2  10
BRANCH   1  17
ATOM     17  C   UNL     1      -0.401  11.467  21.817  0.00  0.00    +0.000 C 
ATOM     18  N   UNL     1       0.898  10.789  21.991  0.00  0.00    +0.000 NA
ATOM     19  N   UNL     1       0.790   9.988  22.944  0.00  0.00    +0.000 NA
ATOM     20  N   UNL     1      -0.502  10.046  23.488  0.00  0.00    +0.000 NA
ATOM     21  N   UNL     1      -1.205  10.872  22.873  0.00  0.00    +0.000 NA
ENDBRANCH   1  17
BRANCH   1  23
ATOM     22  C   UNL     1       0.734  10.190  19.075  0.00  0.00    +0.000 C 
ATOM     23  C   UNL     1      -0.483  10.169  19.642  0.00  0.00    +0.000 C 
BRANCH  22  24
ATOM     24  C   UNL     1       1.262   9.086  18.209  0.00  0.00    +0.000 C 
BRANCH  24  25
ATOM     25  O   UNL     1       2.050   9.671  17.172  0.00  0.00    +0.000 OA
ATOM     26  H   UNL     1       2.756  10.185  17.589  0.00  0.00    +0.000 HD
ENDBRANCH  24  25
BRANCH  24  27
ATOM     27  C   UNL     1       2.063   8.111  19.079  0.00  0.00    +0.000 C 
BRANCH  27  28
ATOM     28  C   UNL     1       2.678   6.926  18.323  0.00  0.00    +0.000 C 
BRANCH  28  29
ATOM     29  O   UNL     1       3.803   7.405  17.591  0.00  0.00    +0.000 OA
ATOM     30  H   UNL     1       4.505   7.632  18.226  0.00  0.00    +0.000 HD
ENDBRANCH  28  29
BRANCH  28  31
ATOM     31  C   UNL     1       3.051   5.782  19.252  0.00  0.00    +0.000 C 
BRANCH  31  33
ATOM     32  O   UNL     1       5.032   4.469  19.290  0.00  0.00    +0.000 OA
ATOM     33  C   UNL     1       3.959   4.748  18.673  0.00  0.00    +0.000 C 
ATOM     34  O   UNL     1       3.819   4.466  17.447  0.00  0.00    +0.000 OA
ENDBRANCH  31  33
ENDBRANCH  28  31
ENDBRANCH  27  28
ENDBRANCH  24  27
ENDBRANCH  22  24
ENDBRANCH   1  23
TORSDOF 11
ENDMDL
MODEL 6
REMARK VINA RESULT:      -7.2      6.076      9.661
REMARK  Name = 
REMARK  11 active torsions:
REMARK  status: ('A' for Active; 'I' for Inactive)
REMARK    1  A    between atoms: C_2  and  C_4
REMARK    2  A    between atoms: C_4  and  C_5
REMARK    3  A    between atoms: C_5  and  O_6
REMARK    4  A    between atoms: C_5  and  C_7
REMARK    5  A    between atoms: C_7  and  C_8
REMARK    6  A    between atoms: C_8  and  O_9
REMARK    7  A    between atoms: C_8  and  C_10
REMARK    8  A    between atoms: C_11  and  C_12
REMARK    9  A    between atoms: C_12  and  C_28
REMARK   10  A    between atoms: C_13  and  C_14
REMARK   11  A    between atoms: C_13  and  C_21
REMARK                            x       y       z     vdW  Elec       q    Type
REMARK                         _______ _______ _______ _____ _____    ______ ____
ROOT
ATOM      1  C   UNL     1      -0.523  10.813  20.345  0.00  0.00    +0.000 C 
ATOM      2  C   UNL     1      -1.579  11.502  19.783  0.00  0.00    +0.000 C 
ENDROOT
BRANCH   2   3
ATOM      3  C   UNL     1      -2.152  12.652  20.506  0.00  0.00    +0.000 A 
ATOM      4  C   UNL     1      -3.341  12.520  21.233  0.00  0.00    +0.000 A 
ATOM      5  C   UNL     1      -3.887  13.628  21.886  0.00  0.00    +0.000 A 
ATOM      6  C   UNL     1      -3.240  14.856  21.803  0.00  0.00    +0.000 A 
ATOM      7  F   UNL     1      -3.777  15.922  22.411  0.00  0.00    +0.000 F 
ATOM      8  C   UNL     1      -2.058  14.997  21.098  0.00  0.00    +0.000 A 
ATOM      9  C   UNL     1      -1.503  13.895  20.452  0.00  0.00    +0.000 A 
ENDBRANCH   2   3
BRANCH   2  10
ATOM     10  C   UNL     1      -2.164  11.065  18.483  0.00  0.00    +0.000 A 
ATOM     11  C   UNL     1      -2.959   9.908  18.431  0.00  0.00    +0.000 A 
ATOM     12  C   UNL     1      -3.467   9.452  17.213  0.00  0.00    +0.000 A 
ATOM     13  C   UNL     1      -3.188  10.158  16.049  0.00  0.00    +0.000 A 
ATOM     14  F   UNL     1      -3.655   9.708  14.877  0.00  0.00    +0.000 F 
ATOM     15  C   UNL     1      -2.426  11.321  16.083  0.00  0.00    +0.000 A 
ATOM     16  C   UNL     1      -1.914  11.778  17.302  0.00  0.00    +0.000 A 
ENDBRANCH   2  10
BRANCH   1  17
ATOM     17  C   UNL     1       0.099  11.149  21.702  0.00  0.00    +0.000 C 
ATOM     18  N   UNL     1       1.315  10.369  22.005  0.00  0.00    +0.000 NA
ATOM     19  N   UNL     1       1.104   9.716  23.049  0.00  0.00    +0.000 NA
ATOM     20  N   UNL     1      -0.186   9.978  23.537  0.00  0.00    +0.000 NA
ATOM     21  N   UNL     1      -0.784  10.784  22.798  0.00  0.00    +0.000 NA
ENDBRANCH   1  17
BRANCH   1  23
ATOM     22  C   UNL     1       1.086   9.727  18.822  0.00  0.00    +0.000 C 
ATOM     23  C   UNL     1       0.024   9.674  19.643  0.00  0.00    +0.000 C 
BRANCH  22  24
ATOM     24  C   UNL     1       1.606   8.543  18.064  0.00  0.00    +0.000 C 
BRANCH  24  25
ATOM     25  O   UNL     1       2.555   9.010  17.106  0.00  0.00    +0.000 OA
ATOM     26  H   UNL     1       3.194   8.301  16.950  0.00  0.00    +0.000 HD
ENDBRANCH  24  25
BRANCH  24  27
ATOM     27  C   UNL     1       2.212   7.544  19.057  0.00  0.00    +0.000 C 
BRANCH  27  28
ATOM     28  C   UNL     1       2.746   6.251  18.427  0.00  0.00    +0.000 C 
BRANCH  28  29
ATOM     29  O   UNL     1       4.126   6.135  18.759  0.00  0.00    +0.000 OA
ATOM     30  H   UNL     1       4.356   6.861  19.366  0.00  0.00    +0.000 HD
ENDBRANCH  28  29
BRANCH  28  31
ATOM     31  C   UNL     1       1.953   5.030  18.864  0.00  0.00    +0.000 C 
BRANCH  31  33
ATOM     32  O   UNL     1       1.226   2.966  17.935  0.00  0.00    +0.000 OA
ATOM     33  C   UNL     1       2.182   3.790  18.062  0.00  0.00    +0.000 C 
ATOM     34  O   UNL     1       3.379   3.437  17.859  0.00  0.00    +0.000 OA
ENDBRANCH  31  33
ENDBRANCH  28  31
ENDBRANCH  27  28
ENDBRANCH  24  27
ENDBRANCH  22  24
ENDBRANCH   1  23
TORSDOF 11
ENDMDL
MODEL 7
REMARK VINA RESULT:      -7.2      6.005      9.435
REMARK  Name = 
REMARK  11 active torsions:
REMARK  status: ('A' for Active; 'I' for Inactive)
REMARK    1  A    between atoms: C_2  and  C_4
REMARK    2  A    between atoms: C_4  and  C_5
REMARK    3  A    between atoms: C_5  and  O_6
REMARK    4  A    between atoms: C_5  and  C_7
REMARK    5  A    between atoms: C_7  and  C_8
REMARK    6  A    between atoms: C_8  and  O_9
REMARK    7  A    between atoms: C_8  and  C_10
REMARK    8  A    between atoms: C_11  and  C_12
REMARK    9  A    between atoms: C_12  and  C_28
REMARK   10  A    between atoms: C_13  and  C_14
REMARK   11  A    between atoms: C_13  and  C_21
REMARK                            x       y       z     vdW  Elec       q    Type
REMARK                         _______ _______ _______ _____ _____    ______ ____
ROOT
ATOM      1  C   UNL     1      -0.539  10.762  20.313  0.00  0.00    +0.000 C 
ATOM      2  C   UNL     1      -1.543  11.464  19.679  0.00  0.00    +0.000 C 
ENDROOT
BRANCH   2   3
ATOM      3  C   UNL     1      -2.087  12.677  20.316  0.00  0.00    +0.000 A 
ATOM      4  C   UNL     1      -1.383  13.886  20.273  0.00  0.00    +0.000 A 
ATOM      5  C   UNL     1      -1.898  15.017  20.910  0.00  0.00    +0.000 A 
ATOM      6  C   UNL     1      -3.111  14.928  21.584  0.00  0.00    +0.000 A 
ATOM      7  F   UNL     1      -3.593  16.008  22.213  0.00  0.00    +0.000 F 
ATOM      8  C   UNL     1      -3.823  13.742  21.624  0.00  0.00    +0.000 A 
ATOM      9  C   UNL     1      -3.320  12.613  20.984  0.00  0.00    +0.000 A 
ENDBRANCH   2   3
BRANCH   2  10
ATOM     10  C   UNL     1      -2.105  10.980  18.385  0.00  0.00    +0.000 A 
ATOM     11  C   UNL     1      -1.882  11.716  17.209  0.00  0.00    +0.000 A 
ATOM     12  C   UNL     1      -2.447  11.307  16.000  0.00  0.00    +0.000 A 
ATOM     13  C   UNL     1      -3.227  10.158  15.964  0.00  0.00    +0.000 A 
ATOM     14  F   UNL     1      -3.789   9.779  14.808  0.00  0.00    +0.000 F 
ATOM     15  C   UNL     1      -3.437   9.400  17.110  0.00  0.00    +0.000 A 
ATOM     16  C   UNL     1      -2.874   9.809  18.324  0.00  0.00    +0.000 A 
ENDBRANCH   2  10
BRANCH   1  17
ATOM     17  C   UNL     1       0.053  11.147  21.671  0.00  0.00    +0.000 C 
ATOM     18  N   UNL     1       1.254  10.369  22.035  0.00  0.00    +0.000 NA
ATOM     19  N   UNL     1       1.011   9.759  23.098  0.00  0.00    +0.000 NA
ATOM     20  N   UNL     1      -0.287  10.052  23.544  0.00  0.00    +0.000 NA
ATOM     21  N   UNL     1      -0.859  10.833  22.758  0.00  0.00    +0.000 NA
ENDBRANCH   1  17
BRANCH   1  23
ATOM     22  C   UNL     1       1.167   9.481  19.074  0.00  0.00    +0.000 C 
ATOM     23  C   UNL     1      -0.021   9.563  19.695  0.00  0.00    +0.000 C 
BRANCH  22  24
ATOM     24  C   UNL     1       1.663   8.241  18.395  0.00  0.00    +0.000 C 
BRANCH  24  25
ATOM     25  O   UNL     1       2.474   8.633  17.288  0.00  0.00    +0.000 OA
ATOM     26  H   UNL     1       2.989   9.406  17.556  0.00  0.00    +0.000 HD
ENDBRANCH  24  25
BRANCH  24  27
ATOM     27  C   UNL     1       2.426   7.387  19.413  0.00  0.00    +0.000 C 
BRANCH  27  28
ATOM     28  C   UNL     1       2.771   5.969  18.939  0.00  0.00    +0.000 C 
BRANCH  28  29
ATOM     29  O   UNL     1       1.967   5.676  17.800  0.00  0.00    +0.000 OA
ATOM     30  H   UNL     1       1.077   6.040  17.954  0.00  0.00    +0.000 HD
ENDBRANCH  28  29
BRANCH  28  31
ATOM     31  C   UNL     1       4.253   5.807  18.643  0.00  0.00    +0.000 C 
BRANCH  31  33
ATOM     32  O   UNL     1       4.126   3.696  17.557  0.00  0.00    +0.000 OA
ATOM     33  C   UNL     1       4.720   4.405  18.425  0.00  0.00    +0.000 C 
ATOM     34  O   UNL     1       5.417   3.871  19.336  0.00  0.00    +0.000 OA
ENDBRANCH  31  33
ENDBRANCH  28  31
ENDBRANCH  27  28
ENDBRANCH  24  27
ENDBRANCH  22  24
ENDBRANCH   1  23
TORSDOF 11
ENDMDL
MODEL 8
REMARK VINA RESULT:      -7.2      0.873      1.388
REMARK  Name = 
REMARK  11 active torsions:
REMARK  status: ('A' for Active; 'I' for Inactive)
REMARK    1  A    between atoms: C_2  and  C_4
REMARK    2  A    between atoms: C_4  and  C_5
REMARK    3  A    between atoms: C_5  and  O_6
REMARK    4  A    between atoms: C_5  and  C_7
REMARK    5  A    between atoms: C_7  and  C_8
REMARK    6  A    between atoms: C_8  and  O_9
REMARK    7  A    between atoms: C_8  and  C_10
REMARK    8  A    between atoms: C_11  and  C_12
REMARK    9  A    between atoms: C_12  and  C_28
REMARK   10  A    between atoms: C_13  and  C_14
REMARK   11  A    between atoms: C_13  and  C_21
REMARK                            x       y       z     vdW  Elec       q    Type
REMARK                         _______ _______ _______ _____ _____    ______ ____
ROOT
ATOM      1  C   UNL     1       5.196   5.726  17.807  0.00  0.00    +0.000 C 
ATOM      2  C   UNL     1       3.900   5.725  18.281  0.00  0.00    +0.000 C 
ENDROOT
BRANCH   2   3
ATOM      3  C   UNL     1       3.241   4.439  18.570  0.00  0.00    +0.000 A 
ATOM      4  C   UNL     1       2.393   3.842  17.630  0.00  0.00    +0.000 A 
ATOM      5  C   UNL     1       1.752   2.638  17.934  0.00  0.00    +0.000 A 
ATOM      6  C   UNL     1       1.965   2.045  19.173  0.00  0.00    +0.000 A 
ATOM      7  F   UNL     1       1.333   0.902  19.470  0.00  0.00    +0.000 F 
ATOM      8  C   UNL     1       2.811   2.619  20.106  0.00  0.00    +0.000 A 
ATOM      9  C   UNL     1       3.460   3.813  19.808  0.00  0.00    +0.000 A 
ENDBRANCH   2   3
BRANCH   2  10
ATOM     10  C   UNL     1       3.158   7.006  18.458  0.00  0.00    +0.000 A 
ATOM     11  C   UNL     1       2.460   7.248  19.653  0.00  0.00    +0.000 A 
ATOM     12  C   UNL     1       1.713   8.417  19.812  0.00  0.00    +0.000 A 
ATOM     13  C   UNL     1       1.672   9.348  18.782  0.00  0.00    +0.000 A 
ATOM     14  F   UNL     1       0.936  10.458  18.925  0.00  0.00    +0.000 F 
ATOM     15  C   UNL     1       2.377   9.140  17.602  0.00  0.00    +0.000 A 
ATOM     16  C   UNL     1       3.124   7.969  17.438  0.00  0.00    +0.000 A 
ENDBRANCH   2  10
BRANCH   1  17
ATOM     17  C   UNL     1       6.013   4.461  17.534  0.00  0.00    +0.000 C 
ATOM     18  N   UNL     1       7.200   4.324  18.401  0.00  0.00    +0.000 NA
ATOM     19  N   UNL     1       8.211   4.293  17.669  0.00  0.00    +0.000 NA
ATOM     20  N   UNL     1       7.840   4.385  16.318  0.00  0.00    +0.000 NA
ATOM     21  N   UNL     1       6.602   4.484  16.205  0.00  0.00    +0.000 NA
ENDBRANCH   1  17
BRANCH   1  23
ATOM     22  C   UNL     1       7.095   7.301  17.843  0.00  0.00    +0.000 C 
ATOM     23  C   UNL     1       5.833   6.988  17.506  0.00  0.00    +0.000 C 
BRANCH  22  24
ATOM     24  C   UNL     1       7.719   8.635  17.565  0.00  0.00    +0.000 C 
BRANCH  24  25
ATOM     25  O   UNL     1       6.674   9.571  17.302  0.00  0.00    +0.000 OA
ATOM     26  H   UNL     1       5.857   9.073  17.167  0.00  0.00    +0.000 HD
ENDBRANCH  24  25
BRANCH  24  27
ATOM     27  C   UNL     1       8.584   9.039  18.765  0.00  0.00    +0.000 C 
BRANCH  27  28
ATOM     28  C   UNL     1       9.446  10.289  18.549  0.00  0.00    +0.000 C 
BRANCH  28  29
ATOM     29  O   UNL     1       8.644  11.272  17.899  0.00  0.00    +0.000 OA
ATOM     30  H   UNL     1       9.227  11.825  17.348  0.00  0.00    +0.000 HD
ENDBRANCH  28  29
BRANCH  28  31
ATOM     31  C   UNL     1      10.039  10.811  19.848  0.00  0.00    +0.000 C 
BRANCH  31  33
ATOM     32  O   UNL     1       9.529  13.131  19.910  0.00  0.00    +0.000 OA
ATOM     33  C   UNL     1       9.351  11.995  20.444  0.00  0.00    +0.000 C 
ATOM     34  O   UNL     1       8.932  11.891  21.633  0.00  0.00    +0.000 OA
ENDBRANCH  31  33
ENDBRANCH  28  31
ENDBRANCH  27  28
ENDBRANCH  24  27
ENDBRANCH  22  24
ENDBRANCH   1  23
TORSDOF 11
ENDMDL
MODEL 9
REMARK VINA RESULT:      -7.1      0.767      1.379
REMARK  Name = 
REMARK  11 active torsions:
REMARK  status: ('A' for Active; 'I' for Inactive)
REMARK    1  A    between atoms: C_2  and  C_4
REMARK    2  A    between atoms: C_4  and  C_5
REMARK    3  A    between atoms: C_5  and  O_6
REMARK    4  A    between atoms: C_5  and  C_7
REMARK    5  A    between atoms: C_7  and  C_8
REMARK    6  A    between atoms: C_8  and  O_9
REMARK    7  A    between atoms: C_8  and  C_10
REMARK    8  A    between atoms: C_11  and  C_12
REMARK    9  A    between atoms: C_12  and  C_28
REMARK   10  A    between atoms: C_13  and  C_14
REMARK   11  A    between atoms: C_13  and  C_21
REMARK                            x       y       z     vdW  Elec       q    Type
REMARK                         _______ _______ _______ _____ _____    ______ ____
ROOT
ATOM      1  C   UNL     1       5.225   5.762  17.745  0.00  0.00    +0.000 C 
ATOM      2  C   UNL     1       3.935   5.741  18.236  0.00  0.00    +0.000 C 
ENDROOT
BRANCH   2   3
ATOM      3  C   UNL     1       3.284   4.444  18.489  0.00  0.00    +0.000 A 
ATOM      4  C   UNL     1       2.255   3.985  17.658  0.00  0.00    +0.000 A 
ATOM      5  C   UNL     1       1.627   2.768  17.931  0.00  0.00    +0.000 A 
ATOM      6  C   UNL     1       2.033   2.022  19.032  0.00  0.00    +0.000 A 
ATOM      7  F   UNL     1       1.415   0.865  19.305  0.00  0.00    +0.000 F 
ATOM      8  C   UNL     1       3.057   2.458  19.855  0.00  0.00    +0.000 A 
ATOM      9  C   UNL     1       3.693   3.666  19.584  0.00  0.00    +0.000 A 
ENDBRANCH   2   3
BRANCH   2  10
ATOM     10  C   UNL     1       3.192   7.013  18.467  0.00  0.00    +0.000 A 
ATOM     11  C   UNL     1       2.519   7.216  19.683  0.00  0.00    +0.000 A 
ATOM     12  C   UNL     1       1.771   8.376  19.893  0.00  0.00    +0.000 A 
ATOM     13  C   UNL     1       1.705   9.337  18.893  0.00  0.00    +0.000 A 
ATOM     14  F   UNL     1       0.968  10.440  19.086  0.00  0.00    +0.000 F 
ATOM     15  C   UNL     1       2.386   9.168  17.693  0.00  0.00    +0.000 A 
ATOM     16  C   UNL     1       3.133   8.006  17.478  0.00  0.00    +0.000 A 
ENDBRANCH   2  10
BRANCH   1  17
ATOM     17  C   UNL     1       6.041   4.510  17.417  0.00  0.00    +0.000 C 
ATOM     18  N   UNL     1       7.463   4.788  17.134  0.00  0.00    +0.000 NA
ATOM     19  N   UNL     1       7.708   4.400  15.972  0.00  0.00    +0.000 NA
ATOM     20  N   UNL     1       6.558   3.844  15.390  0.00  0.00    +0.000 NA
ATOM     21  N   UNL     1       5.595   3.892  16.180  0.00  0.00    +0.000 NA
ENDBRANCH   1  17
BRANCH   1  23
ATOM     22  C   UNL     1       7.128   7.333  17.788  0.00  0.00    +0.000 C 
ATOM     23  C   UNL     1       5.854   7.036  17.479  0.00  0.00    +0.000 C 
BRANCH  22  24
ATOM     24  C   UNL     1       7.746   8.677  17.550  0.00  0.00    +0.000 C 
BRANCH  24  25
ATOM     25  O   UNL     1       6.707   9.656  17.575  0.00  0.00    +0.000 OA
ATOM     26  H   UNL     1       6.852  10.262  16.836  0.00  0.00    +0.000 HD
ENDBRANCH  24  25
BRANCH  24  27
ATOM     27  C   UNL     1       8.818   8.927  18.616  0.00  0.00    +0.000 C 
BRANCH  27  28
ATOM     28  C   UNL     1       8.944  10.385  19.076  0.00  0.00    +0.000 C 
BRANCH  28  29
ATOM     29  O   UNL     1       9.468  10.387  20.401  0.00  0.00    +0.000 OA
ATOM     30  H   UNL     1       8.868   9.870  20.967  0.00  0.00    +0.000 HD
ENDBRANCH  28  29
BRANCH  28  31
ATOM     31  C   UNL     1       9.794  11.216  18.129  0.00  0.00    +0.000 C 
BRANCH  31  33
ATOM     32  O   UNL     1       9.688  13.581  17.921  0.00  0.00    +0.000 OA
ATOM     33  C   UNL     1       9.159  12.468  17.620  0.00  0.00    +0.000 C 
ATOM     34  O   UNL     1       7.956  12.400  17.235  0.00  0.00    +0.000 OA
ENDBRANCH  31  33
ENDBRANCH  28  31
ENDBRANCH  27  28
ENDBRANCH  24  27
ENDBRANCH  22  24
ENDBRANCH   1  23
TORSDOF 11
ENDMDL
