MODEL 1
REMARK VINA RESULT:      -8.0      0.000      0.000
REMARK  Name = 
REMARK  7 active torsions:
REMARK  status: ('A' for Active; 'I' for Inactive)
REMARK    1  A    between atoms: C_1  and  C_2
REMARK    2  A    between atoms: C_2  and  C_3
REMARK    3  A    between atoms: C_3  and  C_4
REMARK    4  A    between atoms: C_4  and  C_5
REMARK    5  A    between atoms: C_5  and  C_6
REMARK    6  A    between atoms: C_12  and  C_13
REMARK    7  A    between atoms: C_19  and  O_20
REMARK                            x       y       z     vdW  Elec       q    Type
REMARK                         _______ _______ _______ _____ _____    ______ ____
ROOT
ATOM      1  C   UNL     1       1.943   4.827  19.895  0.00  0.00    +0.000 C 
ATOM      2  C   UNL     1       1.478   4.969  18.420  0.00  0.00    +0.000 C 
ATOM      3  C   UNL     1       1.851   3.731  17.597  0.00  0.00    +0.000 C 
ATOM      4  C   UNL     1       2.750   2.803  18.426  0.00  0.00    +0.000 C 
ATOM      5  C   UNL     1       1.885   2.303  19.604  0.00  0.00    +0.000 C 
ATOM      6  C   UNL     1       1.361   3.493  20.433  0.00  0.00    +0.000 C 
ATOM      7  C   UNL     1       3.975   3.559  19.008  0.00  0.00    +0.000 C 
ATOM      8  C   UNL     1       3.488   4.688  19.940  0.00  0.00    +0.000 C 
ENDROOT
BRANCH   7   9
ATOM      9  C   UNL     1       4.963   4.090  17.977  0.00  0.00    +0.000 A 
ATOM     10  C   UNL     1       5.974   4.899  18.321  0.00  0.00    +0.000 A 
ATOM     11  C   UNL     1       6.871   5.434  17.281  0.00  0.00    +0.000 A 
ATOM     12  O   UNL     1       7.770   6.211  17.558  0.00  0.00    +0.000 OA
ATOM     13  C   UNL     1       6.630   4.971  15.909  0.00  0.00    +0.000 A 
ATOM     14  C   UNL     1       7.477   5.361  14.866  0.00  0.00    +0.000 A 
ATOM     15  C   UNL     1       7.248   4.857  13.591  0.00  0.00    +0.000 A 
ATOM     16  C   UNL     1       6.192   3.982  13.347  0.00  0.00    +0.000 A 
ATOM     17  C   UNL     1       5.339   3.612  14.389  0.00  0.00    +0.000 A 
ATOM     18  C   UNL     1       5.560   4.112  15.674  0.00  0.00    +0.000 A 
ATOM     19  O   UNL     1       4.692   3.725  16.663  0.00  0.00    +0.000 OA
BRANCH  15  20
ATOM     20  O   UNL     1       8.049   5.196  12.541  0.00  0.00    +0.000 OA
ATOM     21  H   UNL     1       8.118   6.164  12.498  0.00  0.00    +0.000 HD
ENDBRANCH  15  20
ENDBRANCH   7   9
BRANCH   1  22
ATOM     22  C   UNL     1       1.464   6.022  20.759  0.00  0.00    +0.000 C 
BRANCH  22  23
ATOM     23  C   UNL     1       2.045   7.375  20.324  0.00  0.00    +0.000 C 
BRANCH  23  24
ATOM     24  C   UNL     1       1.117   8.551  20.617  0.00  0.00    +0.000 C 
BRANCH  24  26
ATOM     25  C   UNL     1      -0.003   9.285  22.759  0.00  0.00    +0.000 C 
ATOM     26  C   UNL     1       1.317   9.021  22.060  0.00  0.00    +0.000 C 
ENDBRANCH  24  26
ENDBRANCH  23  24
ENDBRANCH  22  23
ENDBRANCH   1  22
TORSDOF 6
ENDMDL
MODEL 2
REMARK VINA RESULT:      -8.0      3.487      7.493
REMARK  Name = 
REMARK  7 active torsions:
REMARK  status: ('A' for Active; 'I' for Inactive)
REMARK    1  A    between atoms: C_1  and  C_2
REMARK    2  A    between atoms: C_2  and  C_3
REMARK    3  A    between atoms: C_3  and  C_4
REMARK    4  A    between atoms: C_4  and  C_5
REMARK    5  A    between atoms: C_5  and  C_6
REMARK    6  A    between atoms: C_12  and  C_13
REMARK    7  A    between atoms: C_19  and  O_20
REMARK                            x       y       z     vdW  Elec       q    Type
REMARK                         _______ _______ _______ _____ _____    ______ ____
ROOT
ATOM      1  C   UNL     1       4.907   5.226  18.316  0.00  0.00    +0.000 C 
ATOM      2  C   UNL     1       4.296   5.038  19.731  0.00  0.00    +0.000 C 
ATOM      3  C   UNL     1       2.778   4.840  19.661  0.00  0.00    +0.000 C 
ATOM      4  C   UNL     1       2.284   5.084  18.228  0.00  0.00    +0.000 C 
ATOM      5  C   UNL     1       2.913   3.973  17.359  0.00  0.00    +0.000 C 
ATOM      6  C   UNL     1       4.450   4.016  17.456  0.00  0.00    +0.000 C 
ATOM      7  C   UNL     1       2.761   6.458  17.682  0.00  0.00    +0.000 C 
ATOM      8  C   UNL     1       4.304   6.493  17.655  0.00  0.00    +0.000 C 
ENDROOT
BRANCH   7   9
ATOM      9  C   UNL     1       2.200   7.677  18.405  0.00  0.00    +0.000 A 
ATOM     10  C   UNL     1       2.059   8.858  17.789  0.00  0.00    +0.000 A 
ATOM     11  C   UNL     1       1.566  10.023  18.543  0.00  0.00    +0.000 A 
ATOM     12  O   UNL     1       1.473  11.123  18.022  0.00  0.00    +0.000 OA
ATOM     13  C   UNL     1       1.182   9.784  19.940  0.00  0.00    +0.000 A 
ATOM     14  C   UNL     1       0.629  10.810  20.714  0.00  0.00    +0.000 A 
ATOM     15  C   UNL     1       0.229  10.528  22.014  0.00  0.00    +0.000 A 
ATOM     16  C   UNL     1       0.377   9.250  22.547  0.00  0.00    +0.000 A 
ATOM     17  C   UNL     1       0.948   8.235  21.775  0.00  0.00    +0.000 A 
ATOM     18  C   UNL     1       1.354   8.507  20.467  0.00  0.00    +0.000 A 
ATOM     19  O   UNL     1       1.915   7.481  19.751  0.00  0.00    +0.000 OA
BRANCH  15  20
ATOM     20  O   UNL     1      -0.326  11.488  22.808  0.00  0.00    +0.000 OA
ATOM     21  H   UNL     1      -0.657  11.072  23.621  0.00  0.00    +0.000 HD
ENDBRANCH  15  20
ENDBRANCH   7   9
BRANCH   1  22
ATOM     22  C   UNL     1       6.454   5.306  18.371  0.00  0.00    +0.000 C 
BRANCH  22  23
ATOM     23  C   UNL     1       7.051   6.394  17.467  0.00  0.00    +0.000 C 
BRANCH  23  24
ATOM     24  C   UNL     1       7.982   7.350  18.209  0.00  0.00    +0.000 C 
BRANCH  24  26
ATOM     25  C   UNL     1       8.696   9.767  18.380  0.00  0.00    +0.000 C 
ATOM     26  C   UNL     1       7.763   8.779  17.706  0.00  0.00    +0.000 C 
ENDBRANCH  24  26
ENDBRANCH  23  24
ENDBRANCH  22  23
ENDBRANCH   1  22
TORSDOF 6
ENDMDL
MODEL 3
REMARK VINA RESULT:      -7.9      3.275      7.671
REMARK  Name = 
REMARK  7 active torsions:
REMARK  status: ('A' for Active; 'I' for Inactive)
REMARK    1  A    between atoms: C_1  and  C_2
REMARK    2  A    between atoms: C_2  and  C_3
REMARK    3  A    between atoms: C_3  and  C_4
REMARK    4  A    between atoms: C_4  and  C_5
REMARK    5  A    between atoms: C_5  and  C_6
REMARK    6  A    between atoms: C_12  and  C_13
REMARK    7  A    between atoms: C_19  and  O_20
REMARK                            x       y       z     vdW  Elec       q    Type
REMARK                         _______ _______ _______ _____ _____    ______ ____
ROOT
ATOM      1  C   UNL     1       4.374   4.846  18.834  0.00  0.00    +0.000 C 
ATOM      2  C   UNL     1       3.430   4.665  20.054  0.00  0.00    +0.000 C 
ATOM      3  C   UNL     1       1.958   4.689  19.628  0.00  0.00    +0.000 C 
ATOM      4  C   UNL     1       1.848   5.084  18.148  0.00  0.00    +0.000 C 
ATOM      5  C   UNL     1       2.519   3.947  17.346  0.00  0.00    +0.000 C 
ATOM      6  C   UNL     1       3.984   3.767  17.789  0.00  0.00    +0.000 C 
ATOM      7  C   UNL     1       2.607   6.405  17.849  0.00  0.00    +0.000 C 
ATOM      8  C   UNL     1       4.105   6.223  18.171  0.00  0.00    +0.000 C 
ENDROOT
BRANCH   7   9
ATOM      9  C   UNL     1       2.049   7.647  18.533  0.00  0.00    +0.000 A 
ATOM     10  C   UNL     1       1.885   8.802  17.873  0.00  0.00    +0.000 A 
ATOM     11  C   UNL     1       1.396   9.992  18.590  0.00  0.00    +0.000 A 
ATOM     12  O   UNL     1       1.282  11.069  18.028  0.00  0.00    +0.000 OA
ATOM     13  C   UNL     1       1.041   9.805  20.003  0.00  0.00    +0.000 A 
ATOM     14  C   UNL     1       0.494  10.857  20.746  0.00  0.00    +0.000 A 
ATOM     15  C   UNL     1       0.122  10.623  22.065  0.00  0.00    +0.000 A 
ATOM     16  C   UNL     1       0.292   9.369  22.645  0.00  0.00    +0.000 A 
ATOM     17  C   UNL     1       0.858   8.329  21.903  0.00  0.00    +0.000 A 
ATOM     18  C   UNL     1       1.236   8.552  20.577  0.00  0.00    +0.000 A 
ATOM     19  O   UNL     1       1.792   7.503  19.891  0.00  0.00    +0.000 OA
BRANCH  15  20
ATOM     20  O   UNL     1      -0.426  11.610  22.830  0.00  0.00    +0.000 OA
ATOM     21  H   UNL     1      -0.257  12.467  22.407  0.00  0.00    +0.000 HD
ENDBRANCH  15  20
ENDBRANCH   7   9
BRANCH   1  22
ATOM     22  C   UNL     1       5.862   4.703  19.242  0.00  0.00    +0.000 C 
BRANCH  22  23
ATOM     23  C   UNL     1       6.829   5.499  18.353  0.00  0.00    +0.000 C 
BRANCH  23  24
ATOM     24  C   UNL     1       7.425   4.669  17.218  0.00  0.00    +0.000 C 
BRANCH  24  26
ATOM     25  C   UNL     1       6.293   4.079  15.038  0.00  0.00    +0.000 C 
ATOM     26  C   UNL     1       6.909   5.186  15.872  0.00  0.00    +0.000 C 
ENDBRANCH  24  26
ENDBRANCH  23  24
ENDBRANCH  22  23
ENDBRANCH   1  22
TORSDOF 6
ENDMDL
MODEL 4
REMARK VINA RESULT:      -7.9      3.015      7.841
REMARK  Name = 
REMARK  7 active torsions:
REMARK  status: ('A' for Active; 'I' for Inactive)
REMARK    1  A    between atoms: C_1  and  C_2
REMARK    2  A    between atoms: C_2  and  C_3
REMARK    3  A    between atoms: C_3  and  C_4
REMARK    4  A    between atoms: C_4  and  C_5
REMARK    5  A    between atoms: C_5  and  C_6
REMARK    6  A    between atoms: C_12  and  C_13
REMARK    7  A    between atoms: C_19  and  O_20
REMARK                            x       y       z     vdW  Elec       q    Type
REMARK                         _______ _______ _______ _____ _____    ______ ____
ROOT
ATOM      1  C   UNL     1       4.418   4.328  17.285  0.00  0.00    +0.000 C 
ATOM      2  C   UNL     1       5.402   5.325  17.955  0.00  0.00    +0.000 C 
ATOM      3  C   UNL     1       5.123   5.460  19.456  0.00  0.00    +0.000 C 
ATOM      4  C   UNL     1       3.827   4.720  19.816  0.00  0.00    +0.000 C 
ATOM      5  C   UNL     1       4.097   3.222  19.551  0.00  0.00    +0.000 C 
ATOM      6  C   UNL     1       4.502   2.998  18.081  0.00  0.00    +0.000 C 
ATOM      7  C   UNL     1       2.642   5.167  18.918  0.00  0.00    +0.000 C 
ATOM      8  C   UNL     1       2.965   4.848  17.443  0.00  0.00    +0.000 C 
ENDROOT
BRANCH   7   9
ATOM      9  C   UNL     1       2.213   6.620  19.081  0.00  0.00    +0.000 A 
ATOM     10  C   UNL     1       2.268   7.490  18.063  0.00  0.00    +0.000 A 
ATOM     11  C   UNL     1       1.897   8.898  18.283  0.00  0.00    +0.000 A 
ATOM     12  O   UNL     1       1.983   9.724  17.388  0.00  0.00    +0.000 OA
ATOM     13  C   UNL     1       1.408   9.245  19.623  0.00  0.00    +0.000 A 
ATOM     14  C   UNL     1       0.957  10.539  19.905  0.00  0.00    +0.000 A 
ATOM     15  C   UNL     1       0.451  10.812  21.171  0.00  0.00    +0.000 A 
ATOM     16  C   UNL     1       0.394   9.821  22.148  0.00  0.00    +0.000 A 
ATOM     17  C   UNL     1       0.864   8.536  21.865  0.00  0.00    +0.000 A 
ATOM     18  C   UNL     1       1.375   8.251  20.597  0.00  0.00    +0.000 A 
ATOM     19  O   UNL     1       1.829   6.977  20.369  0.00  0.00    +0.000 OA
BRANCH  15  20
ATOM     20  O   UNL     1      -0.011  12.053  21.495  0.00  0.00    +0.000 OA
ATOM     21  H   UNL     1       0.723  12.577  21.857  0.00  0.00    +0.000 HD
ENDBRANCH  15  20
ENDBRANCH   7   9
BRANCH   1  22
ATOM     22  C   UNL     1       4.771   4.097  15.794  0.00  0.00    +0.000 C 
BRANCH  22  23
ATOM     23  C   UNL     1       6.279   4.028  15.516  0.00  0.00    +0.000 C 
BRANCH  23  24
ATOM     24  C   UNL     1       6.650   4.453  14.097  0.00  0.00    +0.000 C 
BRANCH  24  26
ATOM     25  C   UNL     1       6.649   3.304  11.847  0.00  0.00    +0.000 C 
ATOM     26  C   UNL     1       5.839   3.639  13.085  0.00  0.00    +0.000 C 
ENDBRANCH  24  26
ENDBRANCH  23  24
ENDBRANCH  22  23
ENDBRANCH   1  22
TORSDOF 6
ENDMDL
MODEL 5
REMARK VINA RESULT:      -7.8      0.977      1.464
REMARK  Name = 
REMARK  7 active torsions:
REMARK  status: ('A' for Active; 'I' for Inactive)
REMARK    1  A    between atoms: C_1  and  C_2
REMARK    2  A    between atoms: C_2  and  C_3
REMARK    3  A    between atoms: C_3  and  C_4
REMARK    4  A    between atoms: C_4  and  C_5
REMARK    5  A    between atoms: C_5  and  C_6
REMARK    6  A    between atoms: C_12  and  C_13
REMARK    7  A    between atoms: C_19  and  O_20
REMARK                            x       y       z     vdW  Elec       q    Type
REMARK                         _______ _______ _______ _____ _____    ______ ____
ROOT
ATOM      1  C   UNL     1       1.968   4.557  19.750  0.00  0.00    +0.000 C 
ATOM      2  C   UNL     1       1.518   4.667  18.268  0.00  0.00    +0.000 C 
ATOM      3  C   UNL     1       1.977   3.452  17.455  0.00  0.00    +0.000 C 
ATOM      4  C   UNL     1       2.916   2.581  18.301  0.00  0.00    +0.000 C 
ATOM      5  C   UNL     1       2.063   2.033  19.467  0.00  0.00    +0.000 C 
ATOM      6  C   UNL     1       1.457   3.191  20.283  0.00  0.00    +0.000 C 
ATOM      7  C   UNL     1       4.085   3.409  18.900  0.00  0.00    +0.000 C 
ATOM      8  C   UNL     1       3.517   4.510  19.820  0.00  0.00    +0.000 C 
ENDROOT
BRANCH   7   9
ATOM      9  C   UNL     1       5.056   3.996  17.882  0.00  0.00    +0.000 A 
ATOM     10  C   UNL     1       6.058   4.806  18.250  0.00  0.00    +0.000 A 
ATOM     11  C   UNL     1       6.937   5.395  17.226  0.00  0.00    +0.000 A 
ATOM     12  O   UNL     1       7.828   6.174  17.526  0.00  0.00    +0.000 OA
ATOM     13  C   UNL     1       6.693   4.983  15.838  0.00  0.00    +0.000 A 
ATOM     14  C   UNL     1       7.525   5.427  14.805  0.00  0.00    +0.000 A 
ATOM     15  C   UNL     1       7.292   4.971  13.513  0.00  0.00    +0.000 A 
ATOM     16  C   UNL     1       6.247   4.090  13.242  0.00  0.00    +0.000 A 
ATOM     17  C   UNL     1       5.408   3.666  14.276  0.00  0.00    +0.000 A 
ATOM     18  C   UNL     1       5.633   4.119  15.578  0.00  0.00    +0.000 A 
ATOM     19  O   UNL     1       4.779   3.680  16.557  0.00  0.00    +0.000 OA
BRANCH  15  20
ATOM     20  O   UNL     1       8.079   5.363  12.471  0.00  0.00    +0.000 OA
ATOM     21  H   UNL     1       7.512   5.695  11.755  0.00  0.00    +0.000 HD
ENDBRANCH  15  20
ENDBRANCH   7   9
BRANCH   1  22
ATOM     22  C   UNL     1       1.405   5.723  20.603  0.00  0.00    +0.000 C 
BRANCH  22  23
ATOM     23  C   UNL     1       2.136   7.056  20.390  0.00  0.00    +0.000 C 
BRANCH  23  24
ATOM     24  C   UNL     1       1.352   8.041  19.525  0.00  0.00    +0.000 C 
BRANCH  24  26
ATOM     25  C   UNL     1       3.188   7.656  17.833  0.00  0.00    +0.000 C 
ATOM     26  C   UNL     1       2.287   8.681  18.494  0.00  0.00    +0.000 C 
ENDBRANCH  24  26
ENDBRANCH  23  24
ENDBRANCH  22  23
ENDBRANCH   1  22
TORSDOF 6
ENDMDL
MODEL 6
REMARK VINA RESULT:      -7.8      2.775      7.695
REMARK  Name = 
REMARK  7 active torsions:
REMARK  status: ('A' for Active; 'I' for Inactive)
REMARK    1  A    between atoms: C_1  and  C_2
REMARK    2  A    between atoms: C_2  and  C_3
REMARK    3  A    between atoms: C_3  and  C_4
REMARK    4  A    between atoms: C_4  and  C_5
REMARK    5  A    between atoms: C_5  and  C_6
REMARK    6  A    between atoms: C_12  and  C_13
REMARK    7  A    between atoms: C_19  and  O_20
REMARK                            x       y       z     vdW  Elec       q    Type
REMARK                         _______ _______ _______ _____ _____    ______ ____
ROOT
ATOM      1  C   UNL     1       5.772   4.969  15.728  0.00  0.00    +0.000 C 
ATOM      2  C   UNL     1       6.022   6.495  15.872  0.00  0.00    +0.000 C 
ATOM      3  C   UNL     1       6.512   6.849  17.280  0.00  0.00    +0.000 C 
ATOM      4  C   UNL     1       6.420   5.617  18.191  0.00  0.00    +0.000 C 
ATOM      5  C   UNL     1       7.421   4.585  17.624  0.00  0.00    +0.000 C 
ATOM      6  C   UNL     1       7.078   4.248  16.160  0.00  0.00    +0.000 C 
ATOM      7  C   UNL     1       5.002   4.985  18.163  0.00  0.00    +0.000 C 
ATOM      8  C   UNL     1       4.670   4.527  16.727  0.00  0.00    +0.000 C 
ENDROOT
BRANCH   7   9
ATOM      9  C   UNL     1       3.888   5.859  18.728  0.00  0.00    +0.000 A 
ATOM     10  C   UNL     1       3.216   5.515  19.835  0.00  0.00    +0.000 A 
ATOM     11  C   UNL     1       2.109   6.362  20.312  0.00  0.00    +0.000 A 
ATOM     12  O   UNL     1       1.447   6.050  21.288  0.00  0.00    +0.000 OA
ATOM     13  C   UNL     1       1.861   7.599  19.561  0.00  0.00    +0.000 A 
ATOM     14  C   UNL     1       0.884   8.507  19.983  0.00  0.00    +0.000 A 
ATOM     15  C   UNL     1       0.718   9.692  19.276  0.00  0.00    +0.000 A 
ATOM     16  C   UNL     1       1.504   9.976  18.162  0.00  0.00    +0.000 A 
ATOM     17  C   UNL     1       2.464   9.056  17.734  0.00  0.00    +0.000 A 
ATOM     18  C   UNL     1       2.639   7.862  18.437  0.00  0.00    +0.000 A 
ATOM     19  O   UNL     1       3.590   6.989  17.975  0.00  0.00    +0.000 OA
BRANCH  15  20
ATOM     20  O   UNL     1      -0.213  10.615  19.651  0.00  0.00    +0.000 OA
ATOM     21  H   UNL     1      -0.012  11.459  19.214  0.00  0.00    +0.000 HD
ENDBRANCH  15  20
ENDBRANCH   7   9
BRANCH   1  22
ATOM     22  C   UNL     1       5.392   4.590  14.274  0.00  0.00    +0.000 C 
BRANCH  22  23
ATOM     23  C   UNL     1       6.397   3.647  13.595  0.00  0.00    +0.000 C 
BRANCH  23  24
ATOM     24  C   UNL     1       6.258   3.613  12.075  0.00  0.00    +0.000 C 
BRANCH  24  26
ATOM     25  C   UNL     1       3.956   3.204  11.118  0.00  0.00    +0.000 C 
ATOM     26  C   UNL     1       5.215   2.567  11.674  0.00  0.00    +0.000 C 
ENDBRANCH  24  26
ENDBRANCH  23  24
ENDBRANCH  22  23
ENDBRANCH   1  22
TORSDOF 6
ENDMDL
MODEL 7
REMARK VINA RESULT:      -7.7      3.295      7.984
REMARK  Name = 
REMARK  7 active torsions:
REMARK  status: ('A' for Active; 'I' for Inactive)
REMARK    1  A    between atoms: C_1  and  C_2
REMARK    2  A    between atoms: C_2  and  C_3
REMARK    3  A    between atoms: C_3  and  C_4
REMARK    4  A    between atoms: C_4  and  C_5
REMARK    5  A    between atoms: C_5  and  C_6
REMARK    6  A    between atoms: C_12  and  C_13
REMARK    7  A    between atoms: C_19  and  O_20
REMARK                            x       y       z     vdW  Elec       q    Type
REMARK                         _______ _______ _______ _____ _____    ______ ____
ROOT
ATOM      1  C   UNL     1       4.920   5.520  17.942  0.00  0.00    +0.000 C 
ATOM      2  C   UNL     1       4.714   5.462  19.480  0.00  0.00    +0.000 C 
ATOM      3  C   UNL     1       3.260   5.133  19.835  0.00  0.00    +0.000 C 
ATOM      4  C   UNL     1       2.394   5.154  18.568  0.00  0.00    +0.000 C 
ATOM      5  C   UNL     1       2.902   3.998  17.678  0.00  0.00    +0.000 C 
ATOM      6  C   UNL     1       4.399   4.179  17.359  0.00  0.00    +0.000 C 
ATOM      7  C   UNL     1       2.560   6.482  17.780  0.00  0.00    +0.000 C 
ATOM      8  C   UNL     1       4.031   6.641  17.341  0.00  0.00    +0.000 C 
ENDROOT
BRANCH   7   9
ATOM      9  C   UNL     1       2.068   7.732  18.500  0.00  0.00    +0.000 A 
ATOM     10  C   UNL     1       2.078   8.935  17.911  0.00  0.00    +0.000 A 
ATOM     11  C   UNL     1       1.646  10.125  18.665  0.00  0.00    +0.000 A 
ATOM     12  O   UNL     1       1.690  11.240  18.171  0.00  0.00    +0.000 OA
ATOM     13  C   UNL     1       1.150   9.891  20.027  0.00  0.00    +0.000 A 
ATOM     14  C   UNL     1       0.645  10.947  20.793  0.00  0.00    +0.000 A 
ATOM     15  C   UNL     1       0.135  10.674  22.057  0.00  0.00    +0.000 A 
ATOM     16  C   UNL     1       0.128   9.376  22.562  0.00  0.00    +0.000 A 
ATOM     17  C   UNL     1       0.653   8.330  21.799  0.00  0.00    +0.000 A 
ATOM     18  C   UNL     1       1.168   8.592  20.528  0.00  0.00    +0.000 A 
ATOM     19  O   UNL     1       1.677   7.534  19.819  0.00  0.00    +0.000 OA
BRANCH  15  20
ATOM     20  O   UNL     1      -0.380  11.664  22.841  0.00  0.00    +0.000 OA
ATOM     21  H   UNL     1       0.312  11.978  23.447  0.00  0.00    +0.000 HD
ENDBRANCH  15  20
ENDBRANCH   7   9
BRANCH   1  22
ATOM     22  C   UNL     1       6.411   5.734  17.576  0.00  0.00    +0.000 C 
BRANCH  22  23
ATOM     23  C   UNL     1       7.002   4.618  16.702  0.00  0.00    +0.000 C 
BRANCH  23  24
ATOM     24  C   UNL     1       6.971   4.942  15.210  0.00  0.00    +0.000 C 
BRANCH  24  26
ATOM     25  C   UNL     1       6.443   3.908  12.966  0.00  0.00    +0.000 C 
ATOM     26  C   UNL     1       6.193   3.856  14.461  0.00  0.00    +0.000 C 
ENDBRANCH  24  26
ENDBRANCH  23  24
ENDBRANCH  22  23
ENDBRANCH   1  22
TORSDOF 6
ENDMDL
MODEL 8
REMARK VINA RESULT:      -7.7      3.672      7.319
REMARK  Name = 
REMARK  7 active torsions:
REMARK  status: ('A' for Active; 'I' for Inactive)
REMARK    1  A    between atoms: C_1  and  C_2
REMARK    2  A    between atoms: C_2  and  C_3
REMARK    3  A    between atoms: C_3  and  C_4
REMARK    4  A    between atoms: C_4  and  C_5
REMARK    5  A    between atoms: C_5  and  C_6
REMARK    6  A    between atoms: C_12  and  C_13
REMARK    7  A    between atoms: C_19  and  O_20
REMARK                            x       y       z     vdW  Elec       q    Type
REMARK                         _______ _______ _______ _____ _____    ______ ____
ROOT
ATOM      1  C   UNL     1       5.947   5.818  17.501  0.00  0.00    +0.000 C 
ATOM      2  C   UNL     1       5.870   5.542  19.027  0.00  0.00    +0.000 C 
ATOM      3  C   UNL     1       4.568   4.824  19.397  0.00  0.00    +0.000 C 
ATOM      4  C   UNL     1       3.636   4.767  18.179  0.00  0.00    +0.000 C 
ATOM      5  C   UNL     1       4.346   3.879  17.133  0.00  0.00    +0.000 C 
ATOM      6  C   UNL     1       5.728   4.462  16.778  0.00  0.00    +0.000 C 
ATOM      7  C   UNL     1       3.419   6.173  17.556  0.00  0.00    +0.000 C 
ATOM      8  C   UNL     1       4.773   6.741  17.080  0.00  0.00    +0.000 C 
ENDROOT
BRANCH   7   9
ATOM      9  C   UNL     1       2.690   7.174  18.445  0.00  0.00    +0.000 A 
ATOM     10  C   UNL     1       2.252   6.842  19.667  0.00  0.00    +0.000 A 
ATOM     11  C   UNL     1       1.502   7.825  20.468  0.00  0.00    +0.000 A 
ATOM     12  O   UNL     1       1.049   7.537  21.564  0.00  0.00    +0.000 OA
ATOM     13  C   UNL     1       1.346   9.163  19.884  0.00  0.00    +0.000 A 
ATOM     14  C   UNL     1       0.717  10.186  20.602  0.00  0.00    +0.000 A 
ATOM     15  C   UNL     1       0.638  11.453  20.034  0.00  0.00    +0.000 A 
ATOM     16  C   UNL     1       1.168  11.705  18.771  0.00  0.00    +0.000 A 
ATOM     17  C   UNL     1       1.776  10.674  18.052  0.00  0.00    +0.000 A 
ATOM     18  C   UNL     1       1.862   9.397  18.612  0.00  0.00    +0.000 A 
ATOM     19  O   UNL     1       2.462   8.417  17.866  0.00  0.00    +0.000 OA
BRANCH  15  20
ATOM     20  O   UNL     1       0.046  12.488  20.695  0.00  0.00    +0.000 OA
ATOM     21  H   UNL     1       0.153  13.298  20.170  0.00  0.00    +0.000 HD
ENDBRANCH  15  20
ENDBRANCH   7   9
BRANCH   1  22
ATOM     22  C   UNL     1       7.313   6.436  17.104  0.00  0.00    +0.000 C 
BRANCH  22  23
ATOM     23  C   UNL     1       7.927   7.332  18.189  0.00  0.00    +0.000 C 
BRANCH  23  24
ATOM     24  C   UNL     1       7.964   8.808  17.801  0.00  0.00    +0.000 C 
BRANCH  24  26
ATOM     25  C   UNL     1       9.459  10.811  18.170  0.00  0.00    +0.000 C 
ATOM     26  C   UNL     1       8.829   9.583  18.799  0.00  0.00    +0.000 C 
ENDBRANCH  24  26
ENDBRANCH  23  24
ENDBRANCH  22  23
ENDBRANCH   1  22
TORSDOF 6
ENDMDL
MODEL 9
REMARK VINA RESULT:      -7.6      3.395      7.344
REMARK  Name = 
REMARK  7 active torsions:
REMARK  status: ('A' for Active; 'I' for Inactive)
REMARK    1  A    between atoms: C_1  and  C_2
REMARK    2  A    between atoms: C_2  and  C_3
REMARK    3  A    between atoms: C_3  and  C_4
REMARK    4  A    between atoms: C_4  and  C_5
REMARK    5  A    between atoms: C_5  and  C_6
REMARK    6  A    between atoms: C_12  and  C_13
REMARK    7  A    between atoms: C_19  and  O_20
REMARK                            x       y       z     vdW  Elec       q    Type
REMARK                         _______ _______ _______ _____ _____    ______ ____
ROOT
ATOM      1  C   UNL     1       6.792   6.344  17.105  0.00  0.00    +0.000 C 
ATOM      2  C   UNL     1       6.913   5.616  18.472  0.00  0.00    +0.000 C 
ATOM      3  C   UNL     1       5.925   4.448  18.571  0.00  0.00    +0.000 C 
ATOM      4  C   UNL     1       4.971   4.467  17.369  0.00  0.00    +0.000 C 
ATOM      5  C   UNL     1       5.842   4.202  16.121  0.00  0.00    +0.000 C 
ATOM      6  C   UNL     1       6.948   5.268  15.998  0.00  0.00    +0.000 C 
ATOM      7  C   UNL     1       4.287   5.852  17.200  0.00  0.00    +0.000 C 
ATOM      8  C   UNL     1       5.363   6.931  16.956  0.00  0.00    +0.000 C 
ENDROOT
BRANCH   7   9
ATOM      9  C   UNL     1       3.352   6.259  18.332  0.00  0.00    +0.000 A 
ATOM     10  C   UNL     1       3.057   5.424  19.337  0.00  0.00    +0.000 A 
ATOM     11  C   UNL     1       2.103   5.841  20.380  0.00  0.00    +0.000 A 
ATOM     12  O   UNL     1       1.777   5.085  21.280  0.00  0.00    +0.000 OA
ATOM     13  C   UNL     1       1.584   7.211  20.281  0.00  0.00    +0.000 A 
ATOM     14  C   UNL     1       0.734   7.724  21.267  0.00  0.00    +0.000 A 
ATOM     15  C   UNL     1       0.308   9.043  21.165  0.00  0.00    +0.000 A 
ATOM     16  C   UNL     1       0.712   9.845  20.100  0.00  0.00    +0.000 A 
ATOM     17  C   UNL     1       1.544   9.320  19.109  0.00  0.00    +0.000 A 
ATOM     18  C   UNL     1       1.978   7.995  19.201  0.00  0.00    +0.000 A 
ATOM     19  O   UNL     1       2.789   7.523  18.201  0.00  0.00    +0.000 OA
BRANCH  15  20
ATOM     20  O   UNL     1      -0.512   9.597  22.104  0.00  0.00    +0.000 OA
ATOM     21  H   UNL     1      -1.025   8.890  22.529  0.00  0.00    +0.000 HD
ENDBRANCH  15  20
ENDBRANCH   7   9
BRANCH   1  22
ATOM     22  C   UNL     1       7.868   7.449  16.952  0.00  0.00    +0.000 C 
BRANCH  22  23
ATOM     23  C   UNL     1       8.261   8.120  18.276  0.00  0.00    +0.000 C 
BRANCH  23  24
ATOM     24  C   UNL     1       8.453   9.630  18.152  0.00  0.00    +0.000 C 
BRANCH  24  26
ATOM     25  C   UNL     1      10.193  11.291  18.923  0.00  0.00    +0.000 C 
ATOM     26  C   UNL     1       9.288  10.143  19.328  0.00  0.00    +0.000 C 
ENDBRANCH  24  26
ENDBRANCH  23  24
ENDBRANCH  22  23
ENDBRANCH   1  22
TORSDOF 6
ENDMDL
