MODEL 1
REMARK VINA RESULT:      -8.8      0.000      0.000
REMARK  Name = 
REMARK  5 active torsions:
REMARK  status: ('A' for Active; 'I' for Inactive)
REMARK    1  A    between atoms: C_1  and  O_2
REMARK    2  A    between atoms: O_2  and  C_3
REMARK    3  A    between atoms: C_6  and  N_7
REMARK    4  A    between atoms: C_8  and  C_10
REMARK    5  A    between atoms: C_10  and  N_11
REMARK                            x       y       z     vdW  Elec       q    Type
REMARK                         _______ _______ _______ _____ _____    ______ ____
ROOT
ATOM      1  C   UNL     1       3.035   3.632  20.406  0.00  0.00    +0.000 C 
ENDROOT
BRANCH   1   2
ATOM      2  N   UNL     1       3.814   3.569  19.197  0.00  0.00    +0.000 N 
ATOM      3  C   UNL     1       3.502   2.837  18.098  0.00  0.00    +0.000 C 
ATOM      4  O   UNL     1       2.565   2.065  17.980  0.00  0.00    +0.000 OA
ATOM      5  N   UNL     1       4.436   3.109  17.122  0.00  0.00    +0.000 N 
ATOM      6  C   UNL     1       5.244   4.280  17.467  0.00  0.00    +0.000 C 
ATOM      7  C   UNL     1       4.561   5.523  16.859  0.00  0.00    +0.000 C 
ATOM      8  C   UNL     1       5.060   6.871  17.372  0.00  0.00    +0.000 C 
ATOM      9  C   UNL     1       6.540   7.156  17.133  0.00  0.00    +0.000 C 
ATOM     10  C   UNL     1       7.483   6.385  18.047  0.00  0.00    +0.000 C 
ATOM     11  C   UNL     1       7.770   4.935  17.665  0.00  0.00    +0.000 C 
ATOM     12  C   UNL     1       6.679   4.121  16.976  0.00  0.00    +0.000 C 
ATOM     13  C   UNL     1       4.984   4.246  18.994  0.00  0.00    +0.000 C 
ATOM     14  O   UNL     1       5.630   4.795  19.864  0.00  0.00    +0.000 OA
ATOM     15  H   UNL     1       4.324   2.729  16.191  0.00  0.00    +0.000 HD
ENDBRANCH   1   2
BRANCH   1  17
ATOM     16  N   UNL     1       2.667   6.038  20.158  0.00  0.00    +0.000 N 
ATOM     17  C   UNL     1       2.052   4.796  20.230  0.00  0.00    +0.000 C 
ATOM     18  O   UNL     1       0.839   4.603  20.228  0.00  0.00    +0.000 OA
ATOM     19  H   UNL     1       3.683   6.051  20.173  0.00  0.00    +0.000 HD
BRANCH  16  23
ATOM     20  C   UNL     1       0.721   9.807  19.901  0.00  0.00    +0.000 A 
ATOM     21  C   UNL     1       1.387   9.282  18.786  0.00  0.00    +0.000 A 
ATOM     22  C   UNL     1       2.042   8.045  18.842  0.00  0.00    +0.000 A 
ATOM     23  C   UNL     1       2.031   7.292  20.014  0.00  0.00    +0.000 A 
ATOM     24  C   UNL     1       1.335   7.793  21.119  0.00  0.00    +0.000 A 
ATOM     25  C   UNL     1       0.687   9.041  21.072  0.00  0.00    +0.000 A 
ATOM     26 CL   UNL     1      -0.178   9.486  22.501  0.00  0.00    +0.000 Cl
BRANCH  20  28
ATOM     27  C   UNL     1      -1.064  10.959  18.820  0.00  0.00    +0.000 C 
ATOM     28  O   UNL     1       0.090  10.996  19.650  0.00  0.00    +0.000 OA
ENDBRANCH  20  28
ENDBRANCH  16  23
ENDBRANCH   1  17
TORSDOF 4
ENDMDL
MODEL 2
REMARK VINA RESULT:      -8.6      1.119      1.459
REMARK  Name = 
REMARK  5 active torsions:
REMARK  status: ('A' for Active; 'I' for Inactive)
REMARK    1  A    between atoms: C_1  and  O_2
REMARK    2  A    between atoms: O_2  and  C_3
REMARK    3  A    between atoms: C_6  and  N_7
REMARK    4  A    between atoms: C_8  and  C_10
REMARK    5  A    between atoms: C_10  and  N_11
REMARK                            x       y       z     vdW  Elec       q    Type
REMARK                         _______ _______ _______ _____ _____    ______ ____
ROOT
ATOM      1  C   UNL     1       2.957   3.471  20.222  0.00  0.00    +0.000 C 
ENDROOT
BRANCH   1   2
ATOM      2  N   UNL     1       3.599   3.541  18.934  0.00  0.00    +0.000 N 
ATOM      3  C   UNL     1       3.067   3.102  17.766  0.00  0.00    +0.000 C 
ATOM      4  O   UNL     1       2.006   2.517  17.624  0.00  0.00    +0.000 OA
ATOM      5  N   UNL     1       3.939   3.427  16.749  0.00  0.00    +0.000 N 
ATOM      6  C   UNL     1       4.961   4.371  17.203  0.00  0.00    +0.000 C 
ATOM      7  C   UNL     1       4.444   5.798  16.926  0.00  0.00    +0.000 C 
ATOM      8  C   UNL     1       5.208   6.925  17.614  0.00  0.00    +0.000 C 
ATOM      9  C   UNL     1       6.687   7.032  17.250  0.00  0.00    +0.000 C 
ATOM     10  C   UNL     1       7.567   5.961  17.881  0.00  0.00    +0.000 C 
ATOM     11  C   UNL     1       7.568   4.593  17.203  0.00  0.00    +0.000 C 
ATOM     12  C   UNL     1       6.296   4.106  16.515  0.00  0.00    +0.000 C 
ATOM     13  C   UNL     1       4.843   4.065  18.716  0.00  0.00    +0.000 C 
ATOM     14  O   UNL     1       5.649   4.325  19.586  0.00  0.00    +0.000 OA
ATOM     15  H   UNL     1       3.678   3.265  15.785  0.00  0.00    +0.000 HD
ENDBRANCH   1   2
BRANCH   1  17
ATOM     16  N   UNL     1       2.551   5.883  20.224  0.00  0.00    +0.000 N 
ATOM     17  C   UNL     1       1.956   4.631  20.272  0.00  0.00    +0.000 C 
ATOM     18  O   UNL     1       0.754   4.420  20.412  0.00  0.00    +0.000 OA
ATOM     19  H   UNL     1       3.560   5.910  20.107  0.00  0.00    +0.000 HD
BRANCH  16  23
ATOM     20  C   UNL     1       0.629   9.673  20.187  0.00  0.00    +0.000 A 
ATOM     21  C   UNL     1       0.480   8.820  21.288  0.00  0.00    +0.000 A 
ATOM     22  C   UNL     1       1.097   7.562  21.327  0.00  0.00    +0.000 A 
ATOM     23  C   UNL     1       1.896   7.135  20.268  0.00  0.00    +0.000 A 
ATOM     24  C   UNL     1       2.079   7.998  19.183  0.00  0.00    +0.000 A 
ATOM     25  C   UNL     1       1.451   9.256  19.134  0.00  0.00    +0.000 A 
ATOM     26 CL   UNL     1       1.830  10.226  17.754  0.00  0.00    +0.000 Cl
BRANCH  20  28
ATOM     27  C   UNL     1      -1.171  11.113  19.579  0.00  0.00    +0.000 C 
ATOM     28  O   UNL     1       0.004  10.881  20.345  0.00  0.00    +0.000 OA
ENDBRANCH  20  28
ENDBRANCH  16  23
ENDBRANCH   1  17
TORSDOF 4
ENDMDL
MODEL 3
REMARK VINA RESULT:      -8.1      1.682      3.963
REMARK  Name = 
REMARK  5 active torsions:
REMARK  status: ('A' for Active; 'I' for Inactive)
REMARK    1  A    between atoms: C_1  and  O_2
REMARK    2  A    between atoms: O_2  and  C_3
REMARK    3  A    between atoms: C_6  and  N_7
REMARK    4  A    between atoms: C_8  and  C_10
REMARK    5  A    between atoms: C_10  and  N_11
REMARK                            x       y       z     vdW  Elec       q    Type
REMARK                         _______ _______ _______ _____ _____    ______ ____
ROOT
ATOM      1  C   UNL     1       4.928   5.671  16.663  0.00  0.00    +0.000 C 
ENDROOT
BRANCH   1   2
ATOM      2  N   UNL     1       4.782   4.627  17.644  0.00  0.00    +0.000 N 
ATOM      3  C   UNL     1       5.751   4.208  18.497  0.00  0.00    +0.000 C 
ATOM      4  O   UNL     1       6.910   4.586  18.524  0.00  0.00    +0.000 OA
ATOM      5  N   UNL     1       5.202   3.264  19.338  0.00  0.00    +0.000 N 
ATOM      6  C   UNL     1       3.741   3.249  19.245  0.00  0.00    +0.000 C 
ATOM      7  C   UNL     1       3.188   4.214  20.315  0.00  0.00    +0.000 C 
ATOM      8  C   UNL     1       1.716   4.589  20.171  0.00  0.00    +0.000 C 
ATOM      9  C   UNL     1       0.733   3.423  20.236  0.00  0.00    +0.000 C 
ATOM     10  C   UNL     1       0.702   2.558  18.983  0.00  0.00    +0.000 C 
ATOM     11  C   UNL     1       1.816   1.523  18.841  0.00  0.00    +0.000 C 
ATOM     12  C   UNL     1       3.195   1.835  19.415  0.00  0.00    +0.000 C 
ATOM     13  C   UNL     1       3.634   3.913  17.850  0.00  0.00    +0.000 C 
ATOM     14  O   UNL     1       2.680   3.901  17.099  0.00  0.00    +0.000 OA
ATOM     15  H   UNL     1       5.742   2.895  20.110  0.00  0.00    +0.000 HD
ENDBRANCH   1   2
BRANCH   1  17
ATOM     16  N   UNL     1       3.095   6.947  17.660  0.00  0.00    +0.000 N 
ATOM     17  C   UNL     1       4.442   6.964  17.328  0.00  0.00    +0.000 C 
ATOM     18  O   UNL     1       5.197   7.923  17.469  0.00  0.00    +0.000 OA
ATOM     19  H   UNL     1       2.588   6.084  17.486  0.00  0.00    +0.000 HD
BRANCH  16  23
ATOM     20  C   UNL     1       0.911  10.009  19.639  0.00  0.00    +0.000 A 
ATOM     21  C   UNL     1       1.193  10.118  18.271  0.00  0.00    +0.000 A 
ATOM     22  C   UNL     1       1.915   9.128  17.592  0.00  0.00    +0.000 A 
ATOM     23  C   UNL     1       2.359   7.991  18.265  0.00  0.00    +0.000 A 
ATOM     24  C   UNL     1       2.049   7.859  19.622  0.00  0.00    +0.000 A 
ATOM     25  C   UNL     1       1.335   8.857  20.311  0.00  0.00    +0.000 A 
ATOM     26 CL   UNL     1       0.980   8.512  21.967  0.00  0.00    +0.000 Cl
BRANCH  20  28
ATOM     27  C   UNL     1       0.811  12.036  20.890  0.00  0.00    +0.000 C 
ATOM     28  O   UNL     1       0.149  11.038  20.122  0.00  0.00    +0.000 OA
ENDBRANCH  20  28
ENDBRANCH  16  23
ENDBRANCH   1  17
TORSDOF 4
ENDMDL
MODEL 4
REMARK VINA RESULT:      -7.7      2.308      4.307
REMARK  Name = 
REMARK  5 active torsions:
REMARK  status: ('A' for Active; 'I' for Inactive)
REMARK    1  A    between atoms: C_1  and  O_2
REMARK    2  A    between atoms: O_2  and  C_3
REMARK    3  A    between atoms: C_6  and  N_7
REMARK    4  A    between atoms: C_8  and  C_10
REMARK    5  A    between atoms: C_10  and  N_11
REMARK                            x       y       z     vdW  Elec       q    Type
REMARK                         _______ _______ _______ _____ _____    ______ ____
ROOT
ATOM      1  C   UNL     1       3.803   7.092  17.408  0.00  0.00    +0.000 C 
ENDROOT
BRANCH   1   2
ATOM      2  N   UNL     1       4.017   5.825  18.060  0.00  0.00    +0.000 N 
ATOM      3  C   UNL     1       5.155   5.452  18.697  0.00  0.00    +0.000 C 
ATOM      4  O   UNL     1       6.196   6.085  18.758  0.00  0.00    +0.000 OA
ATOM      5  N   UNL     1       4.941   4.216  19.269  0.00  0.00    +0.000 N 
ATOM      6  C   UNL     1       3.520   3.866  19.266  0.00  0.00    +0.000 C 
ATOM      7  C   UNL     1       2.909   4.350  20.597  0.00  0.00    +0.000 C 
ATOM      8  C   UNL     1       1.385   4.374  20.658  0.00  0.00    +0.000 C 
ATOM      9  C   UNL     1       0.700   3.025  20.451  0.00  0.00    +0.000 C 
ATOM     10  C   UNL     1       0.701   2.537  19.008  0.00  0.00    +0.000 C 
ATOM     11  C   UNL     1       1.988   1.883  18.510  0.00  0.00    +0.000 C 
ATOM     12  C   UNL     1       3.325   2.367  19.062  0.00  0.00    +0.000 C 
ATOM     13  C   UNL     1       3.091   4.822  18.125  0.00  0.00    +0.000 C 
ATOM     14  O   UNL     1       2.075   4.770  17.463  0.00  0.00    +0.000 OA
ATOM     15  H   UNL     1       5.644   3.805  19.869  0.00  0.00    +0.000 HD
ENDBRANCH   1   2
BRANCH   1  17
ATOM     16  N   UNL     1       2.176   8.911  17.575  0.00  0.00    +0.000 N 
ATOM     17  C   UNL     1       2.751   7.836  18.238  0.00  0.00    +0.000 C 
ATOM     18  O   UNL     1       2.523   7.515  19.401  0.00  0.00    +0.000 OA
ATOM     19  H   UNL     1       2.460   9.063  16.611  0.00  0.00    +0.000 HD
BRANCH  16  23
ATOM     20  C   UNL     1      -0.900  11.445  19.050  0.00  0.00    +0.000 A 
ATOM     21  C   UNL     1       0.444  11.758  19.290  0.00  0.00    +0.000 A 
ATOM     22  C   UNL     1       1.480  10.939  18.822  0.00  0.00    +0.000 A 
ATOM     23  C   UNL     1       1.195   9.793  18.082  0.00  0.00    +0.000 A 
ATOM     24  C   UNL     1      -0.144   9.496  17.806  0.00  0.00    +0.000 A 
ATOM     25  C   UNL     1      -1.188  10.308  18.285  0.00  0.00    +0.000 A 
ATOM     26 CL   UNL     1      -2.780   9.836  17.805  0.00  0.00    +0.000 Cl
BRANCH  20  28
ATOM     27  C   UNL     1      -2.060  12.355  20.923  0.00  0.00    +0.000 C 
ATOM     28  O   UNL     1      -1.773  12.383  19.530  0.00  0.00    +0.000 OA
ENDBRANCH  20  28
ENDBRANCH  16  23
ENDBRANCH   1  17
TORSDOF 4
ENDMDL
MODEL 5
REMARK VINA RESULT:      -7.5      4.555      6.635
REMARK  Name = 
REMARK  5 active torsions:
REMARK  status: ('A' for Active; 'I' for Inactive)
REMARK    1  A    between atoms: C_1  and  O_2
REMARK    2  A    between atoms: O_2  and  C_3
REMARK    3  A    between atoms: C_6  and  N_7
REMARK    4  A    between atoms: C_8  and  C_10
REMARK    5  A    between atoms: C_10  and  N_11
REMARK                            x       y       z     vdW  Elec       q    Type
REMARK                         _______ _______ _______ _____ _____    ______ ____
ROOT
ATOM      1  C   UNL     1       7.761   5.834  18.741  0.00  0.00    +0.000 C 
ENDROOT
BRANCH   1   2
ATOM      2  N   UNL     1       6.668   5.196  18.053  0.00  0.00    +0.000 N 
ATOM      3  C   UNL     1       6.772   4.481  16.905  0.00  0.00    +0.000 C 
ATOM      4  O   UNL     1       7.778   4.325  16.233  0.00  0.00    +0.000 OA
ATOM      5  N   UNL     1       5.531   3.955  16.614  0.00  0.00    +0.000 N 
ATOM      6  C   UNL     1       4.619   4.076  17.752  0.00  0.00    +0.000 C 
ATOM      7  C   UNL     1       4.733   2.786  18.591  0.00  0.00    +0.000 C 
ATOM      8  C   UNL     1       4.114   2.843  19.983  0.00  0.00    +0.000 C 
ATOM      9  C   UNL     1       2.616   3.133  20.023  0.00  0.00    +0.000 C 
ATOM     10  C   UNL     1       2.249   4.581  19.729  0.00  0.00    +0.000 C 
ATOM     11  C   UNL     1       2.221   4.993  18.259  0.00  0.00    +0.000 C 
ATOM     12  C   UNL     1       3.189   4.328  17.285  0.00  0.00    +0.000 C 
ATOM     13  C   UNL     1       5.367   5.225  18.473  0.00  0.00    +0.000 C 
ATOM     14  O   UNL     1       4.930   5.965  19.330  0.00  0.00    +0.000 OA
ATOM     15  H   UNL     1       5.421   3.311  15.841  0.00  0.00    +0.000 HD
ENDBRANCH   1   2
BRANCH   1  17
ATOM     16  N   UNL     1       8.533   8.141  18.999  0.00  0.00    +0.000 N 
ATOM     17  C   UNL     1       7.868   7.251  18.167  0.00  0.00    +0.000 C 
ATOM     18  O   UNL     1       7.337   7.540  17.098  0.00  0.00    +0.000 OA
ATOM     19  H   UNL     1       8.922   7.764  19.859  0.00  0.00    +0.000 HD
BRANCH  16  23
ATOM     20  C   UNL     1       9.384  12.259  18.388  0.00  0.00    +0.000 A 
ATOM     21  C   UNL     1       8.480  11.596  17.548  0.00  0.00    +0.000 A 
ATOM     22  C   UNL     1       8.183  10.237  17.721  0.00  0.00    +0.000 A 
ATOM     23  C   UNL     1       8.772   9.512  18.755  0.00  0.00    +0.000 A 
ATOM     24  C   UNL     1       9.647  10.178  19.620  0.00  0.00    +0.000 A 
ATOM     25  C   UNL     1       9.957  11.539  19.442  0.00  0.00    +0.000 A 
ATOM     26 CL   UNL     1      11.006  12.226  20.632  0.00  0.00    +0.000 Cl
BRANCH  20  28
ATOM     27  C   UNL     1       8.705  14.495  18.859  0.00  0.00    +0.000 C 
ATOM     28  O   UNL     1       9.509  13.593  18.109  0.00  0.00    +0.000 OA
ENDBRANCH  20  28
ENDBRANCH  16  23
ENDBRANCH   1  17
TORSDOF 4
ENDMDL
MODEL 6
REMARK VINA RESULT:      -7.5      2.255      4.226
REMARK  Name = 
REMARK  5 active torsions:
REMARK  status: ('A' for Active; 'I' for Inactive)
REMARK    1  A    between atoms: C_1  and  O_2
REMARK    2  A    between atoms: O_2  and  C_3
REMARK    3  A    between atoms: C_6  and  N_7
REMARK    4  A    between atoms: C_8  and  C_10
REMARK    5  A    between atoms: C_10  and  N_11
REMARK                            x       y       z     vdW  Elec       q    Type
REMARK                         _______ _______ _______ _____ _____    ______ ____
ROOT
ATOM      1  C   UNL     1       3.962   6.979  17.426  0.00  0.00    +0.000 C 
ENDROOT
BRANCH   1   2
ATOM      2  N   UNL     1       4.146   5.716  18.092  0.00  0.00    +0.000 N 
ATOM      3  C   UNL     1       5.262   5.338  18.766  0.00  0.00    +0.000 C 
ATOM      4  O   UNL     1       6.306   5.963  18.855  0.00  0.00    +0.000 OA
ATOM      5  N   UNL     1       5.020   4.108  19.340  0.00  0.00    +0.000 N 
ATOM      6  C   UNL     1       3.596   3.769  19.297  0.00  0.00    +0.000 C 
ATOM      7  C   UNL     1       2.949   4.268  20.605  0.00  0.00    +0.000 C 
ATOM      8  C   UNL     1       1.425   4.304  20.619  0.00  0.00    +0.000 C 
ATOM      9  C   UNL     1       0.735   2.960  20.401  0.00  0.00    +0.000 C 
ATOM     10  C   UNL     1       0.775   2.461  18.963  0.00  0.00    +0.000 C 
ATOM     11  C   UNL     1       2.072   1.793  18.508  0.00  0.00    +0.000 C 
ATOM     12  C   UNL     1       3.396   2.270  19.097  0.00  0.00    +0.000 C 
ATOM     13  C   UNL     1       3.211   4.720  18.137  0.00  0.00    +0.000 C 
ATOM     14  O   UNL     1       2.215   4.671  17.444  0.00  0.00    +0.000 OA
ATOM     15  H   UNL     1       5.701   3.695  19.964  0.00  0.00    +0.000 HD
ENDBRANCH   1   2
BRANCH   1  17
ATOM     16  N   UNL     1       2.323   8.792  17.519  0.00  0.00    +0.000 N 
ATOM     17  C   UNL     1       2.893   7.739  18.219  0.00  0.00    +0.000 C 
ATOM     18  O   UNL     1       2.650   7.447  19.388  0.00  0.00    +0.000 OA
ATOM     19  H   UNL     1       2.620   8.919  16.556  0.00  0.00    +0.000 HD
BRANCH  16  23
ATOM     20  C   UNL     1      -0.539  11.584  18.959  0.00  0.00    +0.000 A 
ATOM     21  C   UNL     1      -0.961  10.390  18.362  0.00  0.00    +0.000 A 
ATOM     22  C   UNL     1      -0.041   9.452  17.873  0.00  0.00    +0.000 A 
ATOM     23  C   UNL     1       1.328   9.680  17.987  0.00  0.00    +0.000 A 
ATOM     24  C   UNL     1       1.756  10.854  18.616  0.00  0.00    +0.000 A 
ATOM     25  C   UNL     1       0.837  11.804  19.097  0.00  0.00    +0.000 A 
ATOM     26 CL   UNL     1       1.527  13.169  19.903  0.00  0.00    +0.000 Cl
BRANCH  20  28
ATOM     27  C   UNL     1      -2.891  11.947  19.096  0.00  0.00    +0.000 C 
ATOM     28  O   UNL     1      -1.569  12.353  19.429  0.00  0.00    +0.000 OA
ENDBRANCH  20  28
ENDBRANCH  16  23
ENDBRANCH   1  17
TORSDOF 4
ENDMDL
MODEL 7
REMARK VINA RESULT:      -7.5      4.182      7.742
REMARK  Name = 
REMARK  5 active torsions:
REMARK  status: ('A' for Active; 'I' for Inactive)
REMARK    1  A    between atoms: C_1  and  O_2
REMARK    2  A    between atoms: O_2  and  C_3
REMARK    3  A    between atoms: C_6  and  N_7
REMARK    4  A    between atoms: C_8  and  C_10
REMARK    5  A    between atoms: C_10  and  N_11
REMARK                            x       y       z     vdW  Elec       q    Type
REMARK                         _______ _______ _______ _____ _____    ______ ____
ROOT
ATOM      1  C   UNL     1       4.676   6.630  17.856  0.00  0.00    +0.000 C 
ENDROOT
BRANCH   1   2
ATOM      2  N   UNL     1       4.567   5.358  18.522  0.00  0.00    +0.000 N 
ATOM      3  C   UNL     1       5.495   4.826  19.357  0.00  0.00    +0.000 C 
ATOM      4  O   UNL     1       6.591   5.292  19.619  0.00  0.00    +0.000 OA
ATOM      5  N   UNL     1       4.989   3.647  19.864  0.00  0.00    +0.000 N 
ATOM      6  C   UNL     1       3.557   3.519  19.590  0.00  0.00    +0.000 C 
ATOM      7  C   UNL     1       2.790   4.115  20.789  0.00  0.00    +0.000 C 
ATOM      8  C   UNL     1       1.304   4.372  20.563  0.00  0.00    +0.000 C 
ATOM      9  C   UNL     1       0.470   3.142  20.215  0.00  0.00    +0.000 C 
ATOM     10  C   UNL     1       0.666   2.634  18.793  0.00  0.00    +0.000 C 
ATOM     11  C   UNL     1       1.907   1.782  18.537  0.00  0.00    +0.000 C 
ATOM     12  C   UNL     1       3.176   2.064  19.336  0.00  0.00    +0.000 C 
ATOM     13  C   UNL     1       3.502   4.509  18.401  0.00  0.00    +0.000 C 
ATOM     14  O   UNL     1       2.632   4.602  17.559  0.00  0.00    +0.000 OA
ATOM     15  H   UNL     1       5.496   3.144  20.580  0.00  0.00    +0.000 HD
ENDBRANCH   1   2
BRANCH   1  17
ATOM     16  N   UNL     1       5.131   5.250  15.889  0.00  0.00    +0.000 N 
ATOM     17  C   UNL     1       5.503   6.389  16.588  0.00  0.00    +0.000 C 
ATOM     18  O   UNL     1       6.443   7.125  16.299  0.00  0.00    +0.000 OA
ATOM     19  H   UNL     1       4.332   4.731  16.244  0.00  0.00    +0.000 HD
BRANCH  16  23
ATOM     20  C   UNL     1       6.719   3.754  12.242  0.00  0.00    +0.000 A 
ATOM     21  C   UNL     1       7.576   4.260  13.227  0.00  0.00    +0.000 A 
ATOM     22  C   UNL     1       7.082   4.766  14.437  0.00  0.00    +0.000 A 
ATOM     23  C   UNL     1       5.713   4.758  14.699  0.00  0.00    +0.000 A 
ATOM     24  C   UNL     1       4.856   4.218  13.735  0.00  0.00    +0.000 A 
ATOM     25  C   UNL     1       5.346   3.722  12.514  0.00  0.00    +0.000 A 
ATOM     26 CL   UNL     1       4.162   3.034  11.459  0.00  0.00    +0.000 Cl
BRANCH  20  28
ATOM     27  C   UNL     1       7.446   1.837  11.026  0.00  0.00    +0.000 C 
ATOM     28  O   UNL     1       7.377   3.251  11.152  0.00  0.00    +0.000 OA
ENDBRANCH  20  28
ENDBRANCH  16  23
ENDBRANCH   1  17
TORSDOF 4
ENDMDL
MODEL 8
REMARK VINA RESULT:      -7.4      1.880      4.141
REMARK  Name = 
REMARK  5 active torsions:
REMARK  status: ('A' for Active; 'I' for Inactive)
REMARK    1  A    between atoms: C_1  and  O_2
REMARK    2  A    between atoms: O_2  and  C_3
REMARK    3  A    between atoms: C_6  and  N_7
REMARK    4  A    between atoms: C_8  and  C_10
REMARK    5  A    between atoms: C_10  and  N_11
REMARK                            x       y       z     vdW  Elec       q    Type
REMARK                         _______ _______ _______ _____ _____    ______ ____
ROOT
ATOM      1  C   UNL     1       4.600   5.948  16.762  0.00  0.00    +0.000 C 
ENDROOT
BRANCH   1   2
ATOM      2  N   UNL     1       4.566   4.769  17.587  0.00  0.00    +0.000 N 
ATOM      3  C   UNL     1       5.622   4.254  18.265  0.00  0.00    +0.000 C 
ATOM      4  O   UNL     1       6.774   4.652  18.230  0.00  0.00    +0.000 OA
ATOM      5  N   UNL     1       5.173   3.183  19.010  0.00  0.00    +0.000 N 
ATOM      6  C   UNL     1       3.710   3.147  19.063  0.00  0.00    +0.000 C 
ATOM      7  C   UNL     1       3.262   3.930  20.315  0.00  0.00    +0.000 C 
ATOM      8  C   UNL     1       1.780   4.286  20.378  0.00  0.00    +0.000 C 
ATOM      9  C   UNL     1       0.820   3.099  20.369  0.00  0.00    +0.000 C 
ATOM     10  C   UNL     1       0.668   2.426  19.012  0.00  0.00    +0.000 C 
ATOM     11  C   UNL     1       1.770   1.451  18.606  0.00  0.00    +0.000 C 
ATOM     12  C   UNL     1       3.198   1.710  19.077  0.00  0.00    +0.000 C 
ATOM     13  C   UNL     1       3.453   4.004  17.800  0.00  0.00    +0.000 C 
ATOM     14  O   UNL     1       2.426   4.078  17.156  0.00  0.00    +0.000 OA
ATOM     15  H   UNL     1       5.794   2.719  19.659  0.00  0.00    +0.000 HD
ENDBRANCH   1   2
BRANCH   1  17
ATOM     16  N   UNL     1       2.863   6.920  18.184  0.00  0.00    +0.000 N 
ATOM     17  C   UNL     1       4.126   7.110  17.643  0.00  0.00    +0.000 C 
ATOM     18  O   UNL     1       4.809   8.123  17.771  0.00  0.00    +0.000 OA
ATOM     19  H   UNL     1       2.410   6.030  17.994  0.00  0.00    +0.000 HD
BRANCH  16  23
ATOM     20  C   UNL     1       0.688   9.704  20.546  0.00  0.00    +0.000 A 
ATOM     21  C   UNL     1       1.208   8.541  21.130  0.00  0.00    +0.000 A 
ATOM     22  C   UNL     1       1.925   7.602  20.376  0.00  0.00    +0.000 A 
ATOM     23  C   UNL     1       2.155   7.814  19.018  0.00  0.00    +0.000 A 
ATOM     24  C   UNL     1       1.670   8.991  18.438  0.00  0.00    +0.000 A 
ATOM     25  C   UNL     1       0.940   9.930  19.188  0.00  0.00    +0.000 A 
ATOM     26 CL   UNL     1       0.466  11.358  18.337  0.00  0.00    +0.000 Cl
BRANCH  20  28
ATOM     27  C   UNL     1      -0.236   9.999  22.723  0.00  0.00    +0.000 C 
ATOM     28  O   UNL     1       0.068  10.533  21.441  0.00  0.00    +0.000 OA
ENDBRANCH  20  28
ENDBRANCH  16  23
ENDBRANCH   1  17
TORSDOF 4
ENDMDL
MODEL 9
REMARK VINA RESULT:      -7.4      1.059      1.119
REMARK  Name = 
REMARK  5 active torsions:
REMARK  status: ('A' for Active; 'I' for Inactive)
REMARK    1  A    between atoms: C_1  and  O_2
REMARK    2  A    between atoms: O_2  and  C_3
REMARK    3  A    between atoms: C_6  and  N_7
REMARK    4  A    between atoms: C_8  and  C_10
REMARK    5  A    between atoms: C_10  and  N_11
REMARK                            x       y       z     vdW  Elec       q    Type
REMARK                         _______ _______ _______ _____ _____    ______ ____
ROOT
ATOM      1  C   UNL     1       2.746   3.704  19.775  0.00  0.00    +0.000 C 
ENDROOT
BRANCH   1   2
ATOM      2  N   UNL     1       3.568   3.762  18.594  0.00  0.00    +0.000 N 
ATOM      3  C   UNL     1       3.181   3.390  17.348  0.00  0.00    +0.000 C 
ATOM      4  O   UNL     1       2.117   2.882  17.037  0.00  0.00    +0.000 OA
ATOM      5  N   UNL     1       4.209   3.681  16.475  0.00  0.00    +0.000 N 
ATOM      6  C   UNL     1       5.213   4.542  17.101  0.00  0.00    +0.000 C 
ATOM      7  C   UNL     1       4.833   6.008  16.804  0.00  0.00    +0.000 C 
ATOM      8  C   UNL     1       5.561   7.062  17.631  0.00  0.00    +0.000 C 
ATOM      9  C   UNL     1       7.080   7.078  17.483  0.00  0.00    +0.000 C 
ATOM     10  C   UNL     1       7.792   5.934  18.194  0.00  0.00    +0.000 C 
ATOM     11  C   UNL     1       7.803   4.586  17.476  0.00  0.00    +0.000 C 
ATOM     12  C   UNL     1       6.614   4.204  16.600  0.00  0.00    +0.000 C 
ATOM     13  C   UNL     1       4.861   4.207  18.571  0.00  0.00    +0.000 C 
ATOM     14  O   UNL     1       5.550   4.389  19.554  0.00  0.00    +0.000 OA
ATOM     15  H   UNL     1       4.079   3.562  15.479  0.00  0.00    +0.000 HD
ENDBRANCH   1   2
BRANCH   1  17
ATOM     16  N   UNL     1       2.296   5.975  18.983  0.00  0.00    +0.000 N 
ATOM     17  C   UNL     1       2.343   5.148  20.096  0.00  0.00    +0.000 C 
ATOM     18  O   UNL     1       2.158   5.507  21.256  0.00  0.00    +0.000 OA
ATOM     19  H   UNL     1       2.474   5.542  18.080  0.00  0.00    +0.000 HD
BRANCH  16  23
ATOM     20  C   UNL     1       1.317  10.108  19.100  0.00  0.00    +0.000 A 
ATOM     21  C   UNL     1       1.743   9.520  17.902  0.00  0.00    +0.000 A 
ATOM     22  C   UNL     1       2.079   8.162  17.833  0.00  0.00    +0.000 A 
ATOM     23  C   UNL     1       1.976   7.351  18.962  0.00  0.00    +0.000 A 
ATOM     24  C   UNL     1       1.514   7.924  20.151  0.00  0.00    +0.000 A 
ATOM     25  C   UNL     1       1.189   9.290  20.228  0.00  0.00    +0.000 A 
ATOM     26 CL   UNL     1       0.575   9.827  21.753  0.00  0.00    +0.000 Cl
BRANCH  20  28
ATOM     27  C   UNL     1       2.017  12.338  18.630  0.00  0.00    +0.000 C 
ATOM     28  O   UNL     1       0.978  11.428  18.969  0.00  0.00    +0.000 OA
ENDBRANCH  20  28
ENDBRANCH  16  23
ENDBRANCH   1  17
TORSDOF 4
ENDMDL
