MODEL 1
REMARK VINA RESULT:      -7.0      0.000      0.000
REMARK  Name = 
REMARK  5 active torsions:
REMARK  status: ('A' for Active; 'I' for Inactive)
REMARK    1  A    between atoms: C_2  and  C_16
REMARK    2  A    between atoms: N_3  and  C_4
REMARK    3  A    between atoms: C_4  and  C_5
REMARK    4  A    between atoms: C_5  and  C_6
REMARK    5  A    between atoms: C_9  and  C_10
REMARK                            x       y       z     vdW  Elec       q    Type
REMARK                         _______ _______ _______ _____ _____    ______ ____
ROOT
ATOM      1  C   UNL     1       7.581   6.146  18.624  0.00  0.00    +0.000 C 
ENDROOT
BRANCH   1   2
ATOM      2  C   UNL     1       6.503   5.386  17.913  0.00  0.00    +0.000 A 
ATOM      3  C   UNL     1       6.534   5.034  16.578  0.00  0.00    +0.000 A 
ATOM      4  S   UNL     1       5.135   4.146  16.168  0.00  0.00    +0.000 S 
ATOM      5  C   UNL     1       4.566   4.290  17.787  0.00  0.00    +0.000 A 
ATOM      6  N   UNL     1       5.367   4.965  18.593  0.00  0.00    +0.000 NA
BRANCH   5   7
ATOM      7  C   UNL     1       3.313   3.732  18.251  0.00  0.00    +0.000 A 
ATOM      8  C   UNL     1       2.303   4.419  18.906  0.00  0.00    +0.000 A 
ATOM      9  C   UNL     1       1.182   3.594  19.224  0.00  0.00    +0.000 A 
ATOM     10  C   UNL     1       1.368   2.297  18.808  0.00  0.00    +0.000 A 
ATOM     11  S   UNL     1       2.878   2.080  18.045  0.00  0.00    +0.000 S 
ENDBRANCH   5   7
ENDBRANCH   1   2
BRANCH   1  12
ATOM     12  C   UNL     1       7.884   7.518  18.018  0.00  0.00    +0.000 C 
BRANCH  12  15
ATOM     13  O   UNL     1       8.137  10.325  17.903  0.00  0.00    +0.000 OA
ATOM     14  C   UNL     1       8.839   9.702  18.690  0.00  0.00    +0.000 C 
ATOM     15  N   UNL     1       8.752   8.335  18.856  0.00  0.00    +0.000 N 
ATOM     16  H   UNL     1       9.446   7.864  19.420  0.00  0.00    +0.000 HD
BRANCH  14  17
ATOM     17  C   UNL     1       9.846  10.368  19.613  0.00  0.00    +0.000 C 
ATOM     18  C   UNL     1      10.762  11.341  18.879  0.00  0.00    +0.000 C 
ATOM     19  C   UNL     1      11.345  12.201  19.992  0.00  0.00    +0.000 C 
ATOM     20  C   UNL     1      10.283  12.243  21.088  0.00  0.00    +0.000 C 
ATOM     21  C   UNL     1       9.193  11.263  20.666  0.00  0.00    +0.000 C 
ENDBRANCH  14  17
ENDBRANCH  12  15
ENDBRANCH   1  12
TORSDOF 5
ENDMDL
MODEL 2
REMARK VINA RESULT:      -7.0      2.680      4.102
REMARK  Name = 
REMARK  5 active torsions:
REMARK  status: ('A' for Active; 'I' for Inactive)
REMARK    1  A    between atoms: C_2  and  C_16
REMARK    2  A    between atoms: N_3  and  C_4
REMARK    3  A    between atoms: C_4  and  C_5
REMARK    4  A    between atoms: C_5  and  C_6
REMARK    5  A    between atoms: C_9  and  C_10
REMARK                            x       y       z     vdW  Elec       q    Type
REMARK                         _______ _______ _______ _____ _____    ______ ____
ROOT
ATOM      1  C   UNL     1       8.108   7.404  18.232  0.00  0.00    +0.000 C 
ENDROOT
BRANCH   1   2
ATOM      2  C   UNL     1       7.255   6.398  17.522  0.00  0.00    +0.000 A 
ATOM      3  C   UNL     1       6.183   5.733  18.086  0.00  0.00    +0.000 A 
ATOM      4  S   UNL     1       5.457   4.701  16.937  0.00  0.00    +0.000 S 
ATOM      5  C   UNL     1       6.615   5.192  15.760  0.00  0.00    +0.000 A 
ATOM      6  N   UNL     1       7.499   6.072  16.194  0.00  0.00    +0.000 NA
BRANCH   5   7
ATOM      7  C   UNL     1       6.641   4.692  14.402  0.00  0.00    +0.000 A 
ATOM      8  C   UNL     1       5.749   3.790  13.843  0.00  0.00    +0.000 A 
ATOM      9  C   UNL     1       6.031   3.502  12.474  0.00  0.00    +0.000 A 
ATOM     10  C   UNL     1       7.135   4.186  12.024  0.00  0.00    +0.000 A 
ATOM     11  S   UNL     1       7.822   5.164  13.242  0.00  0.00    +0.000 S 
ENDBRANCH   5   7
ENDBRANCH   1   2
BRANCH   1  12
ATOM     12  C   UNL     1       7.898   8.846  17.763  0.00  0.00    +0.000 C 
BRANCH  12  15
ATOM     13  O   UNL     1       7.983  11.627  17.301  0.00  0.00    +0.000 OA
ATOM     14  C   UNL     1       8.831  11.124  18.028  0.00  0.00    +0.000 C 
ATOM     15  N   UNL     1       8.842   9.784  18.355  0.00  0.00    +0.000 N 
ATOM     16  H   UNL     1       9.640   9.406  18.848  0.00  0.00    +0.000 HD
BRANCH  14  17
ATOM     17  C   UNL     1       9.933  11.928  18.699  0.00  0.00    +0.000 C 
ATOM     18  C   UNL     1      10.307  11.381  20.072  0.00  0.00    +0.000 C 
ATOM     19  C   UNL     1      11.669  12.002  20.351  0.00  0.00    +0.000 C 
ATOM     20  C   UNL     1      12.325  12.202  18.987  0.00  0.00    +0.000 C 
ATOM     21  C   UNL     1      11.263  11.865  17.947  0.00  0.00    +0.000 C 
ENDBRANCH  14  17
ENDBRANCH  12  15
ENDBRANCH   1  12
TORSDOF 5
ENDMDL
MODEL 3
REMARK VINA RESULT:      -6.9      5.194      7.069
REMARK  Name = 
REMARK  5 active torsions:
REMARK  status: ('A' for Active; 'I' for Inactive)
REMARK    1  A    between atoms: C_2  and  C_16
REMARK    2  A    between atoms: N_3  and  C_4
REMARK    3  A    between atoms: C_4  and  C_5
REMARK    4  A    between atoms: C_5  and  C_6
REMARK    5  A    between atoms: C_9  and  C_10
REMARK                            x       y       z     vdW  Elec       q    Type
REMARK                         _______ _______ _______ _____ _____    ______ ____
ROOT
ATOM      1  C   UNL     1       4.918   3.749  18.748  0.00  0.00    +0.000 C 
ENDROOT
BRANCH   1   2
ATOM      2  C   UNL     1       3.778   4.562  19.280  0.00  0.00    +0.000 A 
ATOM      3  C   UNL     1       2.881   4.132  20.238  0.00  0.00    +0.000 A 
ATOM      4  S   UNL     1       1.758   5.367  20.593  0.00  0.00    +0.000 S 
ATOM      5  C   UNL     1       2.525   6.398  19.446  0.00  0.00    +0.000 A 
ATOM      6  N   UNL     1       3.558   5.856  18.825  0.00  0.00    +0.000 NA
BRANCH   5   7
ATOM      7  C   UNL     1       2.089   7.749  19.161  0.00  0.00    +0.000 A 
ATOM      8  C   UNL     1       2.279   8.438  17.974  0.00  0.00    +0.000 A 
ATOM      9  C   UNL     1       1.719   9.751  17.995  0.00  0.00    +0.000 A 
ATOM     10  C   UNL     1       1.123  10.033  19.201  0.00  0.00    +0.000 A 
ATOM     11  S   UNL     1       1.238   8.727  20.293  0.00  0.00    +0.000 S 
ENDBRANCH   5   7
ENDBRANCH   1   2
BRANCH   1  12
ATOM     12  C   UNL     1       6.091   4.581  18.224  0.00  0.00    +0.000 C 
BRANCH  12  15
ATOM     13  O   UNL     1       5.091   5.507  15.754  0.00  0.00    +0.000 OA
ATOM     14  C   UNL     1       5.959   4.642  15.752  0.00  0.00    +0.000 C 
ATOM     15  N   UNL     1       6.546   4.163  16.904  0.00  0.00    +0.000 N 
ATOM     16  H   UNL     1       7.156   3.359  16.847  0.00  0.00    +0.000 HD
BRANCH  14  17
ATOM     17  C   UNL     1       6.527   4.039  14.478  0.00  0.00    +0.000 C 
ATOM     18  C   UNL     1       5.443   3.630  13.487  0.00  0.00    +0.000 C 
ATOM     19  C   UNL     1       6.190   3.495  12.167  0.00  0.00    +0.000 C 
ATOM     20  C   UNL     1       7.351   4.483  12.241  0.00  0.00    +0.000 C 
ATOM     21  C   UNL     1       7.358   5.030  13.664  0.00  0.00    +0.000 C 
ENDBRANCH  14  17
ENDBRANCH  12  15
ENDBRANCH   1  12
TORSDOF 5
ENDMDL
MODEL 4
REMARK VINA RESULT:      -6.9      4.930      7.243
REMARK  Name = 
REMARK  5 active torsions:
REMARK  status: ('A' for Active; 'I' for Inactive)
REMARK    1  A    between atoms: C_2  and  C_16
REMARK    2  A    between atoms: N_3  and  C_4
REMARK    3  A    between atoms: C_4  and  C_5
REMARK    4  A    between atoms: C_5  and  C_6
REMARK    5  A    between atoms: C_9  and  C_10
REMARK                            x       y       z     vdW  Elec       q    Type
REMARK                         _______ _______ _______ _____ _____    ______ ____
ROOT
ATOM      1  C   UNL     1       6.800   4.530  16.721  0.00  0.00    +0.000 C 
ENDROOT
BRANCH   1   2
ATOM      2  C   UNL     1       5.527   4.975  17.372  0.00  0.00    +0.000 A 
ATOM      3  C   UNL     1       4.965   6.228  17.232  0.00  0.00    +0.000 A 
ATOM      4  S   UNL     1       3.501   6.321  18.105  0.00  0.00    +0.000 S 
ATOM      5  C   UNL     1       3.705   4.691  18.624  0.00  0.00    +0.000 A 
ATOM      6  N   UNL     1       4.804   4.107  18.180  0.00  0.00    +0.000 NA
BRANCH   5   7
ATOM      7  C   UNL     1       2.768   3.998  19.483  0.00  0.00    +0.000 A 
ATOM      8  C   UNL     1       1.393   4.170  19.501  0.00  0.00    +0.000 A 
ATOM      9  C   UNL     1       0.738   3.329  20.451  0.00  0.00    +0.000 A 
ATOM     10  C   UNL     1       1.631   2.542  21.138  0.00  0.00    +0.000 A 
ATOM     11  S   UNL     1       3.239   2.816  20.641  0.00  0.00    +0.000 S 
ENDBRANCH   5   7
ENDBRANCH   1   2
BRANCH   1  12
ATOM     12  C   UNL     1       7.107   5.233  15.397  0.00  0.00    +0.000 C 
BRANCH  12  15
ATOM     13  O   UNL     1       8.096   5.615  12.783  0.00  0.00    +0.000 OA
ATOM     14  C   UNL     1       7.278   4.724  12.980  0.00  0.00    +0.000 C 
ATOM     15  N   UNL     1       6.775   4.427  14.229  0.00  0.00    +0.000 N 
ATOM     16  H   UNL     1       6.007   3.774  14.307  0.00  0.00    +0.000 HD
BRANCH  14  17
ATOM     17  C   UNL     1       6.765   3.809  11.879  0.00  0.00    +0.000 C 
ATOM     18  C   UNL     1       7.658   2.592  11.664  0.00  0.00    +0.000 C 
ATOM     19  C   UNL     1       6.770   1.623  10.896  0.00  0.00    +0.000 C 
ATOM     20  C   UNL     1       5.341   1.923  11.339  0.00  0.00    +0.000 C 
ATOM     21  C   UNL     1       5.415   3.173  12.210  0.00  0.00    +0.000 C 
ENDBRANCH  14  17
ENDBRANCH  12  15
ENDBRANCH   1  12
TORSDOF 5
ENDMDL
MODEL 5
REMARK VINA RESULT:      -6.8      4.723      7.230
REMARK  Name = 
REMARK  5 active torsions:
REMARK  status: ('A' for Active; 'I' for Inactive)
REMARK    1  A    between atoms: C_2  and  C_16
REMARK    2  A    between atoms: N_3  and  C_4
REMARK    3  A    between atoms: C_4  and  C_5
REMARK    4  A    between atoms: C_5  and  C_6
REMARK    5  A    between atoms: C_9  and  C_10
REMARK                            x       y       z     vdW  Elec       q    Type
REMARK                         _______ _______ _______ _____ _____    ______ ____
ROOT
ATOM      1  C   UNL     1       6.485   5.826  16.203  0.00  0.00    +0.000 C 
ENDROOT
BRANCH   1   2
ATOM      2  C   UNL     1       5.193   5.897  16.957  0.00  0.00    +0.000 A 
ATOM      3  C   UNL     1       4.540   7.066  17.295  0.00  0.00    +0.000 A 
ATOM      4  S   UNL     1       3.086   6.715  18.118  0.00  0.00    +0.000 S 
ATOM      5  C   UNL     1       3.416   5.029  17.984  0.00  0.00    +0.000 A 
ATOM      6  N   UNL     1       4.547   4.738  17.366  0.00  0.00    +0.000 NA
BRANCH   5   7
ATOM      7  C   UNL     1       2.544   3.997  18.504  0.00  0.00    +0.000 A 
ATOM      8  C   UNL     1       1.473   4.185  19.363  0.00  0.00    +0.000 A 
ATOM      9  C   UNL     1       0.795   2.971  19.684  0.00  0.00    +0.000 A 
ATOM     10  C   UNL     1       1.371   1.885  19.068  0.00  0.00    +0.000 A 
ATOM     11  S   UNL     1       2.713   2.330  18.113  0.00  0.00    +0.000 S 
ENDBRANCH   5   7
ENDBRANCH   1   2
BRANCH   1  12
ATOM     12  C   UNL     1       6.960   4.402  15.906  0.00  0.00    +0.000 C 
BRANCH  12  15
ATOM     13  O   UNL     1       7.796   5.311  13.370  0.00  0.00    +0.000 OA
ATOM     14  C   UNL     1       6.933   4.444  13.430  0.00  0.00    +0.000 C 
ATOM     15  N   UNL     1       6.495   3.899  14.619  0.00  0.00    +0.000 N 
ATOM     16  H   UNL     1       5.690   3.287  14.612  0.00  0.00    +0.000 HD
BRANCH  14  17
ATOM     17  C   UNL     1       6.285   3.830  12.200  0.00  0.00    +0.000 C 
ATOM     18  C   UNL     1       6.591   2.343  12.055  0.00  0.00    +0.000 C 
ATOM     19  C   UNL     1       5.529   1.848  11.084  0.00  0.00    +0.000 C 
ATOM     20  C   UNL     1       4.313   2.744  11.301  0.00  0.00    +0.000 C 
ATOM     21  C   UNL     1       4.758   3.847  12.255  0.00  0.00    +0.000 C 
ENDBRANCH  14  17
ENDBRANCH  12  15
ENDBRANCH   1  12
TORSDOF 5
ENDMDL
MODEL 6
REMARK VINA RESULT:      -6.8      5.862      8.363
REMARK  Name = 
REMARK  5 active torsions:
REMARK  status: ('A' for Active; 'I' for Inactive)
REMARK    1  A    between atoms: C_2  and  C_16
REMARK    2  A    between atoms: N_3  and  C_4
REMARK    3  A    between atoms: C_4  and  C_5
REMARK    4  A    between atoms: C_5  and  C_6
REMARK    5  A    between atoms: C_9  and  C_10
REMARK                            x       y       z     vdW  Elec       q    Type
REMARK                         _______ _______ _______ _____ _____    ______ ____
ROOT
ATOM      1  C   UNL     1       2.433   9.090  17.749  0.00  0.00    +0.000 C 
ENDROOT
BRANCH   1   2
ATOM      2  C   UNL     1       2.941   7.691  17.911  0.00  0.00    +0.000 A 
ATOM      3  C   UNL     1       4.089   7.194  17.327  0.00  0.00    +0.000 A 
ATOM      4  S   UNL     1       4.334   5.570  17.789  0.00  0.00    +0.000 S 
ATOM      5  C   UNL     1       2.893   5.620  18.733  0.00  0.00    +0.000 A 
ATOM      6  N   UNL     1       2.258   6.778  18.705  0.00  0.00    +0.000 NA
BRANCH   5   7
ATOM      7  C   UNL     1       2.395   4.496  19.498  0.00  0.00    +0.000 A 
ATOM      8  C   UNL     1       1.709   4.563  20.701  0.00  0.00    +0.000 A 
ATOM      9  C   UNL     1       1.335   3.280  21.202  0.00  0.00    +0.000 A 
ATOM     10  C   UNL     1       1.751   2.266  20.373  0.00  0.00    +0.000 A 
ATOM     11  S   UNL     1       2.582   2.858  19.006  0.00  0.00    +0.000 S 
ENDBRANCH   5   7
ENDBRANCH   1   2
BRANCH   1  12
ATOM     12  C   UNL     1       1.171   9.398  18.557  0.00  0.00    +0.000 C 
BRANCH  12  15
ATOM     13  O   UNL     1      -1.251  10.449  19.550  0.00  0.00    +0.000 OA
ATOM     14  C   UNL     1      -1.050  10.473  18.342  0.00  0.00    +0.000 C 
ATOM     15  N   UNL     1       0.123  10.031  17.766  0.00  0.00    +0.000 N 
ATOM     16  H   UNL     1       0.177   9.952  16.760  0.00  0.00    +0.000 HD
BRANCH  14  17
ATOM     17  C   UNL     1      -2.045  11.044  17.345  0.00  0.00    +0.000 C 
ATOM     18  C   UNL     1      -2.470  10.027  16.291  0.00  0.00    +0.000 C 
ATOM     19  C   UNL     1      -3.747  10.619  15.711  0.00  0.00    +0.000 C 
ATOM     20  C   UNL     1      -4.386  11.424  16.839  0.00  0.00    +0.000 C 
ATOM     21  C   UNL     1      -3.378  11.432  17.984  0.00  0.00    +0.000 C 
ENDBRANCH  14  17
ENDBRANCH  12  15
ENDBRANCH   1  12
TORSDOF 5
ENDMDL
MODEL 7
REMARK VINA RESULT:      -6.8      4.694      6.928
REMARK  Name = 
REMARK  5 active torsions:
REMARK  status: ('A' for Active; 'I' for Inactive)
REMARK    1  A    between atoms: C_2  and  C_16
REMARK    2  A    between atoms: N_3  and  C_4
REMARK    3  A    between atoms: C_4  and  C_5
REMARK    4  A    between atoms: C_5  and  C_6
REMARK    5  A    between atoms: C_9  and  C_10
REMARK                            x       y       z     vdW  Elec       q    Type
REMARK                         _______ _______ _______ _____ _____    ______ ____
ROOT
ATOM      1  C   UNL     1       5.454   7.061  16.575  0.00  0.00    +0.000 C 
ENDROOT
BRANCH   1   2
ATOM      2  C   UNL     1       4.218   6.920  17.410  0.00  0.00    +0.000 A 
ATOM      3  C   UNL     1       3.378   7.959  17.759  0.00  0.00    +0.000 A 
ATOM      4  S   UNL     1       2.068   7.375  18.684  0.00  0.00    +0.000 S 
ATOM      5  C   UNL     1       2.699   5.776  18.572  0.00  0.00    +0.000 A 
ATOM      6  N   UNL     1       3.826   5.677  17.890  0.00  0.00    +0.000 NA
BRANCH   5   7
ATOM      7  C   UNL     1       2.069   4.620  19.174  0.00  0.00    +0.000 A 
ATOM      8  C   UNL     1       1.433   3.590  18.500  0.00  0.00    +0.000 A 
ATOM      9  C   UNL     1       0.923   2.582  19.372  0.00  0.00    +0.000 A 
ATOM     10  C   UNL     1       1.177   2.872  20.692  0.00  0.00    +0.000 A 
ATOM     11  S   UNL     1       2.021   4.343  20.872  0.00  0.00    +0.000 S 
ENDBRANCH   5   7
ENDBRANCH   1   2
BRANCH   1  12
ATOM     12  C   UNL     1       6.408   5.868  16.661  0.00  0.00    +0.000 C 
BRANCH  12  15
ATOM     13  O   UNL     1       7.796   5.505  14.232  0.00  0.00    +0.000 OA
ATOM     14  C   UNL     1       6.843   4.777  14.481  0.00  0.00    +0.000 C 
ATOM     15  N   UNL     1       6.134   4.842  15.662  0.00  0.00    +0.000 N 
ATOM     16  H   UNL     1       5.280   4.310  15.752  0.00  0.00    +0.000 HD
BRANCH  14  17
ATOM     17  C   UNL     1       6.367   3.681  13.541  0.00  0.00    +0.000 C 
ATOM     18  C   UNL     1       4.934   3.895  13.066  0.00  0.00    +0.000 C 
ATOM     19  C   UNL     1       4.821   3.000  11.840  0.00  0.00    +0.000 C 
ATOM     20  C   UNL     1       6.221   2.936  11.238  0.00  0.00    +0.000 C 
ATOM     21  C   UNL     1       7.145   3.640  12.226  0.00  0.00    +0.000 C 
ENDBRANCH  14  17
ENDBRANCH  12  15
ENDBRANCH   1  12
TORSDOF 5
ENDMDL
MODEL 8
REMARK VINA RESULT:      -6.7      0.992      1.131
REMARK  Name = 
REMARK  5 active torsions:
REMARK  status: ('A' for Active; 'I' for Inactive)
REMARK    1  A    between atoms: C_2  and  C_16
REMARK    2  A    between atoms: N_3  and  C_4
REMARK    3  A    between atoms: C_4  and  C_5
REMARK    4  A    between atoms: C_5  and  C_6
REMARK    5  A    between atoms: C_9  and  C_10
REMARK                            x       y       z     vdW  Elec       q    Type
REMARK                         _______ _______ _______ _____ _____    ______ ____
ROOT
ATOM      1  C   UNL     1       7.743   6.699  18.217  0.00  0.00    +0.000 C 
ENDROOT
BRANCH   1   2
ATOM      2  C   UNL     1       6.659   5.908  17.552  0.00  0.00    +0.000 A 
ATOM      3  C   UNL     1       6.688   5.474  16.241  0.00  0.00    +0.000 A 
ATOM      4  S   UNL     1       5.281   4.577  15.883  0.00  0.00    +0.000 S 
ATOM      5  C   UNL     1       4.711   4.826  17.489  0.00  0.00    +0.000 A 
ATOM      6  N   UNL     1       5.517   5.541  18.254  0.00  0.00    +0.000 NA
BRANCH   5   7
ATOM      7  C   UNL     1       3.452   4.311  17.984  0.00  0.00    +0.000 A 
ATOM      8  C   UNL     1       2.785   3.189  17.516  0.00  0.00    +0.000 A 
ATOM      9  C   UNL     1       1.571   2.927  18.219  0.00  0.00    +0.000 A 
ATOM     10  C   UNL     1       1.338   3.860  19.201  0.00  0.00    +0.000 A 
ATOM     11  S   UNL     1       2.571   5.036  19.272  0.00  0.00    +0.000 S 
ENDBRANCH   5   7
ENDBRANCH   1   2
BRANCH   1  12
ATOM     12  C   UNL     1       7.810   8.163  17.778  0.00  0.00    +0.000 C 
BRANCH  12  15
ATOM     13  O   UNL     1       8.234  10.941  17.539  0.00  0.00    +0.000 OA
ATOM     14  C   UNL     1       8.880  10.316  18.371  0.00  0.00    +0.000 C 
ATOM     15  N   UNL     1       8.707   8.967  18.599  0.00  0.00    +0.000 N 
ATOM     16  H   UNL     1       9.359   8.483  19.201  0.00  0.00    +0.000 HD
BRANCH  14  17
ATOM     17  C   UNL     1       9.904  10.966  19.287  0.00  0.00    +0.000 C 
ATOM     18  C   UNL     1      10.305  12.362  18.824  0.00  0.00    +0.000 C 
ATOM     19  C   UNL     1      10.941  12.985  20.059  0.00  0.00    +0.000 C 
ATOM     20  C   UNL     1      10.252  12.337  21.257  0.00  0.00    +0.000 C 
ATOM     21  C   UNL     1       9.369  11.228  20.695  0.00  0.00    +0.000 C 
ENDBRANCH  14  17
ENDBRANCH  12  15
ENDBRANCH   1  12
TORSDOF 5
ENDMDL
MODEL 9
REMARK VINA RESULT:      -6.7      1.140      1.240
REMARK  Name = 
REMARK  5 active torsions:
REMARK  status: ('A' for Active; 'I' for Inactive)
REMARK    1  A    between atoms: C_2  and  C_16
REMARK    2  A    between atoms: N_3  and  C_4
REMARK    3  A    between atoms: C_4  and  C_5
REMARK    4  A    between atoms: C_5  and  C_6
REMARK    5  A    between atoms: C_9  and  C_10
REMARK                            x       y       z     vdW  Elec       q    Type
REMARK                         _______ _______ _______ _____ _____    ______ ____
ROOT
ATOM      1  C   UNL     1       7.600   6.473  17.355  0.00  0.00    +0.000 C 
ENDROOT
BRANCH   1   2
ATOM      2  C   UNL     1       6.356   5.640  17.387  0.00  0.00    +0.000 A 
ATOM      3  C   UNL     1       6.008   4.701  16.436  0.00  0.00    +0.000 A 
ATOM      4  S   UNL     1       4.536   3.948  16.858  0.00  0.00    +0.000 S 
ATOM      5  C   UNL     1       4.442   4.921  18.276  0.00  0.00    +0.000 A 
ATOM      6  N   UNL     1       5.446   5.766  18.430  0.00  0.00    +0.000 NA
BRANCH   5   7
ATOM      7  C   UNL     1       3.359   4.844  19.233  0.00  0.00    +0.000 A 
ATOM      8  C   UNL     1       2.668   5.915  19.777  0.00  0.00    +0.000 A 
ATOM      9  C   UNL     1       1.641   5.515  20.684  0.00  0.00    +0.000 A 
ATOM     10  C   UNL     1       1.578   4.147  20.814  0.00  0.00    +0.000 A 
ATOM     11  S   UNL     1       2.746   3.360  19.852  0.00  0.00    +0.000 S 
ENDBRANCH   5   7
ENDBRANCH   1   2
BRANCH   1  12
ATOM     12  C   UNL     1       7.361   7.968  17.573  0.00  0.00    +0.000 C 
BRANCH  12  15
ATOM     13  O   UNL     1       7.981  10.719  17.622  0.00  0.00    +0.000 OA
ATOM     14  C   UNL     1       8.647   9.953  18.307  0.00  0.00    +0.000 C 
ATOM     15  N   UNL     1       8.389   8.600  18.390  0.00  0.00    +0.000 N 
ATOM     16  H   UNL     1       9.052   8.002  18.863  0.00  0.00    +0.000 HD
BRANCH  14  17
ATOM     17  C   UNL     1       9.798  10.412  19.187  0.00  0.00    +0.000 C 
ATOM     18  C   UNL     1      10.662  11.475  18.518  0.00  0.00    +0.000 C 
ATOM     19  C   UNL     1      11.427  12.102  19.675  0.00  0.00    +0.000 C 
ATOM     20  C   UNL     1      10.520  11.975  20.895  0.00  0.00    +0.000 C 
ATOM     21  C   UNL     1       9.334  11.120  20.460  0.00  0.00    +0.000 C 
ENDBRANCH  14  17
ENDBRANCH  12  15
ENDBRANCH   1  12
TORSDOF 5
ENDMDL
