MODEL 1
REMARK VINA RESULT:      -8.8      0.000      0.000
REMARK  Name = 
REMARK  6 active torsions:
REMARK  status: ('A' for Active; 'I' for Inactive)
REMARK    1  A    between atoms: C_1  and  N_2
REMARK    2  A    between atoms: N_2  and  C_23
REMARK    3  A    between atoms: C_3  and  C_5
REMARK    4  A    between atoms: C_8  and  O_9
REMARK    5  A    between atoms: O_9  and  C_10
REMARK    6  A    between atoms: C_10  and  C_11
REMARK                            x       y       z     vdW  Elec       q    Type
REMARK                         _______ _______ _______ _____ _____    ______ ____
ROOT
ATOM      1  C   UNL     1       1.252   8.699  20.171  0.00  0.00    +0.000 A 
ATOM      2  C   UNL     1       1.439   8.522  21.545  0.00  0.00    +0.000 A 
ATOM      3  C   UNL     1       0.641   9.204  22.483  0.00  0.00    +0.000 A 
ATOM      4  C   UNL     1      -0.304  10.147  22.074  0.00  0.00    +0.000 A 
ATOM      5  C   UNL     1      -0.451  10.379  20.703  0.00  0.00    +0.000 A 
ATOM      6  C   UNL     1       0.319   9.667  19.762  0.00  0.00    +0.000 A 
ENDROOT
BRANCH   1   9
ATOM      7  C   UNL     1       1.999   5.791  20.387  0.00  0.00    +0.000 C 
ATOM      8  N   UNL     1       2.433   6.620  19.255  0.00  0.00    +0.000 N 
ATOM      9  C   UNL     1       2.062   7.984  19.117  0.00  0.00    +0.000 C 
ATOM     10  O   UNL     1       2.373   8.688  18.153  0.00  0.00    +0.000 OA
BRANCH   8  11
ATOM     11  C   UNL     1       3.213   5.904  18.246  0.00  0.00    +0.000 A 
ATOM     12  C   UNL     1       2.947   4.563  17.894  0.00  0.00    +0.000 A 
ATOM     13  C   UNL     1       3.759   3.833  16.991  0.00  0.00    +0.000 A 
ATOM     14  C   UNL     1       4.862   4.470  16.423  0.00  0.00    +0.000 A 
ATOM     15  N   UNL     1       5.825   4.036  15.544  0.00  0.00    +0.000 NA
ATOM     16  C   UNL     1       6.594   5.091  15.388  0.00  0.00    +0.000 A 
ATOM     17  O   UNL     1       6.218   6.199  16.091  0.00  0.00    +0.000 OA
ATOM     18  C   UNL     1       5.101   5.789  16.758  0.00  0.00    +0.000 A 
ATOM     19  C   UNL     1       4.319   6.539  17.637  0.00  0.00    +0.000 A 
ENDBRANCH   8  11
ENDBRANCH   1   9
BRANCH   4  20
ATOM     20  O   UNL     1      -1.119  10.879  22.909  0.00  0.00    +0.000 OA
BRANCH  20  21
ATOM     21  C   UNL     1      -1.394  12.230  22.498  0.00  0.00    +0.000 C 
BRANCH  21  22
ATOM     22  C   UNL     1      -2.874  12.497  22.255  0.00  0.00    +0.000 A 
ATOM     23  C   UNL     1      -3.312  12.830  20.979  0.00  0.00    +0.000 A 
ATOM     24  C   UNL     1      -4.635  13.219  20.804  0.00  0.00    +0.000 A 
ATOM     25  C   UNL     1      -5.524  13.185  21.882  0.00  0.00    +0.000 A 
ATOM     26  C   UNL     1      -6.888  13.480  21.706  0.00  0.00    +0.000 A 
ATOM     27  C   UNL     1      -7.785  13.312  22.757  0.00  0.00    +0.000 A 
ATOM     28  C   UNL     1      -7.311  12.908  23.998  0.00  0.00    +0.000 A 
ATOM     29  C   UNL     1      -5.939  12.686  24.185  0.00  0.00    +0.000 A 
ATOM     30  C   UNL     1      -5.023  12.794  23.139  0.00  0.00    +0.000 A 
ATOM     31  N   UNL     1      -3.715  12.499  23.329  0.00  0.00    +0.000 NA
ENDBRANCH  21  22
ENDBRANCH  20  21
ENDBRANCH   4  20
TORSDOF 5
ENDMDL
MODEL 2
REMARK VINA RESULT:      -8.6      2.554     12.096
REMARK  Name = 
REMARK  6 active torsions:
REMARK  status: ('A' for Active; 'I' for Inactive)
REMARK    1  A    between atoms: C_1  and  N_2
REMARK    2  A    between atoms: N_2  and  C_23
REMARK    3  A    between atoms: C_3  and  C_5
REMARK    4  A    between atoms: C_8  and  O_9
REMARK    5  A    between atoms: O_9  and  C_10
REMARK    6  A    between atoms: C_10  and  C_11
REMARK                            x       y       z     vdW  Elec       q    Type
REMARK                         _______ _______ _______ _____ _____    ______ ____
ROOT
ATOM      1  C   UNL     1      -0.609  11.034  21.989  0.00  0.00    +0.000 A 
ATOM      2  C   UNL     1      -0.282  11.159  20.636  0.00  0.00    +0.000 A 
ATOM      3  C   UNL     1       0.465  10.169  19.971  0.00  0.00    +0.000 A 
ATOM      4  C   UNL     1       0.980   9.070  20.662  0.00  0.00    +0.000 A 
ATOM      5  C   UNL     1       0.714   8.971  22.031  0.00  0.00    +0.000 A 
ATOM      6  C   UNL     1      -0.068   9.941  22.688  0.00  0.00    +0.000 A 
ENDROOT
BRANCH   1   9
ATOM      7  C   UNL     1       0.059  13.969  22.008  0.00  0.00    +0.000 C 
ATOM      8  N   UNL     1      -1.069  13.427  22.776  0.00  0.00    +0.000 N 
ATOM      9  C   UNL     1      -1.422  12.051  22.752  0.00  0.00    +0.000 C 
ATOM     10  O   UNL     1      -2.393  11.578  23.350  0.00  0.00    +0.000 OA
BRANCH   8  11
ATOM     11  C   UNL     1      -1.844  14.431  23.503  0.00  0.00    +0.000 A 
ATOM     12  C   UNL     1      -1.416  14.971  24.735  0.00  0.00    +0.000 A 
ATOM     13  C   UNL     1      -2.207  15.869  25.494  0.00  0.00    +0.000 A 
ATOM     14  C   UNL     1      -3.457  16.238  24.998  0.00  0.00    +0.000 A 
ATOM     15  N   UNL     1      -4.440  17.060  25.494  0.00  0.00    +0.000 NA
ATOM     16  C   UNL     1      -5.379  17.004  24.574  0.00  0.00    +0.000 A 
ATOM     17  O   UNL     1      -5.098  16.213  23.499  0.00  0.00    +0.000 OA
ATOM     18  C   UNL     1      -3.857  15.720  23.780  0.00  0.00    +0.000 A 
ATOM     19  C   UNL     1      -3.102  14.840  23.005  0.00  0.00    +0.000 A 
ENDBRANCH   8  11
ENDBRANCH   1   9
BRANCH   4  20
ATOM     20  O   UNL     1       1.736   8.060  20.112  0.00  0.00    +0.000 OA
BRANCH  20  21
ATOM     21  C   UNL     1       2.098   8.222  18.729  0.00  0.00    +0.000 C 
BRANCH  21  22
ATOM     22  C   UNL     1       2.775   6.995  18.133  0.00  0.00    +0.000 A 
ATOM     23  C   UNL     1       2.315   5.727  18.466  0.00  0.00    +0.000 A 
ATOM     24  C   UNL     1       3.036   4.618  18.037  0.00  0.00    +0.000 A 
ATOM     25  C   UNL     1       4.151   4.783  17.210  0.00  0.00    +0.000 A 
ATOM     26  C   UNL     1       4.835   3.672  16.685  0.00  0.00    +0.000 A 
ATOM     27  C   UNL     1       5.858   3.849  15.759  0.00  0.00    +0.000 A 
ATOM     28  C   UNL     1       6.236   5.137  15.402  0.00  0.00    +0.000 A 
ATOM     29  C   UNL     1       5.598   6.242  15.984  0.00  0.00    +0.000 A 
ATOM     30  C   UNL     1       4.536   6.096  16.875  0.00  0.00    +0.000 A 
ATOM     31  N   UNL     1       3.886   7.180  17.363  0.00  0.00    +0.000 NA
ENDBRANCH  21  22
ENDBRANCH  20  21
ENDBRANCH   4  20
TORSDOF 5
ENDMDL
MODEL 3
REMARK VINA RESULT:      -8.6      2.626     11.920
REMARK  Name = 
REMARK  6 active torsions:
REMARK  status: ('A' for Active; 'I' for Inactive)
REMARK    1  A    between atoms: C_1  and  N_2
REMARK    2  A    between atoms: N_2  and  C_23
REMARK    3  A    between atoms: C_3  and  C_5
REMARK    4  A    between atoms: C_8  and  O_9
REMARK    5  A    between atoms: O_9  and  C_10
REMARK    6  A    between atoms: C_10  and  C_11
REMARK                            x       y       z     vdW  Elec       q    Type
REMARK                         _______ _______ _______ _____ _____    ______ ____
ROOT
ATOM      1  C   UNL     1       1.843   7.755  19.886  0.00  0.00    +0.000 A 
ATOM      2  C   UNL     1       2.526   7.876  18.672  0.00  0.00    +0.000 A 
ATOM      3  C   UNL     1       2.956   6.740  17.961  0.00  0.00    +0.000 A 
ATOM      4  C   UNL     1       2.794   5.457  18.488  0.00  0.00    +0.000 A 
ATOM      5  C   UNL     1       2.172   5.331  19.734  0.00  0.00    +0.000 A 
ATOM      6  C   UNL     1       1.705   6.466  20.427  0.00  0.00    +0.000 A 
ENDROOT
BRANCH   1   9
ATOM      7  C   UNL     1       0.259  10.000  18.656  0.00  0.00    +0.000 C 
ATOM      8  N   UNL     1       0.625   9.999  20.078  0.00  0.00    +0.000 N 
ATOM      9  C   UNL     1       1.341   8.933  20.685  0.00  0.00    +0.000 C 
ATOM     10  O   UNL     1       1.618   8.886  21.886  0.00  0.00    +0.000 OA
BRANCH   8  11
ATOM     11  C   UNL     1       0.123  11.148  20.832  0.00  0.00    +0.000 A 
ATOM     12  C   UNL     1       0.789  12.392  20.848  0.00  0.00    +0.000 A 
ATOM     13  C   UNL     1       0.365  13.478  21.653  0.00  0.00    +0.000 A 
ATOM     14  C   UNL     1      -0.761  13.309  22.459  0.00  0.00    +0.000 A 
ATOM     15  N   UNL     1      -1.398  14.149  23.341  0.00  0.00    +0.000 NA
ATOM     16  C   UNL     1      -2.394  13.419  23.793  0.00  0.00    +0.000 A 
ATOM     17  O   UNL     1      -2.476  12.158  23.278  0.00  0.00    +0.000 OA
ATOM     18  C   UNL     1      -1.418  12.093  22.420  0.00  0.00    +0.000 A 
ATOM     19  C   UNL     1      -1.032  11.007  21.634  0.00  0.00    +0.000 A 
ENDBRANCH   8  11
ENDBRANCH   1   9
BRANCH   4  20
ATOM     20  O   UNL     1       3.196   4.287  17.884  0.00  0.00    +0.000 OA
BRANCH  20  21
ATOM     21  C   UNL     1       4.568   3.907  18.090  0.00  0.00    +0.000 C 
BRANCH  21  22
ATOM     22  C   UNL     1       5.462   4.199  16.893  0.00  0.00    +0.000 A 
ATOM     23  C   UNL     1       6.594   4.989  17.057  0.00  0.00    +0.000 A 
ATOM     24  C   UNL     1       7.314   5.372  15.930  0.00  0.00    +0.000 A 
ATOM     25  C   UNL     1       6.951   4.890  14.669  0.00  0.00    +0.000 A 
ATOM     26  C   UNL     1       7.723   5.185  13.531  0.00  0.00    +0.000 A 
ATOM     27  C   UNL     1       7.427   4.592  12.308  0.00  0.00    +0.000 A 
ATOM     28  C   UNL     1       6.326   3.751  12.208  0.00  0.00    +0.000 A 
ATOM     29  C   UNL     1       5.518   3.519  13.331  0.00  0.00    +0.000 A 
ATOM     30  C   UNL     1       5.818   4.057  14.581  0.00  0.00    +0.000 A 
ATOM     31  N   UNL     1       5.065   3.754  15.666  0.00  0.00    +0.000 NA
ENDBRANCH  21  22
ENDBRANCH  20  21
ENDBRANCH   4  20
TORSDOF 5
ENDMDL
MODEL 4
REMARK VINA RESULT:      -8.6      1.536      2.211
REMARK  Name = 
REMARK  6 active torsions:
REMARK  status: ('A' for Active; 'I' for Inactive)
REMARK    1  A    between atoms: C_1  and  N_2
REMARK    2  A    between atoms: N_2  and  C_23
REMARK    3  A    between atoms: C_3  and  C_5
REMARK    4  A    between atoms: C_8  and  O_9
REMARK    5  A    between atoms: O_9  and  C_10
REMARK    6  A    between atoms: C_10  and  C_11
REMARK                            x       y       z     vdW  Elec       q    Type
REMARK                         _______ _______ _______ _____ _____    ______ ____
ROOT
ATOM      1  C   UNL     1       1.382   9.072  19.326  0.00  0.00    +0.000 A 
ATOM      2  C   UNL     1       0.993   8.671  20.607  0.00  0.00    +0.000 A 
ATOM      3  C   UNL     1       0.224   9.512  21.433  0.00  0.00    +0.000 A 
ATOM      4  C   UNL     1      -0.102  10.810  21.035  0.00  0.00    +0.000 A 
ATOM      5  C   UNL     1       0.340  11.244  19.781  0.00  0.00    +0.000 A 
ATOM      6  C   UNL     1       1.076  10.387  18.937  0.00  0.00    +0.000 A 
ENDROOT
BRANCH   1   9
ATOM      7  C   UNL     1       2.371   6.330  20.079  0.00  0.00    +0.000 C 
ATOM      8  N   UNL     1       2.677   6.932  18.775  0.00  0.00    +0.000 N 
ATOM      9  C   UNL     1       2.190   8.209  18.387  0.00  0.00    +0.000 C 
ATOM     10  O   UNL     1       2.392   8.717  17.281  0.00  0.00    +0.000 OA
BRANCH   8  11
ATOM     11  C   UNL     1       3.457   6.077  17.882  0.00  0.00    +0.000 A 
ATOM     12  C   UNL     1       3.127   4.724  17.650  0.00  0.00    +0.000 A 
ATOM     13  C   UNL     1       3.934   3.863  16.866  0.00  0.00    +0.000 A 
ATOM     14  C   UNL     1       5.098   4.377  16.296  0.00  0.00    +0.000 A 
ATOM     15  N   UNL     1       6.072   3.804  15.514  0.00  0.00    +0.000 NA
ATOM     16  C   UNL     1       6.910   4.794  15.296  0.00  0.00    +0.000 A 
ATOM     17  O   UNL     1       6.569   5.986  15.866  0.00  0.00    +0.000 OA
ATOM     18  C   UNL     1       5.400   5.708  16.512  0.00  0.00    +0.000 A 
ATOM     19  C   UNL     1       4.627   6.585  17.272  0.00  0.00    +0.000 A 
ENDBRANCH   8  11
ENDBRANCH   1   9
BRANCH   4  20
ATOM     20  O   UNL     1      -0.830  11.716  21.773  0.00  0.00    +0.000 OA
BRANCH  20  21
ATOM     21  C   UNL     1      -1.359  12.841  21.049  0.00  0.00    +0.000 C 
BRANCH  21  22
ATOM     22  C   UNL     1      -2.861  12.756  20.812  0.00  0.00    +0.000 A 
ATOM     23  C   UNL     1      -3.737  12.999  21.863  0.00  0.00    +0.000 A 
ATOM     24  C   UNL     1      -5.095  12.769  21.670  0.00  0.00    +0.000 A 
ATOM     25  C   UNL     1      -5.570  12.388  20.412  0.00  0.00    +0.000 A 
ATOM     26  C   UNL     1      -6.948  12.246  20.170  0.00  0.00    +0.000 A 
ATOM     27  C   UNL     1      -7.415  11.998  18.882  0.00  0.00    +0.000 A 
ATOM     28  C   UNL     1      -6.502  11.833  17.849  0.00  0.00    +0.000 A 
ATOM     29  C   UNL     1      -5.126  11.904  18.111  0.00  0.00    +0.000 A 
ATOM     30  C   UNL     1      -4.630  12.203  19.379  0.00  0.00    +0.000 A 
ATOM     31  N   UNL     1      -3.299  12.342  19.588  0.00  0.00    +0.000 NA
ENDBRANCH  21  22
ENDBRANCH  20  21
ENDBRANCH   4  20
TORSDOF 5
ENDMDL
MODEL 5
REMARK VINA RESULT:      -8.5      0.947      1.558
REMARK  Name = 
REMARK  6 active torsions:
REMARK  status: ('A' for Active; 'I' for Inactive)
REMARK    1  A    between atoms: C_1  and  N_2
REMARK    2  A    between atoms: N_2  and  C_23
REMARK    3  A    between atoms: C_3  and  C_5
REMARK    4  A    between atoms: C_8  and  O_9
REMARK    5  A    between atoms: O_9  and  C_10
REMARK    6  A    between atoms: C_10  and  C_11
REMARK                            x       y       z     vdW  Elec       q    Type
REMARK                         _______ _______ _______ _____ _____    ______ ____
ROOT
ATOM      1  C   UNL     1       1.189   9.417  19.228  0.00  0.00    +0.000 A 
ATOM      2  C   UNL     1       0.946   9.174  20.584  0.00  0.00    +0.000 A 
ATOM      3  C   UNL     1       0.158  10.050  21.352  0.00  0.00    +0.000 A 
ATOM      4  C   UNL     1      -0.336  11.238  20.809  0.00  0.00    +0.000 A 
ATOM      5  C   UNL     1      -0.042  11.523  19.472  0.00  0.00    +0.000 A 
ATOM      6  C   UNL     1       0.713  10.626  18.691  0.00  0.00    +0.000 A 
ENDROOT
BRANCH   1   9
ATOM      7  C   UNL     1       2.199   6.736  20.152  0.00  0.00    +0.000 C 
ATOM      8  N   UNL     1       2.506   7.260  18.815  0.00  0.00    +0.000 N 
ATOM      9  C   UNL     1       2.009   8.507  18.348  0.00  0.00    +0.000 C 
ATOM     10  O   UNL     1       2.212   8.947  17.213  0.00  0.00    +0.000 OA
BRANCH   8  11
ATOM     11  C   UNL     1       3.298   6.360  17.979  0.00  0.00    +0.000 A 
ATOM     12  C   UNL     1       2.964   5.000  17.804  0.00  0.00    +0.000 A 
ATOM     13  C   UNL     1       3.781   4.098  17.077  0.00  0.00    +0.000 A 
ATOM     14  C   UNL     1       4.960   4.578  16.508  0.00  0.00    +0.000 A 
ATOM     15  N   UNL     1       5.946   3.963  15.774  0.00  0.00    +0.000 NA
ATOM     16  C   UNL     1       6.796   4.936  15.529  0.00  0.00    +0.000 A 
ATOM     17  O   UNL     1       6.452   6.155  16.036  0.00  0.00    +0.000 OA
ATOM     18  C   UNL     1       5.267   5.916  16.669  0.00  0.00    +0.000 A 
ATOM     19  C   UNL     1       4.484   6.832  17.371  0.00  0.00    +0.000 A 
ENDBRANCH   8  11
ENDBRANCH   1   9
BRANCH   4  20
ATOM     20  O   UNL     1      -1.098  12.169  21.479  0.00  0.00    +0.000 OA
BRANCH  20  21
ATOM     21  C   UNL     1      -1.685  11.733  22.718  0.00  0.00    +0.000 C 
BRANCH  21  22
ATOM     22  C   UNL     1      -3.108  12.236  22.922  0.00  0.00    +0.000 A 
ATOM     23  C   UNL     1      -3.584  12.446  24.211  0.00  0.00    +0.000 A 
ATOM     24  C   UNL     1      -4.928  12.757  24.387  0.00  0.00    +0.000 A 
ATOM     25  C   UNL     1      -5.755  12.944  23.276  0.00  0.00    +0.000 A 
ATOM     26  C   UNL     1      -7.092  13.356  23.429  0.00  0.00    +0.000 A 
ATOM     27  C   UNL     1      -7.864  13.667  22.314  0.00  0.00    +0.000 A 
ATOM     28  C   UNL     1      -7.320  13.510  21.045  0.00  0.00    +0.000 A 
ATOM     29  C   UNL     1      -6.011  13.031  20.898  0.00  0.00    +0.000 A 
ATOM     30  C   UNL     1      -5.196  12.760  21.997  0.00  0.00    +0.000 A 
ATOM     31  N   UNL     1      -3.909  12.372  21.826  0.00  0.00    +0.000 NA
ENDBRANCH  21  22
ENDBRANCH  20  21
ENDBRANCH   4  20
TORSDOF 5
ENDMDL
MODEL 6
REMARK VINA RESULT:      -8.5      0.665      1.570
REMARK  Name = 
REMARK  6 active torsions:
REMARK  status: ('A' for Active; 'I' for Inactive)
REMARK    1  A    between atoms: C_1  and  N_2
REMARK    2  A    between atoms: N_2  and  C_23
REMARK    3  A    between atoms: C_3  and  C_5
REMARK    4  A    between atoms: C_8  and  O_9
REMARK    5  A    between atoms: O_9  and  C_10
REMARK    6  A    between atoms: C_10  and  C_11
REMARK                            x       y       z     vdW  Elec       q    Type
REMARK                         _______ _______ _______ _____ _____    ______ ____
ROOT
ATOM      1  C   UNL     1       1.248   8.977  19.809  0.00  0.00    +0.000 A 
ATOM      2  C   UNL     1       0.522  10.129  19.490  0.00  0.00    +0.000 A 
ATOM      3  C   UNL     1      -0.202  10.830  20.472  0.00  0.00    +0.000 A 
ATOM      4  C   UNL     1      -0.292  10.350  21.780  0.00  0.00    +0.000 A 
ATOM      5  C   UNL     1       0.377   9.162  22.093  0.00  0.00    +0.000 A 
ATOM      6  C   UNL     1       1.135   8.482  21.119  0.00  0.00    +0.000 A 
ENDROOT
BRANCH   1   9
ATOM      7  C   UNL     1       2.118   6.134  20.283  0.00  0.00    +0.000 C 
ATOM      8  N   UNL     1       2.489   6.864  19.064  0.00  0.00    +0.000 N 
ATOM      9  C   UNL     1       2.058   8.193  18.805  0.00  0.00    +0.000 C 
ATOM     10  O   UNL     1       2.316   8.811  17.769  0.00  0.00    +0.000 OA
BRANCH   8  11
ATOM     11  C   UNL     1       3.270   6.083  18.106  0.00  0.00    +0.000 A 
ATOM     12  C   UNL     1       2.938   4.755  17.762  0.00  0.00    +0.000 A 
ATOM     13  C   UNL     1       3.746   3.960  16.912  0.00  0.00    +0.000 A 
ATOM     14  C   UNL     1       4.913   4.516  16.389  0.00  0.00    +0.000 A 
ATOM     15  N   UNL     1       5.888   4.008  15.566  0.00  0.00    +0.000 NA
ATOM     16  C   UNL     1       6.729   5.010  15.433  0.00  0.00    +0.000 A 
ATOM     17  O   UNL     1       6.389   6.152  16.098  0.00  0.00    +0.000 OA
ATOM     18  C   UNL     1       5.217   5.825  16.715  0.00  0.00    +0.000 A 
ATOM     19  C   UNL     1       4.442   6.638  17.543  0.00  0.00    +0.000 A 
ENDBRANCH   8  11
ENDBRANCH   1   9
BRANCH   4  20
ATOM     20  O   UNL     1      -0.988  10.947  22.807  0.00  0.00    +0.000 OA
BRANCH  20  21
ATOM     21  C   UNL     1      -1.395  12.309  22.586  0.00  0.00    +0.000 C 
BRANCH  21  22
ATOM     22  C   UNL     1      -2.879  12.544  22.835  0.00  0.00    +0.000 A 
ATOM     23  C   UNL     1      -3.354  12.618  24.139  0.00  0.00    +0.000 A 
ATOM     24  C   UNL     1      -4.727  12.679  24.350  0.00  0.00    +0.000 A 
ATOM     25  C   UNL     1      -5.601  12.758  23.262  0.00  0.00    +0.000 A 
ATOM     26  C   UNL     1      -6.985  12.921  23.453  0.00  0.00    +0.000 A 
ATOM     27  C   UNL     1      -7.826  13.132  22.365  0.00  0.00    +0.000 A 
ATOM     28  C   UNL     1      -7.293  13.121  21.082  0.00  0.00    +0.000 A 
ATOM     29  C   UNL     1      -5.924  12.887  20.894  0.00  0.00    +0.000 A 
ATOM     30  C   UNL     1      -5.048  12.724  21.967  0.00  0.00    +0.000 A 
ATOM     31  N   UNL     1      -3.717  12.576  21.759  0.00  0.00    +0.000 NA
ENDBRANCH  21  22
ENDBRANCH  20  21
ENDBRANCH   4  20
TORSDOF 5
ENDMDL
MODEL 7
REMARK VINA RESULT:      -8.5      2.570     11.977
REMARK  Name = 
REMARK  6 active torsions:
REMARK  status: ('A' for Active; 'I' for Inactive)
REMARK    1  A    between atoms: C_1  and  N_2
REMARK    2  A    between atoms: N_2  and  C_23
REMARK    3  A    between atoms: C_3  and  C_5
REMARK    4  A    between atoms: C_8  and  O_9
REMARK    5  A    between atoms: O_9  and  C_10
REMARK    6  A    between atoms: C_10  and  C_11
REMARK                            x       y       z     vdW  Elec       q    Type
REMARK                         _______ _______ _______ _____ _____    ______ ____
ROOT
ATOM      1  C   UNL     1      -0.709  11.110  22.306  0.00  0.00    +0.000 A 
ATOM      2  C   UNL     1      -0.187   9.998  22.976  0.00  0.00    +0.000 A 
ATOM      3  C   UNL     1       0.663   9.086  22.322  0.00  0.00    +0.000 A 
ATOM      4  C   UNL     1       0.943   9.212  20.960  0.00  0.00    +0.000 A 
ATOM      5  C   UNL     1       0.371  10.283  20.267  0.00  0.00    +0.000 A 
ATOM      6  C   UNL     1      -0.447  11.220  20.930  0.00  0.00    +0.000 A 
ENDROOT
BRANCH   1   9
ATOM      7  C   UNL     1      -0.102  14.059  22.288  0.00  0.00    +0.000 C 
ATOM      8  N   UNL     1      -1.286  13.516  22.967  0.00  0.00    +0.000 N 
ATOM      9  C   UNL     1      -1.609  12.132  22.956  0.00  0.00    +0.000 C 
ATOM     10  O   UNL     1      -2.622  11.657  23.477  0.00  0.00    +0.000 OA
BRANCH   8  11
ATOM     11  C   UNL     1      -2.144  14.525  23.585  0.00  0.00    +0.000 A 
ATOM     12  C   UNL     1      -1.902  15.037  24.878  0.00  0.00    +0.000 A 
ATOM     13  C   UNL     1      -2.783  15.939  25.522  0.00  0.00    +0.000 A 
ATOM     14  C   UNL     1      -3.935  16.342  24.847  0.00  0.00    +0.000 A 
ATOM     15  N   UNL     1      -4.967  17.178  25.202  0.00  0.00    +0.000 NA
ATOM     16  C   UNL     1      -5.754  17.155  24.148  0.00  0.00    +0.000 A 
ATOM     17  O   UNL     1      -5.325  16.375  23.114  0.00  0.00    +0.000 OA
ATOM     18  C   UNL     1      -4.153  15.851  23.573  0.00  0.00    +0.000 A 
ATOM     19  C   UNL     1      -3.304  14.968  22.907  0.00  0.00    +0.000 A 
ENDBRANCH   8  11
ENDBRANCH   1   9
BRANCH   4  20
ATOM     20  O   UNL     1       1.743   8.366  20.225  0.00  0.00    +0.000 OA
BRANCH  20  21
ATOM     21  C   UNL     1       1.634   6.965  20.535  0.00  0.00    +0.000 C 
BRANCH  21  22
ATOM     22  C   UNL     1       2.330   6.067  19.521  0.00  0.00    +0.000 A 
ATOM     23  C   UNL     1       2.151   4.690  19.586  0.00  0.00    +0.000 A 
ATOM     24  C   UNL     1       2.910   3.875  18.753  0.00  0.00    +0.000 A 
ATOM     25  C   UNL     1       3.768   4.444  17.808  0.00  0.00    +0.000 A 
ATOM     26  C   UNL     1       4.470   3.641  16.890  0.00  0.00    +0.000 A 
ATOM     27  C   UNL     1       5.215   4.226  15.870  0.00  0.00    +0.000 A 
ATOM     28  C   UNL     1       5.307   5.610  15.803  0.00  0.00    +0.000 A 
ATOM     29  C   UNL     1       4.663   6.403  16.764  0.00  0.00    +0.000 A 
ATOM     30  C   UNL     1       3.867   5.849  17.766  0.00  0.00    +0.000 A 
ATOM     31  N   UNL     1       3.194   6.641  18.635  0.00  0.00    +0.000 NA
ENDBRANCH  21  22
ENDBRANCH  20  21
ENDBRANCH   4  20
TORSDOF 5
ENDMDL
MODEL 8
REMARK VINA RESULT:      -8.4      1.653      2.553
REMARK  Name = 
REMARK  6 active torsions:
REMARK  status: ('A' for Active; 'I' for Inactive)
REMARK    1  A    between atoms: C_1  and  N_2
REMARK    2  A    between atoms: N_2  and  C_23
REMARK    3  A    between atoms: C_3  and  C_5
REMARK    4  A    between atoms: C_8  and  O_9
REMARK    5  A    between atoms: O_9  and  C_10
REMARK    6  A    between atoms: C_10  and  C_11
REMARK                            x       y       z     vdW  Elec       q    Type
REMARK                         _______ _______ _______ _____ _____    ______ ____
ROOT
ATOM      1  C   UNL     1       1.126   8.707  20.431  0.00  0.00    +0.000 A 
ATOM      2  C   UNL     1       0.792   9.901  19.785  0.00  0.00    +0.000 A 
ATOM      3  C   UNL     1       0.034  10.894  20.434  0.00  0.00    +0.000 A 
ATOM      4  C   UNL     1      -0.485  10.683  21.712  0.00  0.00    +0.000 A 
ATOM      5  C   UNL     1      -0.212   9.464  22.340  0.00  0.00    +0.000 A 
ATOM      6  C   UNL     1       0.581   8.486  21.707  0.00  0.00    +0.000 A 
ENDROOT
BRANCH   1   9
ATOM      7  C   UNL     1       2.187   8.892  17.620  0.00  0.00    +0.000 C 
ATOM      8  N   UNL     1       2.412   7.706  18.456  0.00  0.00    +0.000 N 
ATOM      9  C   UNL     1       1.950   7.614  19.796  0.00  0.00    +0.000 C 
ATOM     10  O   UNL     1       2.167   6.649  20.535  0.00  0.00    +0.000 OA
BRANCH   8  11
ATOM     11  C   UNL     1       3.216   6.662  17.821  0.00  0.00    +0.000 A 
ATOM     12  C   UNL     1       2.857   5.298  17.865  0.00  0.00    +0.000 A 
ATOM     13  C   UNL     1       3.681   4.272  17.339  0.00  0.00    +0.000 A 
ATOM     14  C   UNL     1       4.894   4.628  16.750  0.00  0.00    +0.000 A 
ATOM     15  N   UNL     1       5.894   3.880  16.176  0.00  0.00    +0.000 NA
ATOM     16  C   UNL     1       6.776   4.784  15.806  0.00  0.00    +0.000 A 
ATOM     17  O   UNL     1       6.440   6.077  16.083  0.00  0.00    +0.000 OA
ATOM     18  C   UNL     1       5.226   5.969  16.694  0.00  0.00    +0.000 A 
ATOM     19  C   UNL     1       4.437   7.004  17.195  0.00  0.00    +0.000 A 
ENDBRANCH   8  11
ENDBRANCH   1   9
BRANCH   4  20
ATOM     20  O   UNL     1      -1.251  11.579  22.424  0.00  0.00    +0.000 OA
BRANCH  20  21
ATOM     21  C   UNL     1      -1.662  12.762  21.716  0.00  0.00    +0.000 C 
BRANCH  21  22
ATOM     22  C   UNL     1      -3.088  12.685  21.188  0.00  0.00    +0.000 A 
ATOM     23  C   UNL     1      -4.155  12.852  22.063  0.00  0.00    +0.000 A 
ATOM     24  C   UNL     1      -5.446  12.628  21.597  0.00  0.00    +0.000 A 
ATOM     25  C   UNL     1      -5.663  12.332  20.248  0.00  0.00    +0.000 A 
ATOM     26  C   UNL     1      -6.966  12.200  19.735  0.00  0.00    +0.000 A 
ATOM     27  C   UNL     1      -7.172  12.038  18.368  0.00  0.00    +0.000 A 
ATOM     28  C   UNL     1      -6.074  11.948  17.522  0.00  0.00    +0.000 A 
ATOM     29  C   UNL     1      -4.776  12.009  18.049  0.00  0.00    +0.000 A 
ATOM     30  C   UNL     1      -4.539  12.222  19.407  0.00  0.00    +0.000 A 
ATOM     31  N   UNL     1      -3.275  12.354  19.877  0.00  0.00    +0.000 NA
ENDBRANCH  21  22
ENDBRANCH  20  21
ENDBRANCH   4  20
TORSDOF 5
ENDMDL
MODEL 9
REMARK VINA RESULT:      -8.4      1.312      1.762
REMARK  Name = 
REMARK  6 active torsions:
REMARK  status: ('A' for Active; 'I' for Inactive)
REMARK    1  A    between atoms: C_1  and  N_2
REMARK    2  A    between atoms: N_2  and  C_23
REMARK    3  A    between atoms: C_3  and  C_5
REMARK    4  A    between atoms: C_8  and  O_9
REMARK    5  A    between atoms: O_9  and  C_10
REMARK    6  A    between atoms: C_10  and  C_11
REMARK                            x       y       z     vdW  Elec       q    Type
REMARK                         _______ _______ _______ _____ _____    ______ ____
ROOT
ATOM      1  C   UNL     1       0.970   8.685  20.889  0.00  0.00    +0.000 A 
ATOM      2  C   UNL     1       0.184   9.664  20.272  0.00  0.00    +0.000 A 
ATOM      3  C   UNL     1      -0.482  10.646  21.028  0.00  0.00    +0.000 A 
ATOM      4  C   UNL     1      -0.454  10.624  22.423  0.00  0.00    +0.000 A 
ATOM      5  C   UNL     1       0.275   9.609  23.050  0.00  0.00    +0.000 A 
ATOM      6  C   UNL     1       0.977   8.649  22.293  0.00  0.00    +0.000 A 
ENDROOT
BRANCH   1   9
ATOM      7  C   UNL     1       2.093   9.128  18.130  0.00  0.00    +0.000 C 
ATOM      8  N   UNL     1       2.215   7.836  18.818  0.00  0.00    +0.000 N 
ATOM      9  C   UNL     1       1.724   7.618  20.133  0.00  0.00    +0.000 C 
ATOM     10  O   UNL     1       1.856   6.558  20.751  0.00  0.00    +0.000 OA
BRANCH   8  11
ATOM     11  C   UNL     1       2.952   6.820  18.068  0.00  0.00    +0.000 A 
ATOM     12  C   UNL     1       2.548   5.468  18.028  0.00  0.00    +0.000 A 
ATOM     13  C   UNL     1       3.311   4.460  17.387  0.00  0.00    +0.000 A 
ATOM     14  C   UNL     1       4.506   4.822  16.767  0.00  0.00    +0.000 A 
ATOM     15  N   UNL     1       5.452   4.090  16.089  0.00  0.00    +0.000 NA
ATOM     16  C   UNL     1       6.346   4.991  15.745  0.00  0.00    +0.000 A 
ATOM     17  O   UNL     1       6.069   6.269  16.134  0.00  0.00    +0.000 OA
ATOM     18  C   UNL     1       4.881   6.152  16.794  0.00  0.00    +0.000 A 
ATOM     19  C   UNL     1       4.153   7.170  17.409  0.00  0.00    +0.000 A 
ENDBRANCH   8  11
ENDBRANCH   1   9
BRANCH   4  20
ATOM     20  O   UNL     1      -1.085  11.524  23.252  0.00  0.00    +0.000 OA
BRANCH  20  21
ATOM     21  C   UNL     1      -1.145  12.882  22.783  0.00  0.00    +0.000 C 
BRANCH  21  22
ATOM     22  C   UNL     1      -2.524  13.512  22.930  0.00  0.00    +0.000 A 
ATOM     23  C   UNL     1      -2.701  14.857  22.631  0.00  0.00    +0.000 A 
ATOM     24  C   UNL     1      -3.925  15.453  22.914  0.00  0.00    +0.000 A 
ATOM     25  C   UNL     1      -4.982  14.682  23.405  0.00  0.00    +0.000 A 
ATOM     26  C   UNL     1      -6.257  15.242  23.605  0.00  0.00    +0.000 A 
ATOM     27  C   UNL     1      -7.332  14.435  23.966  0.00  0.00    +0.000 A 
ATOM     28  C   UNL     1      -7.121  13.080  24.185  0.00  0.00    +0.000 A 
ATOM     29  C   UNL     1      -5.833  12.541  24.054  0.00  0.00    +0.000 A 
ATOM     30  C   UNL     1      -4.747  13.313  23.643  0.00  0.00    +0.000 A 
ATOM     31  N   UNL     1      -3.530  12.750  23.449  0.00  0.00    +0.000 NA
ENDBRANCH  21  22
ENDBRANCH  20  21
ENDBRANCH   4  20
TORSDOF 5
ENDMDL
