MODEL 1
REMARK VINA RESULT:      -8.0      0.000      0.000
REMARK  Name = 
REMARK  8 active torsions:
REMARK  status: ('A' for Active; 'I' for Inactive)
REMARK    1  A    between atoms: C_2  and  O_3
REMARK    2  A    between atoms: C_2  and  C_4
REMARK    3  A    between atoms: C_4  and  O_5
REMARK    4  A    between atoms: O_5  and  C_6
REMARK    5  A    between atoms: C_6  and  C_7
REMARK    6  A    between atoms: N_9  and  C_10
REMARK    7  A    between atoms: C_13  and  C_14
REMARK    8  A    between atoms: C_18  and  N_19
REMARK                            x       y       z     vdW  Elec       q    Type
REMARK                         _______ _______ _______ _____ _____    ______ ____
ROOT
ATOM      1  C   UNL     1       0.316   9.726  20.327  0.00  0.00    +0.000 A 
ATOM      2  C   UNL     1       0.798   8.609  21.019  0.00  0.00    +0.000 A 
ATOM      3  C   UNL     1       1.698   7.713  20.417  0.00  0.00    +0.000 A 
ATOM      4  C   UNL     1       2.125   7.923  19.106  0.00  0.00    +0.000 A 
ATOM      5  C   UNL     1       1.633   9.045  18.418  0.00  0.00    +0.000 A 
ATOM      6  C   UNL     1       0.734   9.933  19.013  0.00  0.00    +0.000 A 
ENDROOT
BRANCH   4   7
ATOM      7  C   UNL     1       2.967   6.986  18.363  0.00  0.00    +0.000 A 
ATOM      8  N   UNL     1       3.862   7.383  17.477  0.00  0.00    +0.000 NA
ATOM      9  C   UNL     1       4.402   6.251  16.947  0.00  0.00    +0.000 A 
ATOM     10  C   UNL     1       5.360   6.149  15.935  0.00  0.00    +0.000 A 
ATOM     11  C   UNL     1       5.749   4.866  15.537  0.00  0.00    +0.000 A 
ATOM     12  C   UNL     1       5.206   3.716  16.138  0.00  0.00    +0.000 A 
ATOM     13  C   UNL     1       4.253   3.819  17.167  0.00  0.00    +0.000 A 
ATOM     14  C   UNL     1       3.872   5.113  17.541  0.00  0.00    +0.000 A 
ATOM     15  N   UNL     1       2.981   5.610  18.469  0.00  0.00    +0.000 N 
ATOM     16  H   UNL     1       2.436   5.064  19.121  0.00  0.00    +0.000 HD
BRANCH  11  17
ATOM     17  N   UNL     1       6.745   4.738  14.467  0.00  0.00    +0.000 N 
ATOM     18  O   UNL     1       7.779   5.416  14.555  0.00  0.00    +0.000 OA
ATOM     19  O   UNL     1       6.495   3.958  13.538  0.00  0.00    +0.000 OA
ENDBRANCH  11  17
ENDBRANCH   4   7
BRANCH   1  22
ATOM     20  C   UNL     1      -0.698  11.008  22.212  0.00  0.00    +0.000 C 
ATOM     21  O   UNL     1       0.011  10.600  23.128  0.00  0.00    +0.000 OA
ATOM     22  N   UNL     1      -0.591  10.657  20.876  0.00  0.00    +0.000 N 
ATOM     23  H   UNL     1      -1.164  11.173  20.220  0.00  0.00    +0.000 HD
BRANCH  20  24
ATOM     24  C   UNL     1      -1.769  12.068  22.474  0.00  0.00    +0.000 C 
BRANCH  24  25
ATOM     25  O   UNL     1      -2.618  11.736  23.576  0.00  0.00    +0.000 OA
BRANCH  25  26
ATOM     26  C   UNL     1      -3.441  12.849  23.938  0.00  0.00    +0.000 C 
BRANCH  26  28
ATOM     27  O   UNL     1      -5.374  12.483  22.504  0.00  0.00    +0.000 OA
ATOM     28  C   UNL     1      -4.898  12.546  23.626  0.00  0.00    +0.000 C 
BRANCH  28  29
ATOM     29  O   UNL     1      -5.613  12.298  24.753  0.00  0.00    +0.000 OA
ATOM     30  H   UNL     1      -6.288  12.994  24.894  0.00  0.00    +0.000 HD
ENDBRANCH  28  29
ENDBRANCH  26  28
ENDBRANCH  25  26
ENDBRANCH  24  25
ENDBRANCH  20  24
ENDBRANCH   1  22
TORSDOF 8
ENDMDL
MODEL 2
REMARK VINA RESULT:      -7.8      1.598      1.936
REMARK  Name = 
REMARK  8 active torsions:
REMARK  status: ('A' for Active; 'I' for Inactive)
REMARK    1  A    between atoms: C_2  and  O_3
REMARK    2  A    between atoms: C_2  and  C_4
REMARK    3  A    between atoms: C_4  and  O_5
REMARK    4  A    between atoms: O_5  and  C_6
REMARK    5  A    between atoms: C_6  and  C_7
REMARK    6  A    between atoms: N_9  and  C_10
REMARK    7  A    between atoms: C_13  and  C_14
REMARK    8  A    between atoms: C_18  and  N_19
REMARK                            x       y       z     vdW  Elec       q    Type
REMARK                         _______ _______ _______ _____ _____    ______ ____
ROOT
ATOM      1  C   UNL     1       0.139   9.938  20.131  0.00  0.00    +0.000 A 
ATOM      2  C   UNL     1       0.668   8.892  20.896  0.00  0.00    +0.000 A 
ATOM      3  C   UNL     1       1.594   7.987  20.351  0.00  0.00    +0.000 A 
ATOM      4  C   UNL     1       2.003   8.116  19.023  0.00  0.00    +0.000 A 
ATOM      5  C   UNL     1       1.464   9.166  18.261  0.00  0.00    +0.000 A 
ATOM      6  C   UNL     1       0.538  10.063  18.800  0.00  0.00    +0.000 A 
ENDROOT
BRANCH   4   7
ATOM      7  C   UNL     1       2.871   7.157  18.341  0.00  0.00    +0.000 A 
ATOM      8  N   UNL     1       3.768   7.525  17.445  0.00  0.00    +0.000 NA
ATOM      9  C   UNL     1       4.337   6.376  16.982  0.00  0.00    +0.000 A 
ATOM     10  C   UNL     1       5.309   6.240  15.987  0.00  0.00    +0.000 A 
ATOM     11  C   UNL     1       5.727   4.946  15.664  0.00  0.00    +0.000 A 
ATOM     12  C   UNL     1       5.199   3.819  16.319  0.00  0.00    +0.000 A 
ATOM     13  C   UNL     1       4.233   3.958  17.331  0.00  0.00    +0.000 A 
ATOM     14  C   UNL     1       3.822   5.261  17.630  0.00  0.00    +0.000 A 
ATOM     15  N   UNL     1       2.911   5.790  18.521  0.00  0.00    +0.000 N 
ATOM     16  H   UNL     1       2.369   5.268  19.195  0.00  0.00    +0.000 HD
BRANCH  11  17
ATOM     17  N   UNL     1       6.738   4.780  14.613  0.00  0.00    +0.000 N 
ATOM     18  O   UNL     1       7.763   5.475  14.681  0.00  0.00    +0.000 OA
ATOM     19  O   UNL     1       6.509   3.954  13.717  0.00  0.00    +0.000 OA
ENDBRANCH  11  17
ENDBRANCH   4   7
BRANCH   1  22
ATOM     20  C   UNL     1      -0.881  11.345  21.921  0.00  0.00    +0.000 C 
ATOM     21  O   UNL     1      -0.125  11.059  22.846  0.00  0.00    +0.000 OA
ATOM     22  N   UNL     1      -0.796  10.873  20.620  0.00  0.00    +0.000 N 
ATOM     23  H   UNL     1      -1.413  11.298  19.940  0.00  0.00    +0.000 HD
BRANCH  20  24
ATOM     24  C   UNL     1      -1.995  12.374  22.119  0.00  0.00    +0.000 C 
BRANCH  24  25
ATOM     25  O   UNL     1      -2.266  13.130  20.936  0.00  0.00    +0.000 OA
BRANCH  25  26
ATOM     26  C   UNL     1      -3.658  13.081  20.610  0.00  0.00    +0.000 C 
BRANCH  26  28
ATOM     27  O   UNL     1      -4.939  11.857  18.941  0.00  0.00    +0.000 OA
ATOM     28  C   UNL     1      -3.868  12.300  19.322  0.00  0.00    +0.000 C 
BRANCH  28  29
ATOM     29  O   UNL     1      -2.719  12.191  18.607  0.00  0.00    +0.000 OA
ATOM     30  H   UNL     1      -2.120  11.532  19.016  0.00  0.00    +0.000 HD
ENDBRANCH  28  29
ENDBRANCH  26  28
ENDBRANCH  25  26
ENDBRANCH  24  25
ENDBRANCH  20  24
ENDBRANCH   1  22
TORSDOF 8
ENDMDL
MODEL 3
REMARK VINA RESULT:      -7.7      2.094     10.943
REMARK  Name = 
REMARK  8 active torsions:
REMARK  status: ('A' for Active; 'I' for Inactive)
REMARK    1  A    between atoms: C_2  and  O_3
REMARK    2  A    between atoms: C_2  and  C_4
REMARK    3  A    between atoms: C_4  and  O_5
REMARK    4  A    between atoms: O_5  and  C_6
REMARK    5  A    between atoms: C_6  and  C_7
REMARK    6  A    between atoms: N_9  and  C_10
REMARK    7  A    between atoms: C_13  and  C_14
REMARK    8  A    between atoms: C_18  and  N_19
REMARK                            x       y       z     vdW  Elec       q    Type
REMARK                         _______ _______ _______ _____ _____    ______ ____
ROOT
ATOM      1  C   UNL     1       2.619   7.005  18.809  0.00  0.00    +0.000 A 
ATOM      2  C   UNL     1       2.270   8.101  18.012  0.00  0.00    +0.000 A 
ATOM      3  C   UNL     1       1.513   9.166  18.531  0.00  0.00    +0.000 A 
ATOM      4  C   UNL     1       1.092   9.144  19.861  0.00  0.00    +0.000 A 
ATOM      5  C   UNL     1       1.443   8.038  20.652  0.00  0.00    +0.000 A 
ATOM      6  C   UNL     1       2.190   6.976  20.136  0.00  0.00    +0.000 A 
ENDROOT
BRANCH   4   7
ATOM      7  C   UNL     1       0.209  10.150  20.452  0.00  0.00    +0.000 A 
ATOM      8  N   UNL     1      -0.230  10.066  21.694  0.00  0.00    +0.000 NA
ATOM      9  C   UNL     1      -1.067  11.126  21.874  0.00  0.00    +0.000 A 
ATOM     10  C   UNL     1      -1.815  11.447  23.010  0.00  0.00    +0.000 A 
ATOM     11  C   UNL     1      -2.627  12.583  22.952  0.00  0.00    +0.000 A 
ATOM     12  C   UNL     1      -2.687  13.384  21.798  0.00  0.00    +0.000 A 
ATOM     13  C   UNL     1      -1.922  13.070  20.660  0.00  0.00    +0.000 A 
ATOM     14  C   UNL     1      -1.125  11.923  20.738  0.00  0.00    +0.000 A 
ATOM     15  N   UNL     1      -0.271  11.296  19.853  0.00  0.00    +0.000 N 
ATOM     16  H   UNL     1      -0.032  11.622  18.927  0.00  0.00    +0.000 HD
BRANCH  11  17
ATOM     17  N   UNL     1      -3.430  12.929  24.131  0.00  0.00    +0.000 N 
ATOM     18  O   UNL     1      -3.236  14.035  24.658  0.00  0.00    +0.000 OA
ATOM     19  O   UNL     1      -4.256  12.097  24.531  0.00  0.00    +0.000 OA
ENDBRANCH  11  17
ENDBRANCH   4   7
BRANCH   1  22
ATOM     20  C   UNL     1       2.863   4.713  17.854  0.00  0.00    +0.000 C 
ATOM     21  O   UNL     1       1.675   4.439  17.701  0.00  0.00    +0.000 OA
ATOM     22  N   UNL     1       3.371   5.905  18.345  0.00  0.00    +0.000 N 
ATOM     23  H   UNL     1       4.374   6.030  18.293  0.00  0.00    +0.000 HD
BRANCH  20  24
ATOM     24  C   UNL     1       3.949   3.731  17.409  0.00  0.00    +0.000 C 
BRANCH  24  25
ATOM     25  O   UNL     1       4.524   4.079  16.146  0.00  0.00    +0.000 OA
BRANCH  25  26
ATOM     26  C   UNL     1       5.926   4.330  16.279  0.00  0.00    +0.000 C 
BRANCH  26  28
ATOM     27  O   UNL     1       5.391   6.689  16.011  0.00  0.00    +0.000 OA
ATOM     28  C   UNL     1       6.223   5.797  16.011  0.00  0.00    +0.000 C 
BRANCH  28  29
ATOM     29  O   UNL     1       7.549   6.015  15.820  0.00  0.00    +0.000 OA
ATOM     30  H   UNL     1       7.913   5.377  15.171  0.00  0.00    +0.000 HD
ENDBRANCH  28  29
ENDBRANCH  26  28
ENDBRANCH  25  26
ENDBRANCH  24  25
ENDBRANCH  20  24
ENDBRANCH   1  22
TORSDOF 8
ENDMDL
MODEL 4
REMARK VINA RESULT:      -7.7      1.818      2.715
REMARK  Name = 
REMARK  8 active torsions:
REMARK  status: ('A' for Active; 'I' for Inactive)
REMARK    1  A    between atoms: C_2  and  O_3
REMARK    2  A    between atoms: C_2  and  C_4
REMARK    3  A    between atoms: C_4  and  O_5
REMARK    4  A    between atoms: O_5  and  C_6
REMARK    5  A    between atoms: C_6  and  C_7
REMARK    6  A    between atoms: N_9  and  C_10
REMARK    7  A    between atoms: C_13  and  C_14
REMARK    8  A    between atoms: C_18  and  N_19
REMARK                            x       y       z     vdW  Elec       q    Type
REMARK                         _______ _______ _______ _____ _____    ______ ____
ROOT
ATOM      1  C   UNL     1      -0.833  10.627  22.342  0.00  0.00    +0.000 A 
ATOM      2  C   UNL     1      -0.129  11.138  21.245  0.00  0.00    +0.000 A 
ATOM      3  C   UNL     1       0.691  10.312  20.457  0.00  0.00    +0.000 A 
ATOM      4  C   UNL     1       0.820   8.957  20.762  0.00  0.00    +0.000 A 
ATOM      5  C   UNL     1       0.114   8.453  21.867  0.00  0.00    +0.000 A 
ATOM      6  C   UNL     1      -0.697   9.274  22.654  0.00  0.00    +0.000 A 
ENDROOT
BRANCH   4   7
ATOM      7  C   UNL     1       1.736   8.050  20.070  0.00  0.00    +0.000 A 
ATOM      8  N   UNL     1       2.266   8.336  18.895  0.00  0.00    +0.000 NA
ATOM      9  C   UNL     1       3.003   7.249  18.535  0.00  0.00    +0.000 A 
ATOM     10  C   UNL     1       3.718   7.051  17.351  0.00  0.00    +0.000 A 
ATOM     11  C   UNL     1       4.388   5.833  17.194  0.00  0.00    +0.000 A 
ATOM     12  C   UNL     1       4.354   4.844  18.193  0.00  0.00    +0.000 A 
ATOM     13  C   UNL     1       3.648   5.051  19.392  0.00  0.00    +0.000 A 
ATOM     14  C   UNL     1       2.977   6.272  19.521  0.00  0.00    +0.000 A 
ATOM     15  N   UNL     1       2.187   6.823  20.510  0.00  0.00    +0.000 N 
ATOM     16  H   UNL     1       1.979   6.404  21.405  0.00  0.00    +0.000 HD
BRANCH  11  17
ATOM     17  N   UNL     1       5.134   5.600  15.952  0.00  0.00    +0.000 N 
ATOM     18  O   UNL     1       5.584   4.462  15.753  0.00  0.00    +0.000 OA
ATOM     19  O   UNL     1       5.271   6.555  15.175  0.00  0.00    +0.000 OA
ENDBRANCH  11  17
ENDBRANCH   4   7
BRANCH   1  22
ATOM     20  C   UNL     1      -2.692  12.238  22.754  0.00  0.00    +0.000 C 
ATOM     21  O   UNL     1      -3.073  12.395  21.597  0.00  0.00    +0.000 OA
ATOM     22  N   UNL     1      -1.666  11.406  23.172  0.00  0.00    +0.000 N 
ATOM     23  H   UNL     1      -1.553  11.286  24.170  0.00  0.00    +0.000 HD
BRANCH  20  24
ATOM     24  C   UNL     1      -3.422  12.925  23.910  0.00  0.00    +0.000 C 
BRANCH  24  25
ATOM     25  O   UNL     1      -4.701  12.346  24.179  0.00  0.00    +0.000 OA
BRANCH  25  26
ATOM     26  C   UNL     1      -5.744  13.111  23.569  0.00  0.00    +0.000 C 
BRANCH  26  28
ATOM     27  O   UNL     1      -7.916  13.408  24.627  0.00  0.00    +0.000 OA
ATOM     28  C   UNL     1      -7.098  12.670  24.102  0.00  0.00    +0.000 C 
BRANCH  28  29
ATOM     29  O   UNL     1      -7.321  11.349  23.880  0.00  0.00    +0.000 OA
ATOM     30  H   UNL     1      -6.622  10.974  23.304  0.00  0.00    +0.000 HD
ENDBRANCH  28  29
ENDBRANCH  26  28
ENDBRANCH  25  26
ENDBRANCH  24  25
ENDBRANCH  20  24
ENDBRANCH   1  22
TORSDOF 8
ENDMDL
MODEL 5
REMARK VINA RESULT:      -7.7      2.208     11.000
REMARK  Name = 
REMARK  8 active torsions:
REMARK  status: ('A' for Active; 'I' for Inactive)
REMARK    1  A    between atoms: C_2  and  O_3
REMARK    2  A    between atoms: C_2  and  C_4
REMARK    3  A    between atoms: C_4  and  O_5
REMARK    4  A    between atoms: O_5  and  C_6
REMARK    5  A    between atoms: C_6  and  C_7
REMARK    6  A    between atoms: N_9  and  C_10
REMARK    7  A    between atoms: C_13  and  C_14
REMARK    8  A    between atoms: C_18  and  N_19
REMARK                            x       y       z     vdW  Elec       q    Type
REMARK                         _______ _______ _______ _____ _____    ______ ____
ROOT
ATOM      1  C   UNL     1       2.726   7.223  18.549  0.00  0.00    +0.000 A 
ATOM      2  C   UNL     1       2.319   8.311  17.768  0.00  0.00    +0.000 A 
ATOM      3  C   UNL     1       1.509   9.328  18.303  0.00  0.00    +0.000 A 
ATOM      4  C   UNL     1       1.091   9.265  19.633  0.00  0.00    +0.000 A 
ATOM      5  C   UNL     1       1.502   8.168  20.408  0.00  0.00    +0.000 A 
ATOM      6  C   UNL     1       2.302   7.154  19.876  0.00  0.00    +0.000 A 
ENDROOT
BRANCH   4   7
ATOM      7  C   UNL     1       0.158  10.214  20.239  0.00  0.00    +0.000 A 
ATOM      8  N   UNL     1      -0.164  10.174  21.519  0.00  0.00    +0.000 NA
ATOM      9  C   UNL     1      -1.092  11.154  21.709  0.00  0.00    +0.000 A 
ATOM     10  C   UNL     1      -1.771  11.475  22.887  0.00  0.00    +0.000 A 
ATOM     11  C   UNL     1      -2.703  12.516  22.834  0.00  0.00    +0.000 A 
ATOM     12  C   UNL     1      -2.945  13.223  21.643  0.00  0.00    +0.000 A 
ATOM     13  C   UNL     1      -2.249  12.910  20.461  0.00  0.00    +0.000 A 
ATOM     14  C   UNL     1      -1.330  11.858  20.536  0.00  0.00    +0.000 A 
ATOM     15  N   UNL     1      -0.491  11.261  19.617  0.00  0.00    +0.000 N 
ATOM     16  H   UNL     1      -0.367  11.543  18.656  0.00  0.00    +0.000 HD
BRANCH  11  17
ATOM     17  N   UNL     1      -3.437  12.861  24.057  0.00  0.00    +0.000 N 
ATOM     18  O   UNL     1      -4.228  12.022  24.513  0.00  0.00    +0.000 OA
ATOM     19  O   UNL     1      -3.222  13.971  24.564  0.00  0.00    +0.000 OA
ENDBRANCH  11  17
ENDBRANCH   4   7
BRANCH   1  22
ATOM     20  C   UNL     1       3.098   4.917  17.674  0.00  0.00    +0.000 C 
ATOM     21  O   UNL     1       1.931   4.534  17.635  0.00  0.00    +0.000 OA
ATOM     22  N   UNL     1       3.534   6.172  18.068  0.00  0.00    +0.000 N 
ATOM     23  H   UNL     1       4.514   6.380  17.925  0.00  0.00    +0.000 HD
BRANCH  20  24
ATOM     24  C   UNL     1       4.227   4.012  17.178  0.00  0.00    +0.000 C 
BRANCH  24  25
ATOM     25  O   UNL     1       4.938   4.571  16.070  0.00  0.00    +0.000 OA
BRANCH  25  26
ATOM     26  C   UNL     1       6.333   4.267  16.154  0.00  0.00    +0.000 C 
BRANCH  26  28
ATOM     27  O   UNL     1       6.754   6.205  17.565  0.00  0.00    +0.000 OA
ATOM     28  C   UNL     1       6.967   5.032  17.305  0.00  0.00    +0.000 C 
BRANCH  28  29
ATOM     29  O   UNL     1       7.773   4.237  18.054  0.00  0.00    +0.000 OA
ATOM     30  H   UNL     1       7.752   4.513  18.994  0.00  0.00    +0.000 HD
ENDBRANCH  28  29
ENDBRANCH  26  28
ENDBRANCH  25  26
ENDBRANCH  24  25
ENDBRANCH  20  24
ENDBRANCH   1  22
TORSDOF 8
ENDMDL
MODEL 6
REMARK VINA RESULT:      -7.7      0.845      1.034
REMARK  Name = 
REMARK  8 active torsions:
REMARK  status: ('A' for Active; 'I' for Inactive)
REMARK    1  A    between atoms: C_2  and  O_3
REMARK    2  A    between atoms: C_2  and  C_4
REMARK    3  A    between atoms: C_4  and  O_5
REMARK    4  A    between atoms: O_5  and  C_6
REMARK    5  A    between atoms: C_6  and  C_7
REMARK    6  A    between atoms: N_9  and  C_10
REMARK    7  A    between atoms: C_13  and  C_14
REMARK    8  A    between atoms: C_18  and  N_19
REMARK                            x       y       z     vdW  Elec       q    Type
REMARK                         _______ _______ _______ _____ _____    ______ ____
ROOT
ATOM      1  C   UNL     1       0.288  10.025  20.529  0.00  0.00    +0.000 A 
ATOM      2  C   UNL     1       0.730   8.885  21.209  0.00  0.00    +0.000 A 
ATOM      3  C   UNL     1       1.585   7.955  20.592  0.00  0.00    +0.000 A 
ATOM      4  C   UNL     1       2.008   8.156  19.278  0.00  0.00    +0.000 A 
ATOM      5  C   UNL     1       1.556   9.301  18.602  0.00  0.00    +0.000 A 
ATOM      6  C   UNL     1       0.701  10.222  19.212  0.00  0.00    +0.000 A 
ENDROOT
BRANCH   4   7
ATOM      7  C   UNL     1       2.802   7.189  18.521  0.00  0.00    +0.000 A 
ATOM      8  N   UNL     1       3.794   7.550  17.729  0.00  0.00    +0.000 NA
ATOM      9  C   UNL     1       4.254   6.407  17.148  0.00  0.00    +0.000 A 
ATOM     10  C   UNL     1       5.268   6.275  16.196  0.00  0.00    +0.000 A 
ATOM     11  C   UNL     1       5.552   4.989  15.725  0.00  0.00    +0.000 A 
ATOM     12  C   UNL     1       4.852   3.864  16.197  0.00  0.00    +0.000 A 
ATOM     13  C   UNL     1       3.843   3.996  17.168  0.00  0.00    +0.000 A 
ATOM     14  C   UNL     1       3.568   5.293  17.615  0.00  0.00    +0.000 A 
ATOM     15  N   UNL     1       2.668   5.816  18.520  0.00  0.00    +0.000 N 
ATOM     16  H   UNL     1       2.024   5.286  19.090  0.00  0.00    +0.000 HD
BRANCH  11  17
ATOM     17  N   UNL     1       6.605   4.831  14.716  0.00  0.00    +0.000 N 
ATOM     18  O   UNL     1       6.417   4.007  13.808  0.00  0.00    +0.000 OA
ATOM     19  O   UNL     1       7.621   5.531  14.828  0.00  0.00    +0.000 OA
ENDBRANCH  11  17
ENDBRANCH   4   7
BRANCH   1  22
ATOM     20  C   UNL     1      -0.217  12.261  21.515  0.00  0.00    +0.000 C 
ATOM     21  O   UNL     1       0.897  12.770  21.422  0.00  0.00    +0.000 OA
ATOM     22  N   UNL     1      -0.573  10.990  21.093  0.00  0.00    +0.000 N 
ATOM     23  H   UNL     1      -1.558  10.759  21.120  0.00  0.00    +0.000 HD
BRANCH  20  24
ATOM     24  C   UNL     1      -1.396  13.070  22.059  0.00  0.00    +0.000 C 
BRANCH  24  25
ATOM     25  O   UNL     1      -2.611  12.317  22.100  0.00  0.00    +0.000 OA
BRANCH  25  26
ATOM     26  C   UNL     1      -3.054  12.139  23.448  0.00  0.00    +0.000 C 
BRANCH  26  28
ATOM     27  O   UNL     1      -5.325  12.626  22.722  0.00  0.00    +0.000 OA
ATOM     28  C   UNL     1      -4.480  12.642  23.602  0.00  0.00    +0.000 C 
BRANCH  28  29
ATOM     29  O   UNL     1      -4.729  13.070  24.866  0.00  0.00    +0.000 OA
ATOM     30  H   UNL     1      -4.553  12.356  25.513  0.00  0.00    +0.000 HD
ENDBRANCH  28  29
ENDBRANCH  26  28
ENDBRANCH  25  26
ENDBRANCH  24  25
ENDBRANCH  20  24
ENDBRANCH   1  22
TORSDOF 8
ENDMDL
MODEL 7
REMARK VINA RESULT:      -7.6      1.365      1.785
REMARK  Name = 
REMARK  8 active torsions:
REMARK  status: ('A' for Active; 'I' for Inactive)
REMARK    1  A    between atoms: C_2  and  O_3
REMARK    2  A    between atoms: C_2  and  C_4
REMARK    3  A    between atoms: C_4  and  O_5
REMARK    4  A    between atoms: O_5  and  C_6
REMARK    5  A    between atoms: C_6  and  C_7
REMARK    6  A    between atoms: N_9  and  C_10
REMARK    7  A    between atoms: C_13  and  C_14
REMARK    8  A    between atoms: C_18  and  N_19
REMARK                            x       y       z     vdW  Elec       q    Type
REMARK                         _______ _______ _______ _____ _____    ______ ____
ROOT
ATOM      1  C   UNL     1       0.289   9.807  20.263  0.00  0.00    +0.000 A 
ATOM      2  C   UNL     1       0.830   8.741  20.990  0.00  0.00    +0.000 A 
ATOM      3  C   UNL     1       1.731   7.839  20.397  0.00  0.00    +0.000 A 
ATOM      4  C   UNL     1       2.099   7.992  19.060  0.00  0.00    +0.000 A 
ATOM      5  C   UNL     1       1.548   9.063  18.337  0.00  0.00    +0.000 A 
ATOM      6  C   UNL     1       0.649   9.957  18.924  0.00  0.00    +0.000 A 
ENDROOT
BRANCH   4   7
ATOM      7  C   UNL     1       2.937   7.040  18.332  0.00  0.00    +0.000 A 
ATOM      8  N   UNL     1       3.851   7.422  17.458  0.00  0.00    +0.000 NA
ATOM      9  C   UNL     1       4.381   6.280  16.938  0.00  0.00    +0.000 A 
ATOM     10  C   UNL     1       5.352   6.161  15.940  0.00  0.00    +0.000 A 
ATOM     11  C   UNL     1       5.726   4.871  15.551  0.00  0.00    +0.000 A 
ATOM     12  C   UNL     1       5.156   3.731  16.145  0.00  0.00    +0.000 A 
ATOM     13  C   UNL     1       4.191   3.851  17.161  0.00  0.00    +0.000 A 
ATOM     14  C   UNL     1       3.824   5.151  17.526  0.00  0.00    +0.000 A 
ATOM     15  N   UNL     1       2.928   5.665  18.441  0.00  0.00    +0.000 N 
ATOM     16  H   UNL     1       2.365   5.129  19.085  0.00  0.00    +0.000 HD
BRANCH  11  17
ATOM     17  N   UNL     1       6.736   4.725  14.496  0.00  0.00    +0.000 N 
ATOM     18  O   UNL     1       6.509   3.912  13.587  0.00  0.00    +0.000 OA
ATOM     19  O   UNL     1       7.756   5.423  14.574  0.00  0.00    +0.000 OA
ENDBRANCH  11  17
ENDBRANCH   4   7
BRANCH   1  22
ATOM     20  C   UNL     1      -0.297  11.925  21.444  0.00  0.00    +0.000 C 
ATOM     21  O   UNL     1       0.834  12.375  21.609  0.00  0.00    +0.000 OA
ATOM     22  N   UNL     1      -0.621  10.741  20.800  0.00  0.00    +0.000 N 
ATOM     23  H   UNL     1      -1.603  10.567  20.631  0.00  0.00    +0.000 HD
BRANCH  20  24
ATOM     24  C   UNL     1      -1.522  12.726  21.888  0.00  0.00    +0.000 C 
BRANCH  24  25
ATOM     25  O   UNL     1      -1.712  12.706  23.306  0.00  0.00    +0.000 OA
BRANCH  25  26
ATOM     26  C   UNL     1      -2.648  13.710  23.708  0.00  0.00    +0.000 C 
BRANCH  26  28
ATOM     27  O   UNL     1      -0.752  14.993  24.534  0.00  0.00    +0.000 OA
ATOM     28  C   UNL     1      -1.952  14.769  24.547  0.00  0.00    +0.000 C 
BRANCH  28  29
ATOM     29  O   UNL     1      -2.836  15.486  25.287  0.00  0.00    +0.000 OA
ATOM     30  H   UNL     1      -2.377  15.947  26.020  0.00  0.00    +0.000 HD
ENDBRANCH  28  29
ENDBRANCH  26  28
ENDBRANCH  25  26
ENDBRANCH  24  25
ENDBRANCH  20  24
ENDBRANCH   1  22
TORSDOF 8
ENDMDL
MODEL 8
REMARK VINA RESULT:      -7.6      0.936      1.458
REMARK  Name = 
REMARK  8 active torsions:
REMARK  status: ('A' for Active; 'I' for Inactive)
REMARK    1  A    between atoms: C_2  and  O_3
REMARK    2  A    between atoms: C_2  and  C_4
REMARK    3  A    between atoms: C_4  and  O_5
REMARK    4  A    between atoms: O_5  and  C_6
REMARK    5  A    between atoms: C_6  and  C_7
REMARK    6  A    between atoms: N_9  and  C_10
REMARK    7  A    between atoms: C_13  and  C_14
REMARK    8  A    between atoms: C_18  and  N_19
REMARK                            x       y       z     vdW  Elec       q    Type
REMARK                         _______ _______ _______ _____ _____    ______ ____
ROOT
ATOM      1  C   UNL     1       0.581   9.152  20.477  0.00  0.00    +0.000 A 
ATOM      2  C   UNL     1       0.959   9.592  19.204  0.00  0.00    +0.000 A 
ATOM      3  C   UNL     1       1.789   8.812  18.381  0.00  0.00    +0.000 A 
ATOM      4  C   UNL     1       2.257   7.576  18.827  0.00  0.00    +0.000 A 
ATOM      5  C   UNL     1       1.876   7.144  20.108  0.00  0.00    +0.000 A 
ATOM      6  C   UNL     1       1.055   7.921  20.929  0.00  0.00    +0.000 A 
ENDROOT
BRANCH   4   7
ATOM      7  C   UNL     1       3.213   6.751  18.088  0.00  0.00    +0.000 A 
ATOM      8  N   UNL     1       3.945   7.227  17.098  0.00  0.00    +0.000 NA
ATOM      9  C   UNL     1       4.660   6.175  16.612  0.00  0.00    +0.000 A 
ATOM     10  C   UNL     1       5.545   6.164  15.531  0.00  0.00    +0.000 A 
ATOM     11  C   UNL     1       6.151   4.947  15.202  0.00  0.00    +0.000 A 
ATOM     12  C   UNL     1       5.892   3.777  15.937  0.00  0.00    +0.000 A 
ATOM     13  C   UNL     1       5.014   3.792  17.036  0.00  0.00    +0.000 A 
ATOM     14  C   UNL     1       4.411   5.017  17.338  0.00  0.00    +0.000 A 
ATOM     15  N   UNL     1       3.508   5.420  18.301  0.00  0.00    +0.000 N 
ATOM     16  H   UNL     1       3.130   4.844  19.039  0.00  0.00    +0.000 HD
BRANCH  11  17
ATOM     17  N   UNL     1       7.073   4.912  14.061  0.00  0.00    +0.000 N 
ATOM     18  O   UNL     1       8.080   5.635  14.108  0.00  0.00    +0.000 OA
ATOM     19  O   UNL     1       6.793   4.160  13.117  0.00  0.00    +0.000 OA
ENDBRANCH  11  17
ENDBRANCH   4   7
BRANCH   1  22
ATOM     20  C   UNL     1      -0.053  10.064  22.711  0.00  0.00    +0.000 C 
ATOM     21  O   UNL     1       0.894   9.641  23.369  0.00  0.00    +0.000 OA
ATOM     22  N   UNL     1      -0.245   9.891  21.349  0.00  0.00    +0.000 N 
ATOM     23  H   UNL     1      -1.006  10.407  20.926  0.00  0.00    +0.000 HD
BRANCH  20  24
ATOM     24  C   UNL     1      -1.120  10.945  23.365  0.00  0.00    +0.000 C 
BRANCH  24  25
ATOM     25  O   UNL     1      -0.931  12.336  23.093  0.00  0.00    +0.000 OA
BRANCH  25  26
ATOM     26  C   UNL     1      -2.073  12.885  22.430  0.00  0.00    +0.000 C 
BRANCH  26  28
ATOM     27  O   UNL     1      -4.242  12.300  23.367  0.00  0.00    +0.000 OA
ATOM     28  C   UNL     1      -3.239  12.995  23.399  0.00  0.00    +0.000 C 
BRANCH  28  29
ATOM     29  O   UNL     1      -3.014  13.936  24.352  0.00  0.00    +0.000 OA
ATOM     30  H   UNL     1      -3.482  13.705  25.181  0.00  0.00    +0.000 HD
ENDBRANCH  28  29
ENDBRANCH  26  28
ENDBRANCH  25  26
ENDBRANCH  24  25
ENDBRANCH  20  24
ENDBRANCH   1  22
TORSDOF 8
ENDMDL
MODEL 9
REMARK VINA RESULT:      -7.5      2.760     10.865
REMARK  Name = 
REMARK  8 active torsions:
REMARK  status: ('A' for Active; 'I' for Inactive)
REMARK    1  A    between atoms: C_2  and  O_3
REMARK    2  A    between atoms: C_2  and  C_4
REMARK    3  A    between atoms: C_4  and  O_5
REMARK    4  A    between atoms: O_5  and  C_6
REMARK    5  A    between atoms: C_6  and  C_7
REMARK    6  A    between atoms: N_9  and  C_10
REMARK    7  A    between atoms: C_13  and  C_14
REMARK    8  A    between atoms: C_18  and  N_19
REMARK                            x       y       z     vdW  Elec       q    Type
REMARK                         _______ _______ _______ _____ _____    ______ ____
ROOT
ATOM      1  C   UNL     1       2.642   6.845  18.751  0.00  0.00    +0.000 A 
ATOM      2  C   UNL     1       2.252   6.684  20.086  0.00  0.00    +0.000 A 
ATOM      3  C   UNL     1       1.547   7.692  20.765  0.00  0.00    +0.000 A 
ATOM      4  C   UNL     1       1.225   8.883  20.114  0.00  0.00    +0.000 A 
ATOM      5  C   UNL     1       1.624   9.038  18.776  0.00  0.00    +0.000 A 
ATOM      6  C   UNL     1       2.330   8.039  18.102  0.00  0.00    +0.000 A 
ENDROOT
BRANCH   4   7
ATOM      7  C   UNL     1       0.597  10.028  20.773  0.00  0.00    +0.000 A 
ATOM      8  N   UNL     1       0.995  11.270  20.572  0.00  0.00    +0.000 NA
ATOM      9  C   UNL     1       0.235  12.051  21.388  0.00  0.00    +0.000 A 
ATOM     10  C   UNL     1       0.313  13.435  21.569  0.00  0.00    +0.000 A 
ATOM     11  C   UNL     1      -0.566  14.019  22.487  0.00  0.00    +0.000 A 
ATOM     12  C   UNL     1      -1.503  13.247  23.197  0.00  0.00    +0.000 A 
ATOM     13  C   UNL     1      -1.592  11.857  23.003  0.00  0.00    +0.000 A 
ATOM     14  C   UNL     1      -0.695  11.294  22.089  0.00  0.00    +0.000 A 
ATOM     15  N   UNL     1      -0.468  10.006  21.651  0.00  0.00    +0.000 N 
ATOM     16  H   UNL     1      -0.993   9.186  21.920  0.00  0.00    +0.000 HD
BRANCH  11  17
ATOM     17  N   UNL     1      -0.492  15.468  22.700  0.00  0.00    +0.000 N 
ATOM     18  O   UNL     1       0.204  15.880  23.641  0.00  0.00    +0.000 OA
ATOM     19  O   UNL     1      -1.130  16.198  21.928  0.00  0.00    +0.000 OA
ENDBRANCH  11  17
ENDBRANCH   4   7
BRANCH   1  22
ATOM     20  C   UNL     1       2.893   4.618  17.657  0.00  0.00    +0.000 C 
ATOM     21  O   UNL     1       1.771   4.167  17.874  0.00  0.00    +0.000 OA
ATOM     22  N   UNL     1       3.355   5.873  18.019  0.00  0.00    +0.000 N 
ATOM     23  H   UNL     1       4.259   6.148  17.658  0.00  0.00    +0.000 HD
BRANCH  20  24
ATOM     24  C   UNL     1       3.907   3.812  16.842  0.00  0.00    +0.000 C 
BRANCH  24  25
ATOM     25  O   UNL     1       4.816   4.642  16.115  0.00  0.00    +0.000 OA
BRANCH  25  26
ATOM     26  C   UNL     1       6.029   3.939  15.830  0.00  0.00    +0.000 C 
BRANCH  26  28
ATOM     27  O   UNL     1       7.462   5.906  15.861  0.00  0.00    +0.000 OA
ATOM     28  C   UNL     1       7.229   4.773  16.249  0.00  0.00    +0.000 C 
BRANCH  28  29
ATOM     29  O   UNL     1       8.000   4.124  17.159  0.00  0.00    +0.000 OA
ATOM     30  H   UNL     1       7.801   4.438  18.065  0.00  0.00    +0.000 HD
ENDBRANCH  28  29
ENDBRANCH  26  28
ENDBRANCH  25  26
ENDBRANCH  24  25
ENDBRANCH  20  24
ENDBRANCH   1  22
TORSDOF 8
ENDMDL
