MODEL 1
REMARK VINA RESULT:      -8.9      0.000      0.000
REMARK  Name = 
REMARK  9 active torsions:
REMARK  status: ('A' for Active; 'I' for Inactive)
REMARK    1  A    between atoms: C_1  and  O_2
REMARK    2  A    between atoms: O_2  and  C_3
REMARK    3  A    between atoms: C_6  and  S_7
REMARK    4  A    between atoms: S_7  and  N_10
REMARK    5  A    between atoms: N_10  and  C_11
REMARK    6  A    between atoms: C_14  and  C_15
REMARK    7  A    between atoms: C_15  and  O_16
REMARK    8  A    between atoms: N_21  and  C_22
REMARK    9  A    between atoms: C_22  and  C_23
REMARK                            x       y       z     vdW  Elec       q    Type
REMARK                         _______ _______ _______ _____ _____    ______ ____
ROOT
ATOM      1  C   UNL     1       1.723   9.077  18.509  0.00  0.00    +0.000 A 
ATOM      2  C   UNL     1       2.152   8.056  17.666  0.00  0.00    +0.000 A 
ATOM      3  C   UNL     1       2.347   6.769  18.172  0.00  0.00    +0.000 A 
ATOM      4  C   UNL     1       2.117   6.482  19.530  0.00  0.00    +0.000 A 
ATOM      5  C   UNL     1       1.696   7.536  20.363  0.00  0.00    +0.000 A 
ATOM      6  C   UNL     1       1.496   8.822  19.857  0.00  0.00    +0.000 A 
ENDROOT
BRANCH   4   7
ATOM      7  C   UNL     1       2.327   5.081  20.108  0.00  0.00    +0.000 C 
ATOM      8  C   UNL     1       1.052   4.241  19.908  0.00  0.00    +0.000 C 
ATOM      9  S   UNL     1       1.632   2.537  20.027  0.00  0.00    +0.000 S 
ATOM     10  C   UNL     1       3.274   2.958  19.538  0.00  0.00    +0.000 C 
ATOM     11  S   UNL     1       4.381   1.771  19.149  0.00  0.00    +0.000 S 
ATOM     12  N   UNL     1       3.437   4.344  19.511  0.00  0.00    +0.000 N 
BRANCH   7  13
ATOM     13  O   UNL     1       2.638   5.171  21.500  0.00  0.00    +0.000 OA
ATOM     14  H   UNL     1       1.798   5.178  21.988  0.00  0.00    +0.000 HD
ENDBRANCH   7  13
BRANCH  12  15
ATOM     15  C   UNL     1       4.758   4.988  19.424  0.00  0.00    +0.000 C 
BRANCH  15  16
ATOM     16  C   UNL     1       5.446   4.892  18.082  0.00  0.00    +0.000 A 
ATOM     17  C   UNL     1       4.774   4.744  16.864  0.00  0.00    +0.000 A 
ATOM     18  C   UNL     1       5.487   4.511  15.691  0.00  0.00    +0.000 A 
ATOM     19  C   UNL     1       6.866   4.444  15.762  0.00  0.00    +0.000 A 
ATOM     20  N   UNL     1       7.560   4.611  16.905  0.00  0.00    +0.000 NA
ATOM     21  C   UNL     1       6.838   4.822  18.032  0.00  0.00    +0.000 A 
ENDBRANCH  15  16
ENDBRANCH  12  15
ENDBRANCH   4   7
BRANCH   1  22
ATOM     22  N   UNL     1       1.390  10.343  17.955  0.00  0.00    +0.000 N 
ATOM     23  H   UNL     1       0.947  10.346  17.036  0.00  0.00    +0.000 HD
BRANCH  22  24
ATOM     24  S   UNL     1       0.570  11.421  18.977  0.00  0.00    +0.000 S 
ATOM     25  O   UNL     1       0.961  12.780  18.667  0.00  0.00    +0.000 OA
ATOM     26  O   UNL     1       0.728  10.885  20.312  0.00  0.00    +0.000 OA
BRANCH  24  30
ATOM     27  C   UNL     1      -3.799  10.863  17.788  0.00  0.00    +0.000 A 
ATOM     28  C   UNL     1      -3.420  11.893  18.654  0.00  0.00    +0.000 A 
ATOM     29  C   UNL     1      -2.086  12.061  19.011  0.00  0.00    +0.000 A 
ATOM     30  C   UNL     1      -1.123  11.177  18.517  0.00  0.00    +0.000 A 
ATOM     31  C   UNL     1      -1.489  10.132  17.662  0.00  0.00    +0.000 A 
ATOM     32  C   UNL     1      -2.831   9.980  17.298  0.00  0.00    +0.000 A 
BRANCH  27  34
ATOM     33  C   UNL     1      -5.985  10.642  18.663  0.00  0.00    +0.000 C 
ATOM     34  O   UNL     1      -5.139  10.793  17.530  0.00  0.00    +0.000 OA
ENDBRANCH  27  34
ENDBRANCH  24  30
ENDBRANCH  22  24
ENDBRANCH   1  22
TORSDOF 8
ENDMDL
MODEL 2
REMARK VINA RESULT:      -8.6      0.528      1.003
REMARK  Name = 
REMARK  9 active torsions:
REMARK  status: ('A' for Active; 'I' for Inactive)
REMARK    1  A    between atoms: C_1  and  O_2
REMARK    2  A    between atoms: O_2  and  C_3
REMARK    3  A    between atoms: C_6  and  S_7
REMARK    4  A    between atoms: S_7  and  N_10
REMARK    5  A    between atoms: N_10  and  C_11
REMARK    6  A    between atoms: C_14  and  C_15
REMARK    7  A    between atoms: C_15  and  O_16
REMARK    8  A    between atoms: N_21  and  C_22
REMARK    9  A    between atoms: C_22  and  C_23
REMARK                            x       y       z     vdW  Elec       q    Type
REMARK                         _______ _______ _______ _____ _____    ______ ____
ROOT
ATOM      1  C   UNL     1       1.744   9.154  18.571  0.00  0.00    +0.000 A 
ATOM      2  C   UNL     1       1.538   8.903  19.926  0.00  0.00    +0.000 A 
ATOM      3  C   UNL     1       1.722   7.615  20.432  0.00  0.00    +0.000 A 
ATOM      4  C   UNL     1       2.113   6.555  19.593  0.00  0.00    +0.000 A 
ATOM      5  C   UNL     1       2.301   6.834  18.225  0.00  0.00    +0.000 A 
ATOM      6  C   UNL     1       2.123   8.123  17.719  0.00  0.00    +0.000 A 
ENDROOT
BRANCH   4   7
ATOM      7  C   UNL     1       2.317   5.135  20.124  0.00  0.00    +0.000 C 
ATOM      8  C   UNL     1       1.039   4.308  19.899  0.00  0.00    +0.000 C 
ATOM      9  S   UNL     1       1.612   2.599  19.962  0.00  0.00    +0.000 S 
ATOM     10  C   UNL     1       3.256   3.029  19.484  0.00  0.00    +0.000 C 
ATOM     11  S   UNL     1       4.357   1.851  19.055  0.00  0.00    +0.000 S 
ATOM     12  N   UNL     1       3.424   4.414  19.503  0.00  0.00    +0.000 N 
BRANCH   7  13
ATOM     13  O   UNL     1       2.631   5.179  21.519  0.00  0.00    +0.000 OA
ATOM     14  H   UNL     1       2.984   6.063  21.712  0.00  0.00    +0.000 HD
ENDBRANCH   7  13
BRANCH  12  15
ATOM     15  C   UNL     1       4.747   5.055  19.434  0.00  0.00    +0.000 C 
BRANCH  15  16
ATOM     16  C   UNL     1       5.444   4.978  18.096  0.00  0.00    +0.000 A 
ATOM     17  C   UNL     1       4.782   4.982  16.864  0.00  0.00    +0.000 A 
ATOM     18  C   UNL     1       5.486   4.755  15.685  0.00  0.00    +0.000 A 
ATOM     19  C   UNL     1       6.849   4.541  15.765  0.00  0.00    +0.000 A 
ATOM     20  N   UNL     1       7.538   4.559  16.923  0.00  0.00    +0.000 NA
ATOM     21  C   UNL     1       6.823   4.767  18.055  0.00  0.00    +0.000 A 
ENDBRANCH  15  16
ENDBRANCH  12  15
ENDBRANCH   4   7
BRANCH   1  22
ATOM     22  N   UNL     1       1.694  10.493  18.097  0.00  0.00    +0.000 N 
ATOM     23  H   UNL     1       1.341  10.638  17.151  0.00  0.00    +0.000 HD
BRANCH  22  24
ATOM     24  S   UNL     1       0.995  11.636  19.137  0.00  0.00    +0.000 S 
ATOM     25  O   UNL     1       1.415  12.967  18.753  0.00  0.00    +0.000 OA
ATOM     26  O   UNL     1       1.231  11.137  20.476  0.00  0.00    +0.000 OA
BRANCH  24  30
ATOM     27  C   UNL     1      -3.471  11.221  18.306  0.00  0.00    +0.000 A 
ATOM     28  C   UNL     1      -3.004  12.121  19.268  0.00  0.00    +0.000 A 
ATOM     29  C   UNL     1      -1.641  12.247  19.515  0.00  0.00    +0.000 A 
ATOM     30  C   UNL     1      -0.736  11.448  18.812  0.00  0.00    +0.000 A 
ATOM     31  C   UNL     1      -1.188  10.531  17.858  0.00  0.00    +0.000 A 
ATOM     32  C   UNL     1      -2.561  10.423  17.606  0.00  0.00    +0.000 A 
BRANCH  27  34
ATOM     33  C   UNL     1      -5.364  11.861  17.041  0.00  0.00    +0.000 C 
ATOM     34  O   UNL     1      -4.830  11.179  18.170  0.00  0.00    +0.000 OA
ENDBRANCH  27  34
ENDBRANCH  24  30
ENDBRANCH  22  24
ENDBRANCH   1  22
TORSDOF 8
ENDMDL
MODEL 3
REMARK VINA RESULT:      -8.6      2.172      3.218
REMARK  Name = 
REMARK  9 active torsions:
REMARK  status: ('A' for Active; 'I' for Inactive)
REMARK    1  A    between atoms: C_1  and  O_2
REMARK    2  A    between atoms: O_2  and  C_3
REMARK    3  A    between atoms: C_6  and  S_7
REMARK    4  A    between atoms: S_7  and  N_10
REMARK    5  A    between atoms: N_10  and  C_11
REMARK    6  A    between atoms: C_14  and  C_15
REMARK    7  A    between atoms: C_15  and  O_16
REMARK    8  A    between atoms: N_21  and  C_22
REMARK    9  A    between atoms: C_22  and  C_23
REMARK                            x       y       z     vdW  Elec       q    Type
REMARK                         _______ _______ _______ _____ _____    ______ ____
ROOT
ATOM      1  C   UNL     1       1.452   9.243  19.317  0.00  0.00    +0.000 A 
ATOM      2  C   UNL     1       1.270   8.767  20.613  0.00  0.00    +0.000 A 
ATOM      3  C   UNL     1       1.517   7.424  20.904  0.00  0.00    +0.000 A 
ATOM      4  C   UNL     1       1.948   6.533  19.903  0.00  0.00    +0.000 A 
ATOM      5  C   UNL     1       2.112   7.039  18.599  0.00  0.00    +0.000 A 
ATOM      6  C   UNL     1       1.871   8.383  18.308  0.00  0.00    +0.000 A 
ENDROOT
BRANCH   4   7
ATOM      7  C   UNL     1       2.222   5.057  20.197  0.00  0.00    +0.000 C 
ATOM      8  C   UNL     1       0.961   4.226  19.896  0.00  0.00    +0.000 C 
ATOM      9  S   UNL     1       1.591   2.551  19.668  0.00  0.00    +0.000 S 
ATOM     10  C   UNL     1       3.197   3.113  19.198  0.00  0.00    +0.000 C 
ATOM     11  S   UNL     1       4.315   2.059  18.545  0.00  0.00    +0.000 S 
ATOM     12  N   UNL     1       3.322   4.484  19.426  0.00  0.00    +0.000 N 
BRANCH   7  13
ATOM     13  O   UNL     1       2.597   4.896  21.567  0.00  0.00    +0.000 OA
ATOM     14  H   UNL     1       2.396   5.728  22.026  0.00  0.00    +0.000 HD
ENDBRANCH   7  13
BRANCH  12  15
ATOM     15  C   UNL     1       4.619   5.179  19.406  0.00  0.00    +0.000 C 
BRANCH  15  16
ATOM     16  C   UNL     1       5.332   5.197  18.074  0.00  0.00    +0.000 A 
ATOM     17  C   UNL     1       4.696   5.407  16.846  0.00  0.00    +0.000 A 
ATOM     18  C   UNL     1       5.400   5.258  15.654  0.00  0.00    +0.000 A 
ATOM     19  C   UNL     1       6.737   4.913  15.720  0.00  0.00    +0.000 A 
ATOM     20  N   UNL     1       7.402   4.731  16.877  0.00  0.00    +0.000 NA
ATOM     21  C   UNL     1       6.687   4.868  18.020  0.00  0.00    +0.000 A 
ENDBRANCH  15  16
ENDBRANCH  12  15
ENDBRANCH   4   7
BRANCH   1  22
ATOM     22  N   UNL     1       1.338  10.637  19.066  0.00  0.00    +0.000 N 
ATOM     23  H   UNL     1       1.904  11.021  18.309  0.00  0.00    +0.000 HD
BRANCH  22  24
ATOM     24  S   UNL     1      -0.238  11.257  18.957  0.00  0.00    +0.000 S 
ATOM     25  O   UNL     1      -1.184  10.167  18.836  0.00  0.00    +0.000 OA
ATOM     26  O   UNL     1      -0.174  12.304  17.959  0.00  0.00    +0.000 OA
BRANCH  24  30
ATOM     27  C   UNL     1      -0.804  13.358  22.966  0.00  0.00    +0.000 A 
ATOM     28  C   UNL     1      -0.191  14.015  21.896  0.00  0.00    +0.000 A 
ATOM     29  C   UNL     1      -0.023  13.371  20.674  0.00  0.00    +0.000 A 
ATOM     30  C   UNL     1      -0.452  12.049  20.527  0.00  0.00    +0.000 A 
ATOM     31  C   UNL     1      -1.053  11.374  21.593  0.00  0.00    +0.000 A 
ATOM     32  C   UNL     1      -1.230  12.035  22.814  0.00  0.00    +0.000 A 
BRANCH  27  34
ATOM     33  C   UNL     1      -1.283  15.451  23.958  0.00  0.00    +0.000 C 
ATOM     34  O   UNL     1      -0.893  14.092  24.116  0.00  0.00    +0.000 OA
ENDBRANCH  27  34
ENDBRANCH  24  30
ENDBRANCH  22  24
ENDBRANCH   1  22
TORSDOF 8
ENDMDL
MODEL 4
REMARK VINA RESULT:      -8.6      2.617      4.032
REMARK  Name = 
REMARK  9 active torsions:
REMARK  status: ('A' for Active; 'I' for Inactive)
REMARK    1  A    between atoms: C_1  and  O_2
REMARK    2  A    between atoms: O_2  and  C_3
REMARK    3  A    between atoms: C_6  and  S_7
REMARK    4  A    between atoms: S_7  and  N_10
REMARK    5  A    between atoms: N_10  and  C_11
REMARK    6  A    between atoms: C_14  and  C_15
REMARK    7  A    between atoms: C_15  and  O_16
REMARK    8  A    between atoms: N_21  and  C_22
REMARK    9  A    between atoms: C_22  and  C_23
REMARK                            x       y       z     vdW  Elec       q    Type
REMARK                         _______ _______ _______ _____ _____    ______ ____
ROOT
ATOM      1  C   UNL     1       1.716   9.123  18.631  0.00  0.00    +0.000 A 
ATOM      2  C   UNL     1       1.528   8.852  19.984  0.00  0.00    +0.000 A 
ATOM      3  C   UNL     1       1.715   7.557  20.468  0.00  0.00    +0.000 A 
ATOM      4  C   UNL     1       2.092   6.509  19.608  0.00  0.00    +0.000 A 
ATOM      5  C   UNL     1       2.263   6.808  18.243  0.00  0.00    +0.000 A 
ATOM      6  C   UNL     1       2.082   8.104  17.758  0.00  0.00    +0.000 A 
ENDROOT
BRANCH   4   7
ATOM      7  C   UNL     1       2.300   5.080  20.115  0.00  0.00    +0.000 C 
ATOM      8  C   UNL     1       1.017   4.258  19.891  0.00  0.00    +0.000 C 
ATOM      9  S   UNL     1       1.589   2.547  19.921  0.00  0.00    +0.000 S 
ATOM     10  C   UNL     1       3.228   2.983  19.434  0.00  0.00    +0.000 C 
ATOM     11  S   UNL     1       4.324   1.810  18.975  0.00  0.00    +0.000 S 
ATOM     12  N   UNL     1       3.399   4.367  19.472  0.00  0.00    +0.000 N 
BRANCH   7  13
ATOM     13  O   UNL     1       2.627   5.102  21.507  0.00  0.00    +0.000 OA
ATOM     14  H   UNL     1       3.379   4.502  21.641  0.00  0.00    +0.000 HD
ENDBRANCH   7  13
BRANCH  12  15
ATOM     15  C   UNL     1       4.722   5.008  19.400  0.00  0.00    +0.000 C 
BRANCH  15  16
ATOM     16  C   UNL     1       5.409   4.944  18.056  0.00  0.00    +0.000 A 
ATOM     17  C   UNL     1       4.735   4.926  16.830  0.00  0.00    +0.000 A 
ATOM     18  C   UNL     1       5.434   4.714  15.645  0.00  0.00    +0.000 A 
ATOM     19  C   UNL     1       6.804   4.536  15.714  0.00  0.00    +0.000 A 
ATOM     20  N   UNL     1       7.502   4.575  16.865  0.00  0.00    +0.000 NA
ATOM     21  C   UNL     1       6.792   4.769  18.003  0.00  0.00    +0.000 A 
ENDBRANCH  15  16
ENDBRANCH  12  15
ENDBRANCH   4   7
BRANCH   1  22
ATOM     22  N   UNL     1       1.664  10.469  18.177  0.00  0.00    +0.000 N 
ATOM     23  H   UNL     1       1.519  10.618  17.178  0.00  0.00    +0.000 HD
BRANCH  22  24
ATOM     24  S   UNL     1       0.662  11.522  19.052  0.00  0.00    +0.000 S 
ATOM     25  O   UNL     1       0.717  11.191  20.460  0.00  0.00    +0.000 OA
ATOM     26  O   UNL     1      -0.598  11.539  18.339  0.00  0.00    +0.000 OA
BRANCH  24  30
ATOM     27  C   UNL     1       2.669  15.551  18.312  0.00  0.00    +0.000 A 
ATOM     28  C   UNL     1       3.363  14.357  18.097  0.00  0.00    +0.000 A 
ATOM     29  C   UNL     1       2.746  13.131  18.321  0.00  0.00    +0.000 A 
ATOM     30  C   UNL     1       1.429  13.097  18.787  0.00  0.00    +0.000 A 
ATOM     31  C   UNL     1       0.727  14.282  19.022  0.00  0.00    +0.000 A 
ATOM     32  C   UNL     1       1.352  15.511  18.780  0.00  0.00    +0.000 A 
BRANCH  27  34
ATOM     33  C   UNL     1       4.676  16.746  18.680  0.00  0.00    +0.000 C 
ATOM     34  O   UNL     1       3.392  16.686  18.073  0.00  0.00    +0.000 OA
ENDBRANCH  27  34
ENDBRANCH  24  30
ENDBRANCH  22  24
ENDBRANCH   1  22
TORSDOF 8
ENDMDL
MODEL 5
REMARK VINA RESULT:      -8.6      3.159      9.152
REMARK  Name = 
REMARK  9 active torsions:
REMARK  status: ('A' for Active; 'I' for Inactive)
REMARK    1  A    between atoms: C_1  and  O_2
REMARK    2  A    between atoms: O_2  and  C_3
REMARK    3  A    between atoms: C_6  and  S_7
REMARK    4  A    between atoms: S_7  and  N_10
REMARK    5  A    between atoms: N_10  and  C_11
REMARK    6  A    between atoms: C_14  and  C_15
REMARK    7  A    between atoms: C_15  and  O_16
REMARK    8  A    between atoms: N_21  and  C_22
REMARK    9  A    between atoms: C_22  and  C_23
REMARK                            x       y       z     vdW  Elec       q    Type
REMARK                         _______ _______ _______ _____ _____    ______ ____
ROOT
ATOM      1  C   UNL     1       2.226   7.090  20.008  0.00  0.00    +0.000 A 
ATOM      2  C   UNL     1       2.425   7.728  18.786  0.00  0.00    +0.000 A 
ATOM      3  C   UNL     1       1.744   8.913  18.498  0.00  0.00    +0.000 A 
ATOM      4  C   UNL     1       0.850   9.479  19.426  0.00  0.00    +0.000 A 
ATOM      5  C   UNL     1       0.658   8.806  20.649  0.00  0.00    +0.000 A 
ATOM      6  C   UNL     1       1.343   7.625  20.940  0.00  0.00    +0.000 A 
ENDROOT
BRANCH   4   7
ATOM      7  C   UNL     1       0.090  10.773  19.132  0.00  0.00    +0.000 C 
ATOM      8  C   UNL     1      -1.417  10.478  19.028  0.00  0.00    +0.000 C 
ATOM      9  S   UNL     1      -2.194  12.080  19.321  0.00  0.00    +0.000 S 
ATOM     10  C   UNL     1      -0.817  12.689  20.243  0.00  0.00    +0.000 C 
ATOM     11  S   UNL     1      -0.931  14.109  21.112  0.00  0.00    +0.000 S 
ATOM     12  N   UNL     1       0.267  11.817  20.138  0.00  0.00    +0.000 N 
BRANCH   7  13
ATOM     13  O   UNL     1       0.560  11.345  17.908  0.00  0.00    +0.000 OA
ATOM     14  H   UNL     1       0.466  12.309  17.980  0.00  0.00    +0.000 HD
ENDBRANCH   7  13
BRANCH  12  15
ATOM     15  C   UNL     1       1.630  12.188  20.552  0.00  0.00    +0.000 C 
BRANCH  15  16
ATOM     16  C   UNL     1       2.175  13.460  19.945  0.00  0.00    +0.000 A 
ATOM     17  C   UNL     1       2.309  13.679  18.570  0.00  0.00    +0.000 A 
ATOM     18  C   UNL     1       2.960  14.815  18.098  0.00  0.00    +0.000 A 
ATOM     19  C   UNL     1       3.454  15.720  19.020  0.00  0.00    +0.000 A 
ATOM     20  N   UNL     1       3.322  15.570  20.352  0.00  0.00    +0.000 NA
ATOM     21  C   UNL     1       2.697  14.447  20.781  0.00  0.00    +0.000 A 
ENDBRANCH  15  16
ENDBRANCH  12  15
ENDBRANCH   4   7
BRANCH   1  22
ATOM     22  N   UNL     1       3.031   5.969  20.346  0.00  0.00    +0.000 N 
ATOM     23  H   UNL     1       3.054   5.693  21.328  0.00  0.00    +0.000 HD
BRANCH  22  24
ATOM     24  S   UNL     1       2.843   4.587  19.380  0.00  0.00    +0.000 S 
ATOM     25  O   UNL     1       1.633   4.703  18.592  0.00  0.00    +0.000 OA
ATOM     26  O   UNL     1       3.050   3.462  20.268  0.00  0.00    +0.000 OA
BRANCH  24  30
ATOM     27  C   UNL     1       6.430   4.818  16.571  0.00  0.00    +0.000 A 
ATOM     28  C   UNL     1       5.200   4.331  16.120  0.00  0.00    +0.000 A 
ATOM     29  C   UNL     1       4.108   4.266  16.979  0.00  0.00    +0.000 A 
ATOM     30  C   UNL     1       4.252   4.669  18.309  0.00  0.00    +0.000 A 
ATOM     31  C   UNL     1       5.480   5.143  18.780  0.00  0.00    +0.000 A 
ATOM     32  C   UNL     1       6.569   5.219  17.903  0.00  0.00    +0.000 A 
BRANCH  27  34
ATOM     33  C   UNL     1       7.015   4.614  14.289  0.00  0.00    +0.000 C 
ATOM     34  O   UNL     1       7.427   4.815  15.636  0.00  0.00    +0.000 OA
ENDBRANCH  27  34
ENDBRANCH  24  30
ENDBRANCH  22  24
ENDBRANCH   1  22
TORSDOF 8
ENDMDL
MODEL 6
REMARK VINA RESULT:      -8.5      3.316      9.089
REMARK  Name = 
REMARK  9 active torsions:
REMARK  status: ('A' for Active; 'I' for Inactive)
REMARK    1  A    between atoms: C_1  and  O_2
REMARK    2  A    between atoms: O_2  and  C_3
REMARK    3  A    between atoms: C_6  and  S_7
REMARK    4  A    between atoms: S_7  and  N_10
REMARK    5  A    between atoms: N_10  and  C_11
REMARK    6  A    between atoms: C_14  and  C_15
REMARK    7  A    between atoms: C_15  and  O_16
REMARK    8  A    between atoms: N_21  and  C_22
REMARK    9  A    between atoms: C_22  and  C_23
REMARK                            x       y       z     vdW  Elec       q    Type
REMARK                         _______ _______ _______ _____ _____    ______ ____
ROOT
ATOM      1  C   UNL     1       2.244   7.722  19.437  0.00  0.00    +0.000 A 
ATOM      2  C   UNL     1       2.158   8.303  18.174  0.00  0.00    +0.000 A 
ATOM      3  C   UNL     1       1.312   9.393  17.963  0.00  0.00    +0.000 A 
ATOM      4  C   UNL     1       0.535   9.921  19.010  0.00  0.00    +0.000 A 
ATOM      5  C   UNL     1       0.631   9.306  20.274  0.00  0.00    +0.000 A 
ATOM      6  C   UNL     1       1.481   8.220  20.488  0.00  0.00    +0.000 A 
ENDROOT
BRANCH   4   7
ATOM      7  C   UNL     1      -0.402  11.112  18.802  0.00  0.00    +0.000 C 
ATOM      8  C   UNL     1      -1.587  11.018  19.781  0.00  0.00    +0.000 C 
ATOM      9  S   UNL     1      -2.208  12.709  19.873  0.00  0.00    +0.000 S 
ATOM     10  C   UNL     1      -0.652  13.410  19.422  0.00  0.00    +0.000 C 
ATOM     11  S   UNL     1      -0.380  15.050  19.565  0.00  0.00    +0.000 S 
ATOM     12  N   UNL     1       0.229  12.414  18.997  0.00  0.00    +0.000 N 
BRANCH   7  13
ATOM     13  O   UNL     1      -0.882  11.123  17.455  0.00  0.00    +0.000 OA
ATOM     14  H   UNL     1      -0.858  10.208  17.128  0.00  0.00    +0.000 HD
ENDBRANCH   7  13
BRANCH  12  15
ATOM     15  C   UNL     1       1.487  12.713  18.294  0.00  0.00    +0.000 C 
BRANCH  15  16
ATOM     16  C   UNL     1       2.560  13.377  19.124  0.00  0.00    +0.000 A 
ATOM     17  C   UNL     1       2.660  13.264  20.514  0.00  0.00    +0.000 A 
ATOM     18  C   UNL     1       3.586  14.029  21.219  0.00  0.00    +0.000 A 
ATOM     19  C   UNL     1       4.406  14.886  20.508  0.00  0.00    +0.000 A 
ATOM     20  N   UNL     1       4.370  15.007  19.167  0.00  0.00    +0.000 NA
ATOM     21  C   UNL     1       3.449  14.261  18.511  0.00  0.00    +0.000 A 
ENDBRANCH  15  16
ENDBRANCH  12  15
ENDBRANCH   4   7
BRANCH   1  22
ATOM     22  N   UNL     1       3.213   6.710  19.674  0.00  0.00    +0.000 N 
ATOM     23  H   UNL     1       3.469   6.530  20.645  0.00  0.00    +0.000 HD
BRANCH  22  24
ATOM     24  S   UNL     1       2.970   5.233  18.875  0.00  0.00    +0.000 S 
ATOM     25  O   UNL     1       1.706   5.261  18.169  0.00  0.00    +0.000 OA
ATOM     26  O   UNL     1       3.252   4.209  19.859  0.00  0.00    +0.000 OA
BRANCH  24  30
ATOM     27  C   UNL     1       6.432   5.188  15.905  0.00  0.00    +0.000 A 
ATOM     28  C   UNL     1       6.246   6.271  16.769  0.00  0.00    +0.000 A 
ATOM     29  C   UNL     1       5.191   6.279  17.675  0.00  0.00    +0.000 A 
ATOM     30  C   UNL     1       4.298   5.204  17.703  0.00  0.00    +0.000 A 
ATOM     31  C   UNL     1       4.462   4.121  16.834  0.00  0.00    +0.000 A 
ATOM     32  C   UNL     1       5.535   4.116  15.936  0.00  0.00    +0.000 A 
BRANCH  27  34
ATOM     33  C   UNL     1       7.265   4.893  13.711  0.00  0.00    +0.000 C 
ATOM     34  O   UNL     1       7.493   5.310  15.052  0.00  0.00    +0.000 OA
ENDBRANCH  27  34
ENDBRANCH  24  30
ENDBRANCH  22  24
ENDBRANCH   1  22
TORSDOF 8
ENDMDL
MODEL 7
REMARK VINA RESULT:      -8.5      2.141      3.079
REMARK  Name = 
REMARK  9 active torsions:
REMARK  status: ('A' for Active; 'I' for Inactive)
REMARK    1  A    between atoms: C_1  and  O_2
REMARK    2  A    between atoms: O_2  and  C_3
REMARK    3  A    between atoms: C_6  and  S_7
REMARK    4  A    between atoms: S_7  and  N_10
REMARK    5  A    between atoms: N_10  and  C_11
REMARK    6  A    between atoms: C_14  and  C_15
REMARK    7  A    between atoms: C_15  and  O_16
REMARK    8  A    between atoms: N_21  and  C_22
REMARK    9  A    between atoms: C_22  and  C_23
REMARK                            x       y       z     vdW  Elec       q    Type
REMARK                         _______ _______ _______ _____ _____    ______ ____
ROOT
ATOM      1  C   UNL     1       1.524   9.431  19.137  0.00  0.00    +0.000 A 
ATOM      2  C   UNL     1       1.940   8.539  18.153  0.00  0.00    +0.000 A 
ATOM      3  C   UNL     1       2.167   7.200  18.475  0.00  0.00    +0.000 A 
ATOM      4  C   UNL     1       1.983   6.730  19.789  0.00  0.00    +0.000 A 
ATOM      5  C   UNL     1       1.574   7.656  20.768  0.00  0.00    +0.000 A 
ATOM      6  C   UNL     1       1.342   8.994  20.445  0.00  0.00    +0.000 A 
ENDROOT
BRANCH   4   7
ATOM      7  C   UNL     1       2.228   5.268  20.167  0.00  0.00    +0.000 C 
ATOM      8  C   UNL     1       0.955   4.443  19.904  0.00  0.00    +0.000 C 
ATOM      9  S   UNL     1       1.557   2.747  19.774  0.00  0.00    +0.000 S 
ATOM     10  C   UNL     1       3.176   3.254  19.286  0.00  0.00    +0.000 C 
ATOM     11  S   UNL     1       4.280   2.146  18.703  0.00  0.00    +0.000 S 
ATOM     12  N   UNL     1       3.323   4.633  19.439  0.00  0.00    +0.000 N 
BRANCH   7  13
ATOM     13  O   UNL     1       2.591   5.177  21.547  0.00  0.00    +0.000 OA
ATOM     14  H   UNL     1       3.548   5.016  21.589  0.00  0.00    +0.000 HD
ENDBRANCH   7  13
BRANCH  12  15
ATOM     15  C   UNL     1       4.633   5.303  19.390  0.00  0.00    +0.000 C 
BRANCH  15  16
ATOM     16  C   UNL     1       5.349   5.247  18.061  0.00  0.00    +0.000 A 
ATOM     17  C   UNL     1       4.720   5.412  16.823  0.00  0.00    +0.000 A 
ATOM     18  C   UNL     1       5.423   5.195  15.641  0.00  0.00    +0.000 A 
ATOM     19  C   UNL     1       6.754   4.828  15.727  0.00  0.00    +0.000 A 
ATOM     20  N   UNL     1       7.413   4.688  16.893  0.00  0.00    +0.000 NA
ATOM     21  C   UNL     1       6.698   4.891  18.026  0.00  0.00    +0.000 A 
ENDBRANCH  15  16
ENDBRANCH  12  15
ENDBRANCH   4   7
BRANCH   1  22
ATOM     22  N   UNL     1       1.158  10.754  18.768  0.00  0.00    +0.000 N 
ATOM     23  H   UNL     1       1.512  11.103  17.877  0.00  0.00    +0.000 HD
BRANCH  22  24
ATOM     24  S   UNL     1      -0.486  11.149  18.911  0.00  0.00    +0.000 S 
ATOM     25  O   UNL     1      -1.259   9.947  19.141  0.00  0.00    +0.000 OA
ATOM     26  O   UNL     1      -0.774  12.018  17.789  0.00  0.00    +0.000 OA
BRANCH  24  30
ATOM     27  C   UNL     1      -0.582  13.687  22.700  0.00  0.00    +0.000 A 
ATOM     28  C   UNL     1      -1.539  12.692  22.483  0.00  0.00    +0.000 A 
ATOM     29  C   UNL     1      -1.504  11.918  21.327  0.00  0.00    +0.000 A 
ATOM     30  C   UNL     1      -0.516  12.157  20.368  0.00  0.00    +0.000 A 
ATOM     31  C   UNL     1       0.439  13.159  20.564  0.00  0.00    +0.000 A 
ATOM     32  C   UNL     1       0.403  13.922  21.737  0.00  0.00    +0.000 A 
BRANCH  27  34
ATOM     33  C   UNL     1      -2.077  14.599  24.290  0.00  0.00    +0.000 C 
ATOM     34  O   UNL     1      -0.737  14.387  23.864  0.00  0.00    +0.000 OA
ENDBRANCH  27  34
ENDBRANCH  24  30
ENDBRANCH  22  24
ENDBRANCH   1  22
TORSDOF 8
ENDMDL
MODEL 8
REMARK VINA RESULT:      -8.5      3.311      9.109
REMARK  Name = 
REMARK  9 active torsions:
REMARK  status: ('A' for Active; 'I' for Inactive)
REMARK    1  A    between atoms: C_1  and  O_2
REMARK    2  A    between atoms: O_2  and  C_3
REMARK    3  A    between atoms: C_6  and  S_7
REMARK    4  A    between atoms: S_7  and  N_10
REMARK    5  A    between atoms: N_10  and  C_11
REMARK    6  A    between atoms: C_14  and  C_15
REMARK    7  A    between atoms: C_15  and  O_16
REMARK    8  A    between atoms: N_21  and  C_22
REMARK    9  A    between atoms: C_22  and  C_23
REMARK                            x       y       z     vdW  Elec       q    Type
REMARK                         _______ _______ _______ _____ _____    ______ ____
ROOT
ATOM      1  C   UNL     1       2.273   7.683  19.553  0.00  0.00    +0.000 A 
ATOM      2  C   UNL     1       2.194   8.248  18.283  0.00  0.00    +0.000 A 
ATOM      3  C   UNL     1       1.332   9.322  18.050  0.00  0.00    +0.000 A 
ATOM      4  C   UNL     1       0.533   9.847  19.082  0.00  0.00    +0.000 A 
ATOM      5  C   UNL     1       0.623   9.247  20.353  0.00  0.00    +0.000 A 
ATOM      6  C   UNL     1       1.488   8.178  20.589  0.00  0.00    +0.000 A 
ENDROOT
BRANCH   4   7
ATOM      7  C   UNL     1      -0.421  11.020  18.850  0.00  0.00    +0.000 C 
ATOM      8  C   UNL     1      -1.667  10.860  19.740  0.00  0.00    +0.000 C 
ATOM      9  S   UNL     1      -2.341  12.530  19.846  0.00  0.00    +0.000 S 
ATOM     10  C   UNL     1      -0.779  13.287  19.529  0.00  0.00    +0.000 C 
ATOM     11  S   UNL     1      -0.564  14.928  19.745  0.00  0.00    +0.000 S 
ATOM     12  N   UNL     1       0.157  12.331  19.133  0.00  0.00    +0.000 N 
BRANCH   7  13
ATOM     13  O   UNL     1      -0.808  11.066  17.474  0.00  0.00    +0.000 OA
ATOM     14  H   UNL     1      -0.963  10.153  17.182  0.00  0.00    +0.000 HD
ENDBRANCH   7  13
BRANCH  12  15
ATOM     15  C   UNL     1       1.451  12.687  18.529  0.00  0.00    +0.000 C 
BRANCH  15  16
ATOM     16  C   UNL     1       2.403  13.450  19.420  0.00  0.00    +0.000 A 
ATOM     17  C   UNL     1       3.317  14.403  18.959  0.00  0.00    +0.000 A 
ATOM     18  C   UNL     1       4.261  14.949  19.825  0.00  0.00    +0.000 A 
ATOM     19  C   UNL     1       4.259  14.536  21.144  0.00  0.00    +0.000 A 
ATOM     20  N   UNL     1       3.380  13.645  21.643  0.00  0.00    +0.000 NA
ATOM     21  C   UNL     1       2.483  13.120  20.774  0.00  0.00    +0.000 A 
ENDBRANCH  15  16
ENDBRANCH  12  15
ENDBRANCH   4   7
BRANCH   1  22
ATOM     22  N   UNL     1       3.256   6.689  19.812  0.00  0.00    +0.000 N 
ATOM     23  H   UNL     1       3.470   6.491  20.790  0.00  0.00    +0.000 HD
BRANCH  22  24
ATOM     24  S   UNL     1       3.091   5.227  18.967  0.00  0.00    +0.000 S 
ATOM     25  O   UNL     1       1.833   5.216  18.251  0.00  0.00    +0.000 OA
ATOM     26  O   UNL     1       3.416   4.189  19.923  0.00  0.00    +0.000 OA
BRANCH  24  30
ATOM     27  C   UNL     1       6.486   5.403  15.925  0.00  0.00    +0.000 A 
ATOM     28  C   UNL     1       5.434   4.497  15.769  0.00  0.00    +0.000 A 
ATOM     29  C   UNL     1       4.399   4.450  16.697  0.00  0.00    +0.000 A 
ATOM     30  C   UNL     1       4.428   5.299  17.806  0.00  0.00    +0.000 A 
ATOM     31  C   UNL     1       5.482   6.200  17.985  0.00  0.00    +0.000 A 
ATOM     32  C   UNL     1       6.511   6.250  17.037  0.00  0.00    +0.000 A 
BRANCH  27  34
ATOM     33  C   UNL     1       7.081   4.663  13.759  0.00  0.00    +0.000 C 
ATOM     34  O   UNL     1       7.448   5.338  14.956  0.00  0.00    +0.000 OA
ENDBRANCH  27  34
ENDBRANCH  24  30
ENDBRANCH  22  24
ENDBRANCH   1  22
TORSDOF 8
ENDMDL
MODEL 9
REMARK VINA RESULT:      -8.5      2.144      3.273
REMARK  Name = 
REMARK  9 active torsions:
REMARK  status: ('A' for Active; 'I' for Inactive)
REMARK    1  A    between atoms: C_1  and  O_2
REMARK    2  A    between atoms: O_2  and  C_3
REMARK    3  A    between atoms: C_6  and  S_7
REMARK    4  A    between atoms: S_7  and  N_10
REMARK    5  A    between atoms: N_10  and  C_11
REMARK    6  A    between atoms: C_14  and  C_15
REMARK    7  A    between atoms: C_15  and  O_16
REMARK    8  A    between atoms: N_21  and  C_22
REMARK    9  A    between atoms: C_22  and  C_23
REMARK                            x       y       z     vdW  Elec       q    Type
REMARK                         _______ _______ _______ _____ _____    ______ ____
ROOT
ATOM      1  C   UNL     1       1.915   8.797  18.775  0.00  0.00    +0.000 A 
ATOM      2  C   UNL     1       2.223   7.843  17.808  0.00  0.00    +0.000 A 
ATOM      3  C   UNL     1       2.348   6.500  18.168  0.00  0.00    +0.000 A 
ATOM      4  C   UNL     1       2.170   6.088  19.502  0.00  0.00    +0.000 A 
ATOM      5  C   UNL     1       1.872   7.075  20.461  0.00  0.00    +0.000 A 
ATOM      6  C   UNL     1       1.741   8.418  20.101  0.00  0.00    +0.000 A 
ENDROOT
BRANCH   4   7
ATOM      7  C   UNL     1       2.305   4.623  19.921  0.00  0.00    +0.000 C 
ATOM      8  C   UNL     1       0.992   3.875  19.626  0.00  0.00    +0.000 C 
ATOM      9  S   UNL     1       1.487   2.142  19.557  0.00  0.00    +0.000 S 
ATOM     10  C   UNL     1       3.153   2.532  19.123  0.00  0.00    +0.000 C 
ATOM     11  S   UNL     1       4.203   1.342  18.608  0.00  0.00    +0.000 S 
ATOM     12  N   UNL     1       3.384   3.902  19.251  0.00  0.00    +0.000 N 
BRANCH   7  13
ATOM     13  O   UNL     1       2.608   4.543  21.317  0.00  0.00    +0.000 OA
ATOM     14  H   UNL     1       1.858   4.924  21.802  0.00  0.00    +0.000 HD
ENDBRANCH   7  13
BRANCH  12  15
ATOM     15  C   UNL     1       4.735   4.486  19.239  0.00  0.00    +0.000 C 
BRANCH  15  16
ATOM     16  C   UNL     1       5.393   4.588  17.883  0.00  0.00    +0.000 A 
ATOM     17  C   UNL     1       4.707   4.485  16.668  0.00  0.00    +0.000 A 
ATOM     18  C   UNL     1       5.408   4.438  15.466  0.00  0.00    +0.000 A 
ATOM     19  C   UNL     1       6.788   4.511  15.507  0.00  0.00    +0.000 A 
ATOM     20  N   UNL     1       7.492   4.642  16.648  0.00  0.00    +0.000 NA
ATOM     21  C   UNL     1       6.783   4.670  17.803  0.00  0.00    +0.000 A 
ENDBRANCH  15  16
ENDBRANCH  12  15
ENDBRANCH   4   7
BRANCH   1  22
ATOM     22  N   UNL     1       1.649  10.134  18.373  0.00  0.00    +0.000 N 
ATOM     23  H   UNL     1       1.763  10.353  17.383  0.00  0.00    +0.000 HD
BRANCH  22  24
ATOM     24  S   UNL     1       0.200  10.815  18.933  0.00  0.00    +0.000 S 
ATOM     25  O   UNL     1      -0.011  10.445  20.317  0.00  0.00    +0.000 OA
ATOM     26  O   UNL     1      -0.789  10.510  17.921  0.00  0.00    +0.000 OA
BRANCH  24  30
ATOM     27  C   UNL     1       0.990  15.303  18.725  0.00  0.00    +0.000 A 
ATOM     28  C   UNL     1      -0.303  14.815  18.926  0.00  0.00    +0.000 A 
ATOM     29  C   UNL     1      -0.539  13.445  18.992  0.00  0.00    +0.000 A 
ATOM     30  C   UNL     1       0.525  12.554  18.832  0.00  0.00    +0.000 A 
ATOM     31  C   UNL     1       1.822  13.027  18.615  0.00  0.00    +0.000 A 
ATOM     32  C   UNL     1       2.052  14.407  18.565  0.00  0.00    +0.000 A 
BRANCH  27  34
ATOM     33  C   UNL     1       2.170  17.178  17.896  0.00  0.00    +0.000 C 
ATOM     34  O   UNL     1       1.087  16.665  18.662  0.00  0.00    +0.000 OA
ENDBRANCH  27  34
ENDBRANCH  24  30
ENDBRANCH  22  24
ENDBRANCH   1  22
TORSDOF 8
ENDMDL
