MODEL 1
REMARK VINA RESULT:      -8.4      0.000      0.000
REMARK  Name = 
REMARK  5 active torsions:
REMARK  status: ('A' for Active; 'I' for Inactive)
REMARK    1  A    between atoms: C_1  and  C_2
REMARK    2  A    between atoms: C_2  and  C_3
REMARK    3  A    between atoms: C_2  and  N_4
REMARK    4  A    between atoms: C_6  and  C_7
REMARK    5  A    between atoms: C_11  and  O_12
REMARK                            x       y       z     vdW  Elec       q    Type
REMARK                         _______ _______ _______ _____ _____    ______ ____
ROOT
ATOM      1  N   UNL     1       5.444   4.942  18.537  0.00  0.00    +0.000 N 
ATOM      2  N   UNL     1       4.781   6.086  18.233  0.00  0.00    +0.000 NA
ATOM      3  C   UNL     1       3.651   5.987  18.947  0.00  0.00    +0.000 A 
ATOM      4  C   UNL     1       3.499   4.709  19.548  0.00  0.00    +0.000 A 
ATOM      5  C   UNL     1       2.548   3.984  20.276  0.00  0.00    +0.000 A 
ATOM      6  N   UNL     1       1.270   4.427  20.592  0.00  0.00    +0.000 N 
ATOM      7  N   UNL     1       2.848   2.726  20.661  0.00  0.00    +0.000 NA
ATOM      8  C   UNL     1       4.050   2.219  20.332  0.00  0.00    +0.000 A 
ATOM      9  N   UNL     1       5.033   2.812  19.633  0.00  0.00    +0.000 NA
ATOM     10  C   UNL     1       4.686   4.057  19.259  0.00  0.00    +0.000 A 
ATOM     11  H   UNL     1       0.868   5.063  19.913  0.00  0.00    +0.000 HD
ATOM     12  H   UNL     1       0.681   3.645  20.856  0.00  0.00    +0.000 HD
ENDROOT
BRANCH   3  13
ATOM     13  C   UNL     1       2.756   7.166  19.065  0.00  0.00    +0.000 A 
ATOM     14  C   UNL     1       2.294   7.972  18.050  0.00  0.00    +0.000 A 
ATOM     15  C   UNL     1       1.352   8.875  18.608  0.00  0.00    +0.000 A 
ATOM     16  C   UNL     1       0.505   9.854  18.055  0.00  0.00    +0.000 A 
ATOM     17  C   UNL     1      -0.346  10.556  18.909  0.00  0.00    +0.000 A 
ATOM     18  C   UNL     1      -0.337  10.341  20.282  0.00  0.00    +0.000 A 
ATOM     19  C   UNL     1       0.500   9.375  20.851  0.00  0.00    +0.000 A 
ATOM     20  C   UNL     1       1.314   8.636  19.982  0.00  0.00    +0.000 A 
ATOM     21  N   UNL     1       2.155   7.572  20.228  0.00  0.00    +0.000 N 
ATOM     22  H   UNL     1       2.307   7.134  21.126  0.00  0.00    +0.000 HD
BRANCH  17  23
ATOM     23  O   UNL     1      -1.231  11.471  18.413  0.00  0.00    +0.000 OA
ATOM     24  H   UNL     1      -1.181  11.447  17.443  0.00  0.00    +0.000 HD
ENDBRANCH  17  23
ENDBRANCH   3  13
BRANCH   1  26
ATOM     25  C   UNL     1       7.012   4.636  16.650  0.00  0.00    +0.000 C 
ATOM     26  C   UNL     1       6.842   4.766  18.160  0.00  0.00    +0.000 C 
ATOM     27  C   UNL     1       7.720   5.887  18.721  0.00  0.00    +0.000 C 
ENDBRANCH   1  26
TORSDOF 3
ENDMDL
MODEL 2
REMARK VINA RESULT:      -8.4      1.332      1.496
REMARK  Name = 
REMARK  5 active torsions:
REMARK  status: ('A' for Active; 'I' for Inactive)
REMARK    1  A    between atoms: C_1  and  C_2
REMARK    2  A    between atoms: C_2  and  C_3
REMARK    3  A    between atoms: C_2  and  N_4
REMARK    4  A    between atoms: C_6  and  C_7
REMARK    5  A    between atoms: C_11  and  O_12
REMARK                            x       y       z     vdW  Elec       q    Type
REMARK                         _______ _______ _______ _____ _____    ______ ____
ROOT
ATOM      1  N   UNL     1       4.588   4.558  17.110  0.00  0.00    +0.000 N 
ATOM      2  N   UNL     1       4.116   5.818  17.281  0.00  0.00    +0.000 NA
ATOM      3  C   UNL     1       3.170   5.668  18.219  0.00  0.00    +0.000 A 
ATOM      4  C   UNL     1       2.900   4.304  18.505  0.00  0.00    +0.000 A 
ATOM      5  C   UNL     1       2.003   3.533  19.255  0.00  0.00    +0.000 A 
ATOM      6  N   UNL     1       0.938   4.031  19.993  0.00  0.00    +0.000 N 
ATOM      7  N   UNL     1       2.123   2.189  19.226  0.00  0.00    +0.000 NA
ATOM      8  C   UNL     1       3.101   1.644  18.479  0.00  0.00    +0.000 A 
ATOM      9  N   UNL     1       4.007   2.277  17.716  0.00  0.00    +0.000 NA
ATOM     10  C   UNL     1       3.843   3.611  17.765  0.00  0.00    +0.000 A 
ATOM     11  H   UNL     1       0.533   4.883  19.622  0.00  0.00    +0.000 HD
ATOM     12  H   UNL     1       0.276   3.292  20.201  0.00  0.00    +0.000 HD
ENDROOT
BRANCH   3  13
ATOM     13  C   UNL     1       2.574   6.871  18.854  0.00  0.00    +0.000 A 
ATOM     14  C   UNL     1       2.093   7.998  18.226  0.00  0.00    +0.000 A 
ATOM     15  C   UNL     1       1.483   8.817  19.213  0.00  0.00    +0.000 A 
ATOM     16  C   UNL     1       0.759  10.023  19.158  0.00  0.00    +0.000 A 
ATOM     17  C   UNL     1       0.255  10.551  20.346  0.00  0.00    +0.000 A 
ATOM     18  C   UNL     1       0.492   9.940  21.571  0.00  0.00    +0.000 A 
ATOM     19  C   UNL     1       1.212   8.743  21.648  0.00  0.00    +0.000 A 
ATOM     20  C   UNL     1       1.670   8.189  20.445  0.00  0.00    +0.000 A 
ATOM     21  N   UNL     1       2.310   6.994  20.193  0.00  0.00    +0.000 N 
ATOM     22  H   UNL     1       2.545   6.293  20.882  0.00  0.00    +0.000 HD
BRANCH  17  23
ATOM     23  O   UNL     1      -0.507  11.685  20.337  0.00  0.00    +0.000 OA
ATOM     24  H   UNL     1       0.074  12.443  20.518  0.00  0.00    +0.000 HD
ENDBRANCH  17  23
ENDBRANCH   3  13
BRANCH   1  26
ATOM     25  C   UNL     1       5.795   5.036  15.006  0.00  0.00    +0.000 C 
ATOM     26  C   UNL     1       5.808   4.314  16.349  0.00  0.00    +0.000 C 
ATOM     27  C   UNL     1       7.056   4.675  17.160  0.00  0.00    +0.000 C 
ENDBRANCH   1  26
TORSDOF 3
ENDMDL
MODEL 3
REMARK VINA RESULT:      -8.1      1.713      2.113
REMARK  Name = 
REMARK  5 active torsions:
REMARK  status: ('A' for Active; 'I' for Inactive)
REMARK    1  A    between atoms: C_1  and  C_2
REMARK    2  A    between atoms: C_2  and  C_3
REMARK    3  A    between atoms: C_2  and  N_4
REMARK    4  A    between atoms: C_6  and  C_7
REMARK    5  A    between atoms: C_11  and  O_12
REMARK                            x       y       z     vdW  Elec       q    Type
REMARK                         _______ _______ _______ _____ _____    ______ ____
ROOT
ATOM      1  N   UNL     1       4.500   4.934  17.501  0.00  0.00    +0.000 N 
ATOM      2  N   UNL     1       3.917   6.133  17.756  0.00  0.00    +0.000 NA
ATOM      3  C   UNL     1       2.928   5.821  18.606  0.00  0.00    +0.000 A 
ATOM      4  C   UNL     1       2.751   4.418  18.741  0.00  0.00    +0.000 A 
ATOM      5  C   UNL     1       1.874   3.512  19.349  0.00  0.00    +0.000 A 
ATOM      6  N   UNL     1       0.726   3.854  20.053  0.00  0.00    +0.000 N 
ATOM      7  N   UNL     1       2.104   2.190  19.203  0.00  0.00    +0.000 NA
ATOM      8  C   UNL     1       3.168   1.796  18.481  0.00  0.00    +0.000 A 
ATOM      9  N   UNL     1       4.068   2.568  17.847  0.00  0.00    +0.000 NA
ATOM     10  C   UNL     1       3.793   3.874  18.010  0.00  0.00    +0.000 A 
ATOM     11  H   UNL     1       0.279   4.706  19.735  0.00  0.00    +0.000 HD
ATOM     12  H   UNL     1       0.115   3.050  20.142  0.00  0.00    +0.000 HD
ENDROOT
BRANCH   3  13
ATOM     13  C   UNL     1       2.197   6.907  19.306  0.00  0.00    +0.000 A 
ATOM     14  C   UNL     1       1.765   6.919  20.613  0.00  0.00    +0.000 A 
ATOM     15  C   UNL     1       1.253   8.214  20.889  0.00  0.00    +0.000 A 
ATOM     16  C   UNL     1       0.763   8.834  22.054  0.00  0.00    +0.000 A 
ATOM     17  C   UNL     1       0.364  10.168  21.980  0.00  0.00    +0.000 A 
ATOM     18  C   UNL     1       0.397  10.871  20.782  0.00  0.00    +0.000 A 
ATOM     19  C   UNL     1       0.876  10.272  19.612  0.00  0.00    +0.000 A 
ATOM     20  C   UNL     1       1.326   8.949  19.704  0.00  0.00    +0.000 A 
ATOM     21  N   UNL     1       1.931   8.139  18.767  0.00  0.00    +0.000 N 
ATOM     22  H   UNL     1       2.166   8.404  17.820  0.00  0.00    +0.000 HD
BRANCH  17  23
ATOM     23  O   UNL     1      -0.059  10.831  23.097  0.00  0.00    +0.000 OA
ATOM     24  H   UNL     1      -0.486  10.190  23.688  0.00  0.00    +0.000 HD
ENDBRANCH  17  23
ENDBRANCH   3  13
BRANCH   1  26
ATOM     25  C   UNL     1       5.608   4.730  15.302  0.00  0.00    +0.000 C 
ATOM     26  C   UNL     1       5.782   4.858  16.811  0.00  0.00    +0.000 C 
ATOM     27  C   UNL     1       6.681   6.045  17.166  0.00  0.00    +0.000 C 
ENDBRANCH   1  26
TORSDOF 3
ENDMDL
MODEL 4
REMARK VINA RESULT:      -7.9      0.791      1.343
REMARK  Name = 
REMARK  5 active torsions:
REMARK  status: ('A' for Active; 'I' for Inactive)
REMARK    1  A    between atoms: C_1  and  C_2
REMARK    2  A    between atoms: C_2  and  C_3
REMARK    3  A    between atoms: C_2  and  N_4
REMARK    4  A    between atoms: C_6  and  C_7
REMARK    5  A    between atoms: C_11  and  O_12
REMARK                            x       y       z     vdW  Elec       q    Type
REMARK                         _______ _______ _______ _____ _____    ______ ____
ROOT
ATOM      1  N   UNL     1       5.393   4.946  18.522  0.00  0.00    +0.000 N 
ATOM      2  N   UNL     1       4.671   6.061  18.243  0.00  0.00    +0.000 NA
ATOM      3  C   UNL     1       3.571   5.912  18.993  0.00  0.00    +0.000 A 
ATOM      4  C   UNL     1       3.494   4.628  19.595  0.00  0.00    +0.000 A 
ATOM      5  C   UNL     1       2.599   3.861  20.352  0.00  0.00    +0.000 A 
ATOM      6  N   UNL     1       1.315   4.247  20.711  0.00  0.00    +0.000 N 
ATOM      7  N   UNL     1       2.967   2.617  20.724  0.00  0.00    +0.000 NA
ATOM      8  C   UNL     1       4.178   2.163  20.354  0.00  0.00    +0.000 A 
ATOM      9  N   UNL     1       5.111   2.800  19.625  0.00  0.00    +0.000 NA
ATOM     10  C   UNL     1       4.698   4.028  19.267  0.00  0.00    +0.000 A 
ATOM     11  H   UNL     1       0.863   4.866  20.047  0.00  0.00    +0.000 HD
ATOM     12  H   UNL     1       0.770   3.441  20.992  0.00  0.00    +0.000 HD
ENDROOT
BRANCH   3  13
ATOM     13  C   UNL     1       2.630   7.050  19.144  0.00  0.00    +0.000 A 
ATOM     14  C   UNL     1       1.992   7.464  20.291  0.00  0.00    +0.000 A 
ATOM     15  C   UNL     1       1.314   8.676  19.997  0.00  0.00    +0.000 A 
ATOM     16  C   UNL     1       0.581   9.590  20.779  0.00  0.00    +0.000 A 
ATOM     17  C   UNL     1       0.066  10.729  20.161  0.00  0.00    +0.000 A 
ATOM     18  C   UNL     1       0.222  10.951  18.799  0.00  0.00    +0.000 A 
ATOM     19  C   UNL     1       0.944  10.054  18.004  0.00  0.00    +0.000 A 
ATOM     20  C   UNL     1       1.504   8.938  18.640  0.00  0.00    +0.000 A 
ATOM     21  N   UNL     1       2.332   7.949  18.153  0.00  0.00    +0.000 N 
ATOM     22  H   UNL     1       2.689   7.889  17.209  0.00  0.00    +0.000 HD
BRANCH  17  23
ATOM     23  O   UNL     1      -0.597  11.676  20.889  0.00  0.00    +0.000 OA
ATOM     24  H   UNL     1      -1.197  12.153  20.292  0.00  0.00    +0.000 HD
ENDBRANCH  17  23
ENDBRANCH   3  13
BRANCH   1  26
ATOM     25  C   UNL     1       6.908   4.668  16.588  0.00  0.00    +0.000 C 
ATOM     26  C   UNL     1       6.784   4.832  18.099  0.00  0.00    +0.000 C 
ATOM     27  C   UNL     1       7.621   6.011  18.599  0.00  0.00    +0.000 C 
ENDBRANCH   1  26
TORSDOF 3
ENDMDL
MODEL 5
REMARK VINA RESULT:      -7.7      0.647      1.012
REMARK  Name = 
REMARK  5 active torsions:
REMARK  status: ('A' for Active; 'I' for Inactive)
REMARK    1  A    between atoms: C_1  and  C_2
REMARK    2  A    between atoms: C_2  and  C_3
REMARK    3  A    between atoms: C_2  and  N_4
REMARK    4  A    between atoms: C_6  and  C_7
REMARK    5  A    between atoms: C_11  and  O_12
REMARK                            x       y       z     vdW  Elec       q    Type
REMARK                         _______ _______ _______ _____ _____    ______ ____
ROOT
ATOM      1  N   UNL     1       5.088   5.278  17.750  0.00  0.00    +0.000 N 
ATOM      2  N   UNL     1       4.331   6.397  17.622  0.00  0.00    +0.000 NA
ATOM      3  C   UNL     1       3.425   6.270  18.602  0.00  0.00    +0.000 A 
ATOM      4  C   UNL     1       3.475   4.995  19.226  0.00  0.00    +0.000 A 
ATOM      5  C   UNL     1       2.766   4.249  20.176  0.00  0.00    +0.000 A 
ATOM      6  N   UNL     1       1.597   4.655  20.807  0.00  0.00    +0.000 N 
ATOM      7  N   UNL     1       3.197   3.006  20.476  0.00  0.00    +0.000 NA
ATOM      8  C   UNL     1       4.291   2.534  19.852  0.00  0.00    +0.000 A 
ATOM      9  N   UNL     1       5.042   3.150  18.922  0.00  0.00    +0.000 NA
ATOM     10  C   UNL     1       4.570   4.378  18.646  0.00  0.00    +0.000 A 
ATOM     11  H   UNL     1       1.014   5.270  20.252  0.00  0.00    +0.000 HD
ATOM     12  H   UNL     1       1.122   3.858  21.216  0.00  0.00    +0.000 HD
ENDROOT
BRANCH   3  13
ATOM     13  C   UNL     1       2.551   7.421  18.941  0.00  0.00    +0.000 A 
ATOM     14  C   UNL     1       1.967   8.315  18.072  0.00  0.00    +0.000 A 
ATOM     15  C   UNL     1       1.100   9.149  18.825  0.00  0.00    +0.000 A 
ATOM     16  C   UNL     1       0.191  10.166  18.476  0.00  0.00    +0.000 A 
ATOM     17  C   UNL     1      -0.549  10.773  19.491  0.00  0.00    +0.000 A 
ATOM     18  C   UNL     1      -0.373  10.428  20.825  0.00  0.00    +0.000 A 
ATOM     19  C   UNL     1       0.529   9.423  21.192  0.00  0.00    +0.000 A 
ATOM     20  C   UNL     1       1.230   8.780  20.164  0.00  0.00    +0.000 A 
ATOM     21  N   UNL     1       2.096   7.708  20.202  0.00  0.00    +0.000 N 
ATOM     22  H   UNL     1       2.357   7.188  21.029  0.00  0.00    +0.000 HD
BRANCH  17  23
ATOM     23  O   UNL     1      -1.489  11.720  19.196  0.00  0.00    +0.000 OA
ATOM     24  H   UNL     1      -2.231  11.614  19.815  0.00  0.00    +0.000 HD
ENDBRANCH  17  23
ENDBRANCH   3  13
BRANCH   1  26
ATOM     25  C   UNL     1       7.513   4.852  17.970  0.00  0.00    +0.000 C 
ATOM     26  C   UNL     1       6.348   5.142  17.029  0.00  0.00    +0.000 C 
ATOM     27  C   UNL     1       6.252   4.086  15.925  0.00  0.00    +0.000 C 
ENDBRANCH   1  26
TORSDOF 3
ENDMDL
MODEL 6
REMARK VINA RESULT:      -7.6      1.668      3.511
REMARK  Name = 
REMARK  5 active torsions:
REMARK  status: ('A' for Active; 'I' for Inactive)
REMARK    1  A    between atoms: C_1  and  C_2
REMARK    2  A    between atoms: C_2  and  C_3
REMARK    3  A    between atoms: C_2  and  N_4
REMARK    4  A    between atoms: C_6  and  C_7
REMARK    5  A    between atoms: C_11  and  O_12
REMARK                            x       y       z     vdW  Elec       q    Type
REMARK                         _______ _______ _______ _____ _____    ______ ____
ROOT
ATOM      1  N   UNL     1       2.520   3.839  19.437  0.00  0.00    +0.000 N 
ATOM      2  N   UNL     1       2.090   4.974  20.044  0.00  0.00    +0.000 NA
ATOM      3  C   UNL     1       2.590   5.947  19.268  0.00  0.00    +0.000 A 
ATOM      4  C   UNL     1       3.491   5.450  18.289  0.00  0.00    +0.000 A 
ATOM      5  C   UNL     1       4.372   5.934  17.314  0.00  0.00    +0.000 A 
ATOM      6  N   UNL     1       4.649   7.274  17.076  0.00  0.00    +0.000 N 
ATOM      7  N   UNL     1       5.069   5.047  16.573  0.00  0.00    +0.000 NA
ATOM      8  C   UNL     1       4.887   3.734  16.799  0.00  0.00    +0.000 A 
ATOM      9  N   UNL     1       4.082   3.155  17.707  0.00  0.00    +0.000 NA
ATOM     10  C   UNL     1       3.419   4.075  18.429  0.00  0.00    +0.000 A 
ATOM     11  H   UNL     1       4.578   7.868  17.894  0.00  0.00    +0.000 HD
ATOM     12  H   UNL     1       5.508   7.368  16.545  0.00  0.00    +0.000 HD
ENDROOT
BRANCH   3  13
ATOM     13  C   UNL     1       2.139   7.347  19.471  0.00  0.00    +0.000 A 
ATOM     14  C   UNL     1       1.922   8.305  18.507  0.00  0.00    +0.000 A 
ATOM     15  C   UNL     1       1.357   9.441  19.145  0.00  0.00    +0.000 A 
ATOM     16  C   UNL     1       0.855  10.668  18.671  0.00  0.00    +0.000 A 
ATOM     17  C   UNL     1       0.323  11.569  19.592  0.00  0.00    +0.000 A 
ATOM     18  C   UNL     1       0.323  11.300  20.955  0.00  0.00    +0.000 A 
ATOM     19  C   UNL     1       0.821  10.089  21.447  0.00  0.00    +0.000 A 
ATOM     20  C   UNL     1       1.305   9.165  20.512  0.00  0.00    +0.000 A 
ATOM     21  N   UNL     1       1.759   7.874  20.678  0.00  0.00    +0.000 N 
ATOM     22  H   UNL     1       1.799   7.369  21.553  0.00  0.00    +0.000 HD
BRANCH  17  23
ATOM     23  O   UNL     1      -0.234  12.745  19.175  0.00  0.00    +0.000 OA
ATOM     24  H   UNL     1      -1.188  12.605  19.059  0.00  0.00    +0.000 HD
ENDBRANCH  17  23
ENDBRANCH   3  13
BRANCH   1  26
ATOM     25  C   UNL     1       1.622   2.489  21.304  0.00  0.00    +0.000 C 
ATOM     26  C   UNL     1       1.986   2.538  19.824  0.00  0.00    +0.000 C 
ATOM     27  C   UNL     1       0.797   2.137  18.948  0.00  0.00    +0.000 C 
ENDBRANCH   1  26
TORSDOF 3
ENDMDL
MODEL 7
REMARK VINA RESULT:      -7.5      3.412      7.449
REMARK  Name = 
REMARK  5 active torsions:
REMARK  status: ('A' for Active; 'I' for Inactive)
REMARK    1  A    between atoms: C_1  and  C_2
REMARK    2  A    between atoms: C_2  and  C_3
REMARK    3  A    between atoms: C_2  and  N_4
REMARK    4  A    between atoms: C_6  and  C_7
REMARK    5  A    between atoms: C_11  and  O_12
REMARK                            x       y       z     vdW  Elec       q    Type
REMARK                         _______ _______ _______ _____ _____    ______ ____
ROOT
ATOM      1  N   UNL     1      -0.598  10.377  19.047  0.00  0.00    +0.000 N 
ATOM      2  N   UNL     1       0.378   9.648  18.450  0.00  0.00    +0.000 NA
ATOM      3  C   UNL     1       1.032   9.100  19.484  0.00  0.00    +0.000 A 
ATOM      4  C   UNL     1       0.606   9.624  20.733  0.00  0.00    +0.000 A 
ATOM      5  C   UNL     1       0.952   9.551  22.089  0.00  0.00    +0.000 A 
ATOM      6  N   UNL     1       2.032   8.848  22.606  0.00  0.00    +0.000 N 
ATOM      7  N   UNL     1       0.230  10.262  22.980  0.00  0.00    +0.000 NA
ATOM      8  C   UNL     1      -0.793  11.012  22.531  0.00  0.00    +0.000 A 
ATOM      9  N   UNL     1      -1.209  11.167  21.263  0.00  0.00    +0.000 NA
ATOM     10  C   UNL     1      -0.456  10.451  20.409  0.00  0.00    +0.000 A 
ATOM     11  H   UNL     1       2.824   8.776  21.977  0.00  0.00    +0.000 HD
ATOM     12  H   UNL     1       2.248   9.171  23.542  0.00  0.00    +0.000 HD
ENDROOT
BRANCH   3  13
ATOM     13  C   UNL     1       2.035   8.035  19.232  0.00  0.00    +0.000 A 
ATOM     14  C   UNL     1       2.291   6.925  20.005  0.00  0.00    +0.000 A 
ATOM     15  C   UNL     1       3.220   6.113  19.302  0.00  0.00    +0.000 A 
ATOM     16  C   UNL     1       3.774   4.842  19.548  0.00  0.00    +0.000 A 
ATOM     17  C   UNL     1       4.654   4.307  18.607  0.00  0.00    +0.000 A 
ATOM     18  C   UNL     1       5.022   5.017  17.471  0.00  0.00    +0.000 A 
ATOM     19  C   UNL     1       4.486   6.282  17.211  0.00  0.00    +0.000 A 
ATOM     20  C   UNL     1       3.562   6.792  18.132  0.00  0.00    +0.000 A 
ATOM     21  N   UNL     1       2.805   7.943  18.102  0.00  0.00    +0.000 N 
ATOM     22  H   UNL     1       2.795   8.625  17.354  0.00  0.00    +0.000 HD
BRANCH  17  23
ATOM     23  O   UNL     1       5.168   3.052  18.769  0.00  0.00    +0.000 OA
ATOM     24  H   UNL     1       5.926   3.110  19.374  0.00  0.00    +0.000 HD
ENDBRANCH  17  23
ENDBRANCH   3  13
BRANCH   1  26
ATOM     25  C   UNL     1      -1.420  12.384  17.861  0.00  0.00    +0.000 C 
ATOM     26  C   UNL     1      -1.694  10.940  18.267  0.00  0.00    +0.000 C 
ATOM     27  C   UNL     1      -2.018  10.073  17.048  0.00  0.00    +0.000 C 
ENDBRANCH   1  26
TORSDOF 3
ENDMDL
MODEL 8
REMARK VINA RESULT:      -7.5      1.764      3.481
REMARK  Name = 
REMARK  5 active torsions:
REMARK  status: ('A' for Active; 'I' for Inactive)
REMARK    1  A    between atoms: C_1  and  C_2
REMARK    2  A    between atoms: C_2  and  C_3
REMARK    3  A    between atoms: C_2  and  N_4
REMARK    4  A    between atoms: C_6  and  C_7
REMARK    5  A    between atoms: C_11  and  O_12
REMARK                            x       y       z     vdW  Elec       q    Type
REMARK                         _______ _______ _______ _____ _____    ______ ____
ROOT
ATOM      1  N   UNL     1       3.159   3.632  17.998  0.00  0.00    +0.000 N 
ATOM      2  N   UNL     1       2.546   4.567  18.767  0.00  0.00    +0.000 NA
ATOM      3  C   UNL     1       3.121   5.714  18.375  0.00  0.00    +0.000 A 
ATOM      4  C   UNL     1       4.225   5.499  17.508  0.00  0.00    +0.000 A 
ATOM      5  C   UNL     1       5.244   6.230  16.884  0.00  0.00    +0.000 A 
ATOM      6  N   UNL     1       5.473   7.589  17.048  0.00  0.00    +0.000 N 
ATOM      7  N   UNL     1       6.128   5.573  16.104  0.00  0.00    +0.000 NA
ATOM      8  C   UNL     1       5.993   4.242  15.955  0.00  0.00    +0.000 A 
ATOM      9  N   UNL     1       5.068   3.439  16.507  0.00  0.00    +0.000 NA
ATOM     10  C   UNL     1       4.218   4.132  17.285  0.00  0.00    +0.000 A 
ATOM     11  H   UNL     1       5.206   7.952  17.956  0.00  0.00    +0.000 HD
ATOM     12  H   UNL     1       6.409   7.829  16.743  0.00  0.00    +0.000 HD
ENDROOT
BRANCH   3  13
ATOM     13  C   UNL     1       2.548   7.008  18.823  0.00  0.00    +0.000 A 
ATOM     14  C   UNL     1       2.217   8.093  18.043  0.00  0.00    +0.000 A 
ATOM     15  C   UNL     1       1.565   9.042  18.875  0.00  0.00    +0.000 A 
ATOM     16  C   UNL     1       0.939  10.278  18.627  0.00  0.00    +0.000 A 
ATOM     17  C   UNL     1       0.351  10.952  19.697  0.00  0.00    +0.000 A 
ATOM     18  C   UNL     1       0.414  10.454  20.992  0.00  0.00    +0.000 A 
ATOM     19  C   UNL     1       1.036   9.230  21.260  0.00  0.00    +0.000 A 
ATOM     20  C   UNL     1       1.577   8.531  20.174  0.00  0.00    +0.000 A 
ATOM     21  N   UNL     1       2.154   7.281  20.107  0.00  0.00    +0.000 N 
ATOM     22  H   UNL     1       2.265   6.639  20.881  0.00  0.00    +0.000 HD
BRANCH  17  23
ATOM     23  O   UNL     1      -0.324  12.123  19.496  0.00  0.00    +0.000 OA
ATOM     24  H   UNL     1      -0.542  12.500  20.365  0.00  0.00    +0.000 HD
ENDBRANCH  17  23
ENDBRANCH   3  13
BRANCH   1  26
ATOM     25  C   UNL     1       3.596   1.273  18.593  0.00  0.00    +0.000 C 
ATOM     26  C   UNL     1       2.648   2.268  17.931  0.00  0.00    +0.000 C 
ATOM     27  C   UNL     1       1.239   2.167  18.522  0.00  0.00    +0.000 C 
ENDBRANCH   1  26
TORSDOF 3
ENDMDL
MODEL 9
REMARK VINA RESULT:      -7.2      3.100      7.337
REMARK  Name = 
REMARK  5 active torsions:
REMARK  status: ('A' for Active; 'I' for Inactive)
REMARK    1  A    between atoms: C_1  and  C_2
REMARK    2  A    between atoms: C_2  and  C_3
REMARK    3  A    between atoms: C_2  and  N_4
REMARK    4  A    between atoms: C_6  and  C_7
REMARK    5  A    between atoms: C_11  and  O_12
REMARK                            x       y       z     vdW  Elec       q    Type
REMARK                         _______ _______ _______ _____ _____    ______ ____
ROOT
ATOM      1  N   UNL     1      -0.566  10.574  19.107  0.00  0.00    +0.000 N 
ATOM      2  N   UNL     1       0.362   9.861  18.421  0.00  0.00    +0.000 NA
ATOM      3  C   UNL     1       1.017   9.199  19.386  0.00  0.00    +0.000 A 
ATOM      4  C   UNL     1       0.648   9.631  20.687  0.00  0.00    +0.000 A 
ATOM      5  C   UNL     1       1.025   9.427  22.021  0.00  0.00    +0.000 A 
ATOM      6  N   UNL     1       2.087   8.639  22.444  0.00  0.00    +0.000 N 
ATOM      7  N   UNL     1       0.357  10.088  22.990  0.00  0.00    +0.000 NA
ATOM      8  C   UNL     1      -0.644  10.914  22.637  0.00  0.00    +0.000 A 
ATOM      9  N   UNL     1      -1.086  11.194  21.399  0.00  0.00    +0.000 NA
ATOM     10  C   UNL     1      -0.386  10.525  20.466  0.00  0.00    +0.000 A 
ATOM     11  H   UNL     1       2.858   8.589  21.788  0.00  0.00    +0.000 HD
ATOM     12  H   UNL     1       2.341   8.872  23.397  0.00  0.00    +0.000 HD
ENDROOT
BRANCH   3  13
ATOM     13  C   UNL     1       1.968   8.120  19.015  0.00  0.00    +0.000 A 
ATOM     14  C   UNL     1       2.742   8.040  17.879  0.00  0.00    +0.000 A 
ATOM     15  C   UNL     1       3.603   6.920  18.020  0.00  0.00    +0.000 A 
ATOM     16  C   UNL     1       4.652   6.401  17.238  0.00  0.00    +0.000 A 
ATOM     17  C   UNL     1       5.332   5.275  17.701  0.00  0.00    +0.000 A 
ATOM     18  C   UNL     1       4.966   4.639  18.881  0.00  0.00    +0.000 A 
ATOM     19  C   UNL     1       3.924   5.136  19.670  0.00  0.00    +0.000 A 
ATOM     20  C   UNL     1       3.279   6.299  19.227  0.00  0.00    +0.000 A 
ATOM     21  N   UNL     1       2.303   7.066  19.824  0.00  0.00    +0.000 N 
ATOM     22  H   UNL     1       1.893   6.899  20.733  0.00  0.00    +0.000 HD
BRANCH  17  23
ATOM     23  O   UNL     1       6.398   4.772  17.010  0.00  0.00    +0.000 OA
ATOM     24  H   UNL     1       6.382   5.144  16.113  0.00  0.00    +0.000 HD
ENDBRANCH  17  23
ENDBRANCH   3  13
BRANCH   1  26
ATOM     25  C   UNL     1      -1.210  12.565  17.791  0.00  0.00    +0.000 C 
ATOM     26  C   UNL     1      -1.658  11.246  18.411  0.00  0.00    +0.000 C 
ATOM     27  C   UNL     1      -2.301  10.333  17.364  0.00  0.00    +0.000 C 
ENDBRANCH   1  26
TORSDOF 3
ENDMDL
