MODEL 1
REMARK VINA RESULT:      -7.9      0.000      0.000
REMARK  Name = 
REMARK  6 active torsions:
REMARK  status: ('A' for Active; 'I' for Inactive)
REMARK    1  A    between atoms: N_3  and  C_4
REMARK    2  A    between atoms: C_4  and  C_5
REMARK    3  A    between atoms: N_17  and  C_18
REMARK    4  A    between atoms: C_18  and  C_19
REMARK    5  A    between atoms: C_19  and  O_20
REMARK    6  A    between atoms: C_19  and  C_21
REMARK                            x       y       z     vdW  Elec       q    Type
REMARK                         _______ _______ _______ _____ _____    ______ ____
ROOT
ATOM      1  N   UNL     1       7.598   3.963  17.819  0.00  0.00    +0.000 NA
ATOM      2  C   UNL     1       6.551   4.712  17.772  0.00  0.00    +0.000 A 
ATOM      3  N   UNL     1       6.232   5.711  16.860  0.00  0.00    +0.000 N 
ATOM      4  C   UNL     1       5.017   6.301  17.242  0.00  0.00    +0.000 A 
ATOM      5  C   UNL     1       4.318   7.361  16.703  0.00  0.00    +0.000 A 
ATOM      6  C   UNL     1       3.140   7.750  17.348  0.00  0.00    +0.000 A 
ATOM      7  C   UNL     1       2.693   7.079  18.501  0.00  0.00    +0.000 A 
ATOM      8  C   UNL     1       3.409   6.002  19.036  0.00  0.00    +0.000 A 
ATOM      9  C   UNL     1       4.572   5.625  18.401  0.00  0.00    +0.000 A 
ATOM     10  N   UNL     1       5.509   4.642  18.698  0.00  0.00    +0.000 N 
ATOM     11  H   UNL     1       8.244   4.253  17.082  0.00  0.00    +0.000 HD
ENDROOT
BRANCH   3  12
ATOM     12  C   UNL     1       6.950   6.087  15.663  0.00  0.00    +0.000 C 
BRANCH  12  13
ATOM     13  C   UNL     1       6.713   5.169  14.479  0.00  0.00    +0.000 A 
ATOM     14  C   UNL     1       7.579   5.096  13.378  0.00  0.00    +0.000 A 
ATOM     15  C   UNL     1       7.280   4.278  12.287  0.00  0.00    +0.000 A 
ATOM     16  C   UNL     1       6.123   3.504  12.288  0.00  0.00    +0.000 A 
ATOM     17  C   UNL     1       5.273   3.531  13.390  0.00  0.00    +0.000 A 
ATOM     18  C   UNL     1       5.568   4.354  14.480  0.00  0.00    +0.000 A 
ENDBRANCH  12  13
ENDBRANCH   3  12
BRANCH  10  19
ATOM     19  C   UNL     1       5.486   3.751  19.844  0.00  0.00    +0.000 C 
BRANCH  19  20
ATOM     20  C   UNL     1       4.722   2.440  19.532  0.00  0.00    +0.000 C 
BRANCH  20  21
ATOM     21  C   UNL     1       3.214   2.534  19.688  0.00  0.00    +0.000 A 
ATOM     22  C   UNL     1       2.667   2.901  20.929  0.00  0.00    +0.000 A 
ATOM     23  C   UNL     1       1.285   3.038  21.093  0.00  0.00    +0.000 A 
ATOM     24  C   UNL     1       0.429   2.818  20.017  0.00  0.00    +0.000 A 
ATOM     25  C   UNL     1       0.955   2.479  18.774  0.00  0.00    +0.000 A 
ATOM     26  C   UNL     1       2.336   2.348  18.608  0.00  0.00    +0.000 A 
ENDBRANCH  20  21
BRANCH  20  27
ATOM     27  O   UNL     1       5.131   1.347  20.363  0.00  0.00    +0.000 OA
ATOM     28  H   UNL     1       4.320   0.926  20.715  0.00  0.00    +0.000 HD
ENDBRANCH  20  27
ENDBRANCH  19  20
ENDBRANCH  10  19
TORSDOF 6
ENDMDL
MODEL 2
REMARK VINA RESULT:      -7.9      4.997      7.663
REMARK  Name = 
REMARK  6 active torsions:
REMARK  status: ('A' for Active; 'I' for Inactive)
REMARK    1  A    between atoms: N_3  and  C_4
REMARK    2  A    between atoms: C_4  and  C_5
REMARK    3  A    between atoms: N_17  and  C_18
REMARK    4  A    between atoms: C_18  and  C_19
REMARK    5  A    between atoms: C_19  and  O_20
REMARK    6  A    between atoms: C_19  and  C_21
REMARK                            x       y       z     vdW  Elec       q    Type
REMARK                         _______ _______ _______ _____ _____    ______ ____
ROOT
ATOM      1  N   UNL     1       1.899   9.207  17.531  0.00  0.00    +0.000 NA
ATOM      2  C   UNL     1       1.359   9.368  18.689  0.00  0.00    +0.000 A 
ATOM      3  N   UNL     1       0.464  10.346  19.107  0.00  0.00    +0.000 N 
ATOM      4  C   UNL     1       0.196  10.162  20.473  0.00  0.00    +0.000 A 
ATOM      5  C   UNL     1      -0.571  10.897  21.352  0.00  0.00    +0.000 A 
ATOM      6  C   UNL     1      -0.604  10.478  22.685  0.00  0.00    +0.000 A 
ATOM      7  C   UNL     1       0.120   9.347  23.104  0.00  0.00    +0.000 A 
ATOM      8  C   UNL     1       0.893   8.606  22.202  0.00  0.00    +0.000 A 
ATOM      9  C   UNL     1       0.927   9.026  20.890  0.00  0.00    +0.000 A 
ATOM     10  N   UNL     1       1.613   8.540  19.784  0.00  0.00    +0.000 N 
ATOM     11  H   UNL     1       1.613   9.978  16.924  0.00  0.00    +0.000 HD
ENDROOT
BRANCH   3  12
ATOM     12  C   UNL     1      -0.175  11.369  18.309  0.00  0.00    +0.000 C 
BRANCH  12  13
ATOM     13  C   UNL     1      -1.604  11.051  17.915  0.00  0.00    +0.000 A 
ATOM     14  C   UNL     1      -1.942  10.044  16.998  0.00  0.00    +0.000 A 
ATOM     15  C   UNL     1      -3.271   9.834  16.624  0.00  0.00    +0.000 A 
ATOM     16  C   UNL     1      -4.285  10.612  17.177  0.00  0.00    +0.000 A 
ATOM     17  C   UNL     1      -3.973  11.587  18.120  0.00  0.00    +0.000 A 
ATOM     18  C   UNL     1      -2.643  11.803  18.491  0.00  0.00    +0.000 A 
ENDBRANCH  12  13
ENDBRANCH   3  12
BRANCH  10  19
ATOM     19  C   UNL     1       2.539   7.421  19.769  0.00  0.00    +0.000 C 
BRANCH  19  20
ATOM     20  C   UNL     1       2.042   6.281  18.845  0.00  0.00    +0.000 C 
BRANCH  20  21
ATOM     21  C   UNL     1       1.886   4.935  19.531  0.00  0.00    +0.000 A 
ATOM     22  C   UNL     1       2.205   4.809  20.893  0.00  0.00    +0.000 A 
ATOM     23  C   UNL     1       2.033   3.594  21.563  0.00  0.00    +0.000 A 
ATOM     24  C   UNL     1       1.531   2.488  20.883  0.00  0.00    +0.000 A 
ATOM     25  C   UNL     1       1.185   2.600  19.541  0.00  0.00    +0.000 A 
ATOM     26  C   UNL     1       1.351   3.816  18.872  0.00  0.00    +0.000 A 
ENDBRANCH  20  21
BRANCH  20  27
ATOM     27  O   UNL     1       2.910   6.051  17.729  0.00  0.00    +0.000 OA
ATOM     28  H   UNL     1       2.893   5.091  17.537  0.00  0.00    +0.000 HD
ENDBRANCH  20  27
ENDBRANCH  19  20
ENDBRANCH  10  19
TORSDOF 6
ENDMDL
MODEL 3
REMARK VINA RESULT:      -7.9      5.147      7.863
REMARK  Name = 
REMARK  6 active torsions:
REMARK  status: ('A' for Active; 'I' for Inactive)
REMARK    1  A    between atoms: N_3  and  C_4
REMARK    2  A    between atoms: C_4  and  C_5
REMARK    3  A    between atoms: N_17  and  C_18
REMARK    4  A    between atoms: C_18  and  C_19
REMARK    5  A    between atoms: C_19  and  O_20
REMARK    6  A    between atoms: C_19  and  C_21
REMARK                            x       y       z     vdW  Elec       q    Type
REMARK                         _______ _______ _______ _____ _____    ______ ____
ROOT
ATOM      1  N   UNL     1       1.782   9.520  17.576  0.00  0.00    +0.000 NA
ATOM      2  C   UNL     1       1.243   9.627  18.741  0.00  0.00    +0.000 A 
ATOM      3  N   UNL     1       0.326  10.568  19.195  0.00  0.00    +0.000 N 
ATOM      4  C   UNL     1       0.067  10.328  20.554  0.00  0.00    +0.000 A 
ATOM      5  C   UNL     1      -0.714  11.013  21.461  0.00  0.00    +0.000 A 
ATOM      6  C   UNL     1      -0.733  10.546  22.778  0.00  0.00    +0.000 A 
ATOM      7  C   UNL     1       0.020   9.420  23.155  0.00  0.00    +0.000 A 
ATOM      8  C   UNL     1       0.807   8.730  22.225  0.00  0.00    +0.000 A 
ATOM      9  C   UNL     1       0.827   9.197  20.929  0.00  0.00    +0.000 A 
ATOM     10  N   UNL     1       1.520   8.767  19.804  0.00  0.00    +0.000 N 
ATOM     11  H   UNL     1       1.476  10.305  16.998  0.00  0.00    +0.000 HD
ENDROOT
BRANCH   3  12
ATOM     12  C   UNL     1      -0.340  11.603  18.436  0.00  0.00    +0.000 C 
BRANCH  12  13
ATOM     13  C   UNL     1      -1.719  11.219  17.935  0.00  0.00    +0.000 A 
ATOM     14  C   UNL     1      -1.932  10.281  16.913  0.00  0.00    +0.000 A 
ATOM     15  C   UNL     1      -3.220  10.011  16.448  0.00  0.00    +0.000 A 
ATOM     16  C   UNL     1      -4.318  10.657  17.011  0.00  0.00    +0.000 A 
ATOM     17  C   UNL     1      -4.130  11.559  18.055  0.00  0.00    +0.000 A 
ATOM     18  C   UNL     1      -2.841  11.835  18.517  0.00  0.00    +0.000 A 
ENDBRANCH  12  13
ENDBRANCH   3  12
BRANCH  10  19
ATOM     19  C   UNL     1       2.473   7.672  19.747  0.00  0.00    +0.000 C 
BRANCH  19  20
ATOM     20  C   UNL     1       2.171   6.713  18.568  0.00  0.00    +0.000 C 
BRANCH  20  21
ATOM     21  C   UNL     1       1.793   5.302  18.982  0.00  0.00    +0.000 A 
ATOM     22  C   UNL     1       1.747   4.284  18.014  0.00  0.00    +0.000 A 
ATOM     23  C   UNL     1       1.443   2.967  18.370  0.00  0.00    +0.000 A 
ATOM     24  C   UNL     1       1.189   2.644  19.700  0.00  0.00    +0.000 A 
ATOM     25  C   UNL     1       1.256   3.633  20.676  0.00  0.00    +0.000 A 
ATOM     26  C   UNL     1       1.566   4.949  20.322  0.00  0.00    +0.000 A 
ENDBRANCH  20  21
BRANCH  20  27
ATOM     27  O   UNL     1       3.277   6.572  17.669  0.00  0.00    +0.000 OA
ATOM     28  H   UNL     1       3.500   7.465  17.335  0.00  0.00    +0.000 HD
ENDBRANCH  20  27
ENDBRANCH  19  20
ENDBRANCH  10  19
TORSDOF 6
ENDMDL
MODEL 4
REMARK VINA RESULT:      -7.8      5.125      7.829
REMARK  Name = 
REMARK  6 active torsions:
REMARK  status: ('A' for Active; 'I' for Inactive)
REMARK    1  A    between atoms: N_3  and  C_4
REMARK    2  A    between atoms: C_4  and  C_5
REMARK    3  A    between atoms: N_17  and  C_18
REMARK    4  A    between atoms: C_18  and  C_19
REMARK    5  A    between atoms: C_19  and  O_20
REMARK    6  A    between atoms: C_19  and  C_21
REMARK                            x       y       z     vdW  Elec       q    Type
REMARK                         _______ _______ _______ _____ _____    ______ ____
ROOT
ATOM      1  N   UNL     1       1.788   9.474  17.553  0.00  0.00    +0.000 NA
ATOM      2  C   UNL     1       1.252   9.587  18.719  0.00  0.00    +0.000 A 
ATOM      3  N   UNL     1       0.346  10.537  19.175  0.00  0.00    +0.000 N 
ATOM      4  C   UNL     1       0.087  10.300  20.534  0.00  0.00    +0.000 A 
ATOM      5  C   UNL     1      -0.686  10.992  21.442  0.00  0.00    +0.000 A 
ATOM      6  C   UNL     1      -0.707  10.525  22.760  0.00  0.00    +0.000 A 
ATOM      7  C   UNL     1       0.034   9.390  23.134  0.00  0.00    +0.000 A 
ATOM      8  C   UNL     1       0.812   8.692  22.203  0.00  0.00    +0.000 A 
ATOM      9  C   UNL     1       0.835   9.160  20.907  0.00  0.00    +0.000 A 
ATOM     10  N   UNL     1       1.522   8.723  19.781  0.00  0.00    +0.000 N 
ATOM     11  H   UNL     1       1.490  10.263  16.975  0.00  0.00    +0.000 HD
ENDROOT
BRANCH   3  12
ATOM     12  C   UNL     1      -0.310  11.579  18.417  0.00  0.00    +0.000 C 
BRANCH  12  13
ATOM     13  C   UNL     1      -1.736  11.255  18.015  0.00  0.00    +0.000 A 
ATOM     14  C   UNL     1      -2.856  11.888  18.576  0.00  0.00    +0.000 A 
ATOM     15  C   UNL     1      -4.149  11.507  18.213  0.00  0.00    +0.000 A 
ATOM     16  C   UNL     1      -4.343  10.504  17.268  0.00  0.00    +0.000 A 
ATOM     17  C   UNL     1      -3.245   9.894  16.668  0.00  0.00    +0.000 A 
ATOM     18  C   UNL     1      -1.950  10.269  17.035  0.00  0.00    +0.000 A 
ENDBRANCH  12  13
ENDBRANCH   3  12
BRANCH  10  19
ATOM     19  C   UNL     1       2.462   7.617  19.722  0.00  0.00    +0.000 C 
BRANCH  19  20
ATOM     20  C   UNL     1       2.137   6.653  18.555  0.00  0.00    +0.000 C 
BRANCH  20  21
ATOM     21  C   UNL     1       1.822   5.230  18.980  0.00  0.00    +0.000 A 
ATOM     22  C   UNL     1       1.598   4.945  20.338  0.00  0.00    +0.000 A 
ATOM     23  C   UNL     1       1.264   3.654  20.756  0.00  0.00    +0.000 A 
ATOM     24  C   UNL     1       1.141   2.628  19.823  0.00  0.00    +0.000 A 
ATOM     25  C   UNL     1       1.333   2.896  18.472  0.00  0.00    +0.000 A 
ATOM     26  C   UNL     1       1.661   4.188  18.052  0.00  0.00    +0.000 A 
ENDBRANCH  20  21
BRANCH  20  27
ATOM     27  O   UNL     1       3.206   6.547  17.606  0.00  0.00    +0.000 OA
ATOM     28  H   UNL     1       3.781   7.331  17.722  0.00  0.00    +0.000 HD
ENDBRANCH  20  27
ENDBRANCH  19  20
ENDBRANCH  10  19
TORSDOF 6
ENDMDL
MODEL 5
REMARK VINA RESULT:      -7.8      0.083      1.338
REMARK  Name = 
REMARK  6 active torsions:
REMARK  status: ('A' for Active; 'I' for Inactive)
REMARK    1  A    between atoms: N_3  and  C_4
REMARK    2  A    between atoms: C_4  and  C_5
REMARK    3  A    between atoms: N_17  and  C_18
REMARK    4  A    between atoms: C_18  and  C_19
REMARK    5  A    between atoms: C_19  and  O_20
REMARK    6  A    between atoms: C_19  and  C_21
REMARK                            x       y       z     vdW  Elec       q    Type
REMARK                         _______ _______ _______ _____ _____    ______ ____
ROOT
ATOM      1  N   UNL     1       7.639   3.979  17.823  0.00  0.00    +0.000 NA
ATOM      2  C   UNL     1       6.586   4.719  17.775  0.00  0.00    +0.000 A 
ATOM      3  N   UNL     1       6.255   5.710  16.858  0.00  0.00    +0.000 N 
ATOM      4  C   UNL     1       5.036   6.292  17.239  0.00  0.00    +0.000 A 
ATOM      5  C   UNL     1       4.326   7.342  16.696  0.00  0.00    +0.000 A 
ATOM      6  C   UNL     1       3.147   7.725  17.343  0.00  0.00    +0.000 A 
ATOM      7  C   UNL     1       2.709   7.058  18.501  0.00  0.00    +0.000 A 
ATOM      8  C   UNL     1       3.437   5.991  19.041  0.00  0.00    +0.000 A 
ATOM      9  C   UNL     1       4.601   5.620  18.404  0.00  0.00    +0.000 A 
ATOM     10  N   UNL     1       5.547   4.647  18.705  0.00  0.00    +0.000 N 
ATOM     11  H   UNL     1       8.280   4.270  17.082  0.00  0.00    +0.000 HD
ENDROOT
BRANCH   3  12
ATOM     12  C   UNL     1       6.966   6.084  15.656  0.00  0.00    +0.000 C 
BRANCH  12  13
ATOM     13  C   UNL     1       6.685   5.191  14.462  0.00  0.00    +0.000 A 
ATOM     14  C   UNL     1       5.573   4.339  14.384  0.00  0.00    +0.000 A 
ATOM     15  C   UNL     1       5.397   3.493  13.288  0.00  0.00    +0.000 A 
ATOM     16  C   UNL     1       6.316   3.500  12.242  0.00  0.00    +0.000 A 
ATOM     17  C   UNL     1       7.403   4.369  12.282  0.00  0.00    +0.000 A 
ATOM     18  C   UNL     1       7.585   5.212  13.381  0.00  0.00    +0.000 A 
ENDBRANCH  12  13
ENDBRANCH   3  12
BRANCH  10  19
ATOM     19  C   UNL     1       5.536   3.763  19.857  0.00  0.00    +0.000 C 
BRANCH  19  20
ATOM     20  C   UNL     1       4.732   2.469  19.576  0.00  0.00    +0.000 C 
BRANCH  20  21
ATOM     21  C   UNL     1       3.230   2.608  19.746  0.00  0.00    +0.000 A 
ATOM     22  C   UNL     1       2.385   2.411  18.640  0.00  0.00    +0.000 A 
ATOM     23  C   UNL     1       0.996   2.491  18.773  0.00  0.00    +0.000 A 
ATOM     24  C   UNL     1       0.428   2.762  20.014  0.00  0.00    +0.000 A 
ATOM     25  C   UNL     1       1.247   2.935  21.126  0.00  0.00    +0.000 A 
ATOM     26  C   UNL     1       2.635   2.849  20.995  0.00  0.00    +0.000 A 
ENDBRANCH  20  21
BRANCH  20  27
ATOM     27  O   UNL     1       5.120   1.379  20.420  0.00  0.00    +0.000 OA
ATOM     28  H   UNL     1       4.947   0.550  19.929  0.00  0.00    +0.000 HD
ENDBRANCH  20  27
ENDBRANCH  19  20
ENDBRANCH  10  19
TORSDOF 6
ENDMDL
MODEL 6
REMARK VINA RESULT:      -7.8      5.033      7.800
REMARK  Name = 
REMARK  6 active torsions:
REMARK  status: ('A' for Active; 'I' for Inactive)
REMARK    1  A    between atoms: N_3  and  C_4
REMARK    2  A    between atoms: C_4  and  C_5
REMARK    3  A    between atoms: N_17  and  C_18
REMARK    4  A    between atoms: C_18  and  C_19
REMARK    5  A    between atoms: C_19  and  O_20
REMARK    6  A    between atoms: C_19  and  C_21
REMARK                            x       y       z     vdW  Elec       q    Type
REMARK                         _______ _______ _______ _____ _____    ______ ____
ROOT
ATOM      1  N   UNL     1       1.892   9.361  17.498  0.00  0.00    +0.000 NA
ATOM      2  C   UNL     1       1.361   9.493  18.665  0.00  0.00    +0.000 A 
ATOM      3  N   UNL     1       0.468  10.459  19.114  0.00  0.00    +0.000 N 
ATOM      4  C   UNL     1       0.212  10.240  20.477  0.00  0.00    +0.000 A 
ATOM      5  C   UNL     1      -0.549  10.952  21.380  0.00  0.00    +0.000 A 
ATOM      6  C   UNL     1      -0.569  10.500  22.703  0.00  0.00    +0.000 A 
ATOM      7  C   UNL     1       0.160   9.361  23.088  0.00  0.00    +0.000 A 
ATOM      8  C   UNL     1       0.926   8.644  22.161  0.00  0.00    +0.000 A 
ATOM      9  C   UNL     1       0.949   9.096  20.860  0.00  0.00    +0.000 A 
ATOM     10  N   UNL     1       1.626   8.639  19.736  0.00  0.00    +0.000 N 
ATOM     11  H   UNL     1       1.600  10.147  16.913  0.00  0.00    +0.000 HD
ENDROOT
BRANCH   3  12
ATOM     12  C   UNL     1      -0.179  11.500  18.347  0.00  0.00    +0.000 C 
BRANCH  12  13
ATOM     13  C   UNL     1      -1.633  11.221  18.019  0.00  0.00    +0.000 A 
ATOM     14  C   UNL     1      -2.700  11.926  18.597  0.00  0.00    +0.000 A 
ATOM     15  C   UNL     1      -4.022  11.586  18.305  0.00  0.00    +0.000 A 
ATOM     16  C   UNL     1      -4.299  10.552  17.415  0.00  0.00    +0.000 A 
ATOM     17  C   UNL     1      -3.254   9.869  16.799  0.00  0.00    +0.000 A 
ATOM     18  C   UNL     1      -1.930  10.204  17.095  0.00  0.00    +0.000 A 
ENDBRANCH  12  13
ENDBRANCH   3  12
BRANCH  10  19
ATOM     19  C   UNL     1       2.554   7.522  19.686  0.00  0.00    +0.000 C 
BRANCH  19  20
ATOM     20  C   UNL     1       2.030   6.386  18.773  0.00  0.00    +0.000 C 
BRANCH  20  21
ATOM     21  C   UNL     1       1.838   5.051  19.471  0.00  0.00    +0.000 A 
ATOM     22  C   UNL     1       1.433   3.930  18.726  0.00  0.00    +0.000 A 
ATOM     23  C   UNL     1       1.288   2.679  19.332  0.00  0.00    +0.000 A 
ATOM     24  C   UNL     1       1.553   2.526  20.690  0.00  0.00    +0.000 A 
ATOM     25  C   UNL     1       1.980   3.618  21.438  0.00  0.00    +0.000 A 
ATOM     26  C   UNL     1       2.132   4.868  20.832  0.00  0.00    +0.000 A 
ENDBRANCH  20  21
BRANCH  20  27
ATOM     27  O   UNL     1       2.895   6.122  17.661  0.00  0.00    +0.000 OA
ATOM     28  H   UNL     1       2.641   6.734  16.940  0.00  0.00    +0.000 HD
ENDBRANCH  20  27
ENDBRANCH  19  20
ENDBRANCH  10  19
TORSDOF 6
ENDMDL
MODEL 7
REMARK VINA RESULT:      -7.4      2.007      6.764
REMARK  Name = 
REMARK  6 active torsions:
REMARK  status: ('A' for Active; 'I' for Inactive)
REMARK    1  A    between atoms: N_3  and  C_4
REMARK    2  A    between atoms: C_4  and  C_5
REMARK    3  A    between atoms: N_17  and  C_18
REMARK    4  A    between atoms: C_18  and  C_19
REMARK    5  A    between atoms: C_19  and  O_20
REMARK    6  A    between atoms: C_19  and  C_21
REMARK                            x       y       z     vdW  Elec       q    Type
REMARK                         _______ _______ _______ _____ _____    ______ ____
ROOT
ATOM      1  N   UNL     1       5.670   6.303  18.823  0.00  0.00    +0.000 NA
ATOM      2  C   UNL     1       4.725   5.440  18.678  0.00  0.00    +0.000 A 
ATOM      3  N   UNL     1       3.507   5.358  19.344  0.00  0.00    +0.000 N 
ATOM      4  C   UNL     1       2.824   4.215  18.900  0.00  0.00    +0.000 A 
ATOM      5  C   UNL     1       1.620   3.670  19.294  0.00  0.00    +0.000 A 
ATOM      6  C   UNL     1       1.222   2.477  18.684  0.00  0.00    +0.000 A 
ATOM      7  C   UNL     1       2.025   1.864  17.706  0.00  0.00    +0.000 A 
ATOM      8  C   UNL     1       3.244   2.428  17.310  0.00  0.00    +0.000 A 
ATOM      9  C   UNL     1       3.635   3.601  17.919  0.00  0.00    +0.000 A 
ATOM     10  N   UNL     1       4.781   4.375  17.778  0.00  0.00    +0.000 N 
ATOM     11  H   UNL     1       5.424   6.936  19.588  0.00  0.00    +0.000 HD
ENDROOT
BRANCH   3  12
ATOM     12  C   UNL     1       2.948   6.291  20.296  0.00  0.00    +0.000 C 
BRANCH  12  13
ATOM     13  C   UNL     1       2.270   7.493  19.667  0.00  0.00    +0.000 A 
ATOM     14  C   UNL     1       1.448   8.375  20.385  0.00  0.00    +0.000 A 
ATOM     15  C   UNL     1       0.799   9.431  19.741  0.00  0.00    +0.000 A 
ATOM     16  C   UNL     1       0.979   9.635  18.376  0.00  0.00    +0.000 A 
ATOM     17  C   UNL     1       1.824   8.796  17.655  0.00  0.00    +0.000 A 
ATOM     18  C   UNL     1       2.469   7.735  18.296  0.00  0.00    +0.000 A 
ENDBRANCH  12  13
ENDBRANCH   3  12
BRANCH  10  19
ATOM     19  C   UNL     1       5.918   4.082  16.923  0.00  0.00    +0.000 C 
BRANCH  19  20
ATOM     20  C   UNL     1       6.176   5.221  15.906  0.00  0.00    +0.000 C 
BRANCH  20  21
ATOM     21  C   UNL     1       6.467   4.751  14.491  0.00  0.00    +0.000 A 
ATOM     22  C   UNL     1       5.622   3.804  13.888  0.00  0.00    +0.000 A 
ATOM     23  C   UNL     1       5.838   3.382  12.573  0.00  0.00    +0.000 A 
ATOM     24  C   UNL     1       6.898   3.906  11.837  0.00  0.00    +0.000 A 
ATOM     25  C   UNL     1       7.730   4.863  12.409  0.00  0.00    +0.000 A 
ATOM     26  C   UNL     1       7.510   5.290  13.722  0.00  0.00    +0.000 A 
ENDBRANCH  20  21
BRANCH  20  27
ATOM     27  O   UNL     1       7.281   6.055  16.273  0.00  0.00    +0.000 OA
ATOM     28  H   UNL     1       7.257   6.163  17.246  0.00  0.00    +0.000 HD
ENDBRANCH  20  27
ENDBRANCH  19  20
ENDBRANCH  10  19
TORSDOF 6
ENDMDL
MODEL 8
REMARK VINA RESULT:      -7.4      1.983      6.811
REMARK  Name = 
REMARK  6 active torsions:
REMARK  status: ('A' for Active; 'I' for Inactive)
REMARK    1  A    between atoms: N_3  and  C_4
REMARK    2  A    between atoms: C_4  and  C_5
REMARK    3  A    between atoms: N_17  and  C_18
REMARK    4  A    between atoms: C_18  and  C_19
REMARK    5  A    between atoms: C_19  and  O_20
REMARK    6  A    between atoms: C_19  and  C_21
REMARK                            x       y       z     vdW  Elec       q    Type
REMARK                         _______ _______ _______ _____ _____    ______ ____
ROOT
ATOM      1  N   UNL     1       5.108   6.280  17.699  0.00  0.00    +0.000 NA
ATOM      2  C   UNL     1       4.125   5.527  18.054  0.00  0.00    +0.000 A 
ATOM      3  N   UNL     1       3.211   5.712  19.085  0.00  0.00    +0.000 N 
ATOM      4  C   UNL     1       2.355   4.601  19.136  0.00  0.00    +0.000 A 
ATOM      5  C   UNL     1       1.334   4.285  20.008  0.00  0.00    +0.000 A 
ATOM      6  C   UNL     1       0.684   3.061  19.823  0.00  0.00    +0.000 A 
ATOM      7  C   UNL     1       1.064   2.192  18.783  0.00  0.00    +0.000 A 
ATOM      8  C   UNL     1       2.099   2.526  17.902  0.00  0.00    +0.000 A 
ATOM      9  C   UNL     1       2.740   3.730  18.091  0.00  0.00    +0.000 A 
ATOM     10  N   UNL     1       3.807   4.321  17.426  0.00  0.00    +0.000 N 
ATOM     11  H   UNL     1       5.177   7.061  18.354  0.00  0.00    +0.000 HD
ENDROOT
BRANCH   3  12
ATOM     12  C   UNL     1       3.068   6.858  19.954  0.00  0.00    +0.000 C 
BRANCH  12  13
ATOM     13  C   UNL     1       2.112   7.917  19.437  0.00  0.00    +0.000 A 
ATOM     14  C   UNL     1       2.048   8.303  18.090  0.00  0.00    +0.000 A 
ATOM     15  C   UNL     1       1.192   9.326  17.680  0.00  0.00    +0.000 A 
ATOM     16  C   UNL     1       0.370   9.965  18.605  0.00  0.00    +0.000 A 
ATOM     17  C   UNL     1       0.389   9.566  19.939  0.00  0.00    +0.000 A 
ATOM     18  C   UNL     1       1.250   8.547  20.352  0.00  0.00    +0.000 A 
ENDBRANCH  12  13
ENDBRANCH   3  12
BRANCH  10  19
ATOM     19  C   UNL     1       4.560   3.746  16.324  0.00  0.00    +0.000 C 
BRANCH  19  20
ATOM     20  C   UNL     1       5.872   4.526  16.061  0.00  0.00    +0.000 C 
BRANCH  20  21
ATOM     21  C   UNL     1       6.375   4.450  14.630  0.00  0.00    +0.000 A 
ATOM     22  C   UNL     1       5.721   3.616  13.708  0.00  0.00    +0.000 A 
ATOM     23  C   UNL     1       6.134   3.556  12.373  0.00  0.00    +0.000 A 
ATOM     24  C   UNL     1       7.202   4.335  11.937  0.00  0.00    +0.000 A 
ATOM     25  C   UNL     1       7.845   5.187  12.830  0.00  0.00    +0.000 A 
ATOM     26  C   UNL     1       7.429   5.252  14.162  0.00  0.00    +0.000 A 
ENDBRANCH  20  21
BRANCH  20  27
ATOM     27  O   UNL     1       6.959   4.078  16.879  0.00  0.00    +0.000 OA
ATOM     28  H   UNL     1       7.103   4.755  17.572  0.00  0.00    +0.000 HD
ENDBRANCH  20  27
ENDBRANCH  19  20
ENDBRANCH  10  19
TORSDOF 6
ENDMDL
MODEL 9
REMARK VINA RESULT:      -7.3      2.525      4.645
REMARK  Name = 
REMARK  6 active torsions:
REMARK  status: ('A' for Active; 'I' for Inactive)
REMARK    1  A    between atoms: N_3  and  C_4
REMARK    2  A    between atoms: C_4  and  C_5
REMARK    3  A    between atoms: N_17  and  C_18
REMARK    4  A    between atoms: C_18  and  C_19
REMARK    5  A    between atoms: C_19  and  O_20
REMARK    6  A    between atoms: C_19  and  C_21
REMARK                            x       y       z     vdW  Elec       q    Type
REMARK                         _______ _______ _______ _____ _____    ______ ____
ROOT
ATOM      1  N   UNL     1       5.721   7.112  16.542  0.00  0.00    +0.000 NA
ATOM      2  C   UNL     1       4.969   6.122  16.878  0.00  0.00    +0.000 A 
ATOM      3  N   UNL     1       5.188   4.760  16.704  0.00  0.00    +0.000 N 
ATOM      4  C   UNL     1       4.065   4.058  17.171  0.00  0.00    +0.000 A 
ATOM      5  C   UNL     1       3.774   2.710  17.163  0.00  0.00    +0.000 A 
ATOM      6  C   UNL     1       2.531   2.316  17.668  0.00  0.00    +0.000 A 
ATOM      7  C   UNL     1       1.620   3.266  18.164  0.00  0.00    +0.000 A 
ATOM      8  C   UNL     1       1.928   4.632  18.171  0.00  0.00    +0.000 A 
ATOM      9  C   UNL     1       3.152   5.016  17.667  0.00  0.00    +0.000 A 
ATOM     10  N   UNL     1       3.729   6.269  17.502  0.00  0.00    +0.000 N 
ATOM     11  H   UNL     1       6.535   6.752  16.039  0.00  0.00    +0.000 HD
ENDROOT
BRANCH   3  12
ATOM     12  C   UNL     1       6.372   4.106  16.196  0.00  0.00    +0.000 C 
BRANCH  12  13
ATOM     13  C   UNL     1       6.524   4.173  14.688  0.00  0.00    +0.000 A 
ATOM     14  C   UNL     1       5.738   3.421  13.802  0.00  0.00    +0.000 A 
ATOM     15  C   UNL     1       5.961   3.476  12.426  0.00  0.00    +0.000 A 
ATOM     16  C   UNL     1       6.959   4.299  11.910  0.00  0.00    +0.000 A 
ATOM     17  C   UNL     1       7.721   5.085  12.770  0.00  0.00    +0.000 A 
ATOM     18  C   UNL     1       7.503   5.027  14.149  0.00  0.00    +0.000 A 
ENDBRANCH  12  13
ENDBRANCH   3  12
BRANCH  10  19
ATOM     19  C   UNL     1       3.114   7.547  17.816  0.00  0.00    +0.000 C 
BRANCH  19  20
ATOM     20  C   UNL     1       2.179   7.445  19.046  0.00  0.00    +0.000 C 
BRANCH  20  21
ATOM     21  C   UNL     1       1.385   8.705  19.343  0.00  0.00    +0.000 A 
ATOM     22  C   UNL     1       1.022   8.999  20.669  0.00  0.00    +0.000 A 
ATOM     23  C   UNL     1       0.327  10.171  20.980  0.00  0.00    +0.000 A 
ATOM     24  C   UNL     1      -0.010  11.072  19.973  0.00  0.00    +0.000 A 
ATOM     25  C   UNL     1       0.363  10.809  18.658  0.00  0.00    +0.000 A 
ATOM     26  C   UNL     1       1.064   9.641  18.347  0.00  0.00    +0.000 A 
ENDBRANCH  20  21
BRANCH  20  27
ATOM     27  O   UNL     1       2.883   7.135  20.255  0.00  0.00    +0.000 OA
ATOM     28  H   UNL     1       2.555   6.268  20.572  0.00  0.00    +0.000 HD
ENDBRANCH  20  27
ENDBRANCH  19  20
ENDBRANCH  10  19
TORSDOF 6
ENDMDL
