MODEL 1
REMARK VINA RESULT:      -8.0      0.000      0.000
REMARK  Name = 
REMARK  13 active torsions:
REMARK  status: ('A' for Active; 'I' for Inactive)
REMARK    1  A    between atoms: C_1  and  C_2
REMARK    2  A    between atoms: C_2  and  C_3
REMARK    3  A    between atoms: C_3  and  N_4
REMARK    4  A    between atoms: N_4  and  C_5
REMARK    5  A    between atoms: N_4  and  C_13
REMARK    6  A    between atoms: C_5  and  C_6
REMARK    7  A    between atoms: C_13  and  C_14
REMARK    8  A    between atoms: C_17  and  N_18
REMARK    9  A    between atoms: C_19  and  C_21
REMARK   10  A    between atoms: C_21  and  C_22
REMARK   11  A    between atoms: C_25  and  S_26
REMARK   12  A    between atoms: S_26  and  C_29
REMARK   13  A    between atoms: C_29  and  C_30
REMARK                            x       y       z     vdW  Elec       q    Type
REMARK                         _______ _______ _______ _____ _____    ______ ____
ROOT
ATOM      1  C   UNL     1       2.268   5.929  18.969  0.00  0.00    +0.000 A 
ATOM      2  C   UNL     1       1.881   6.238  20.276  0.00  0.00    +0.000 A 
ATOM      3  C   UNL     1       1.563   7.553  20.636  0.00  0.00    +0.000 A 
ATOM      4  C   UNL     1       1.621   8.587  19.700  0.00  0.00    +0.000 A 
ATOM      5  C   UNL     1       2.037   8.286  18.397  0.00  0.00    +0.000 A 
ATOM      6  C   UNL     1       2.367   6.973  18.038  0.00  0.00    +0.000 A 
ENDROOT
BRANCH   4   7
ATOM      7  N   UNL     1       1.240   9.921  19.979  0.00  0.00    +0.000 N 
ATOM      8  C   UNL     1       0.043  10.530  19.634  0.00  0.00    +0.000 C 
ATOM      9  O   UNL     1      -0.936   9.981  19.132  0.00  0.00    +0.000 OA
ATOM     10  H   UNL     1       1.939  10.496  20.432  0.00  0.00    +0.000 HD
BRANCH   8  11
ATOM     11  C   UNL     1       0.023  12.034  19.888  0.00  0.00    +0.000 C 
BRANCH  11  12
ATOM     12  C   UNL     1      -1.044  12.409  20.891  0.00  0.00    +0.000 A 
ATOM     13  C   UNL     1      -1.080  11.774  22.143  0.00  0.00    +0.000 A 
ATOM     14  C   UNL     1      -2.142  11.995  23.020  0.00  0.00    +0.000 A 
ATOM     15  C   UNL     1      -3.155  12.887  22.662  0.00  0.00    +0.000 A 
ATOM     16  C   UNL     1      -3.104  13.569  21.444  0.00  0.00    +0.000 A 
ATOM     17  C   UNL     1      -2.046  13.333  20.562  0.00  0.00    +0.000 A 
BRANCH  15  18
ATOM     18  S   UNL     1      -4.570  13.055  23.721  0.00  0.00    +0.000 S 
ATOM     19  O   UNL     1      -4.615  11.881  24.576  0.00  0.00    +0.000 OA
ATOM     20  O   UNL     1      -4.512  14.388  24.288  0.00  0.00    +0.000 OA
BRANCH  18  21
ATOM     21  C   UNL     1      -5.964  12.967  22.608  0.00  0.00    +0.000 C 
ATOM     22  C   UNL     1      -7.165  12.332  23.279  0.00  0.00    +0.000 C 
ENDBRANCH  18  21
ENDBRANCH  15  18
ENDBRANCH  11  12
ENDBRANCH   8  11
ENDBRANCH   4   7
BRANCH   1  23
ATOM     23  C   UNL     1       2.518   4.493  18.547  0.00  0.00    +0.000 C 
BRANCH  23  24
ATOM     24  N   UNL     1       3.707   3.876  19.168  0.00  0.00    +0.000 NA
BRANCH  24  25
ATOM     25  C   UNL     1       3.393   2.644  19.908  0.00  0.00    +0.000 C 
BRANCH  25  27
ATOM     26  C   UNL     1       1.344   2.724  21.459  0.00  0.00    +0.000 C 
ATOM     27  C   UNL     1       2.856   2.827  21.338  0.00  0.00    +0.000 C 
ENDBRANCH  25  27
ENDBRANCH  24  25
BRANCH  24  28
ATOM     28  C   UNL     1       4.811   3.745  18.201  0.00  0.00    +0.000 C 
BRANCH  28  29
ATOM     29  C   UNL     1       5.767   4.918  18.043  0.00  0.00    +0.000 A 
ATOM     30  C   UNL     1       5.549   5.896  17.061  0.00  0.00    +0.000 A 
ATOM     31  C   UNL     1       6.363   7.031  16.988  0.00  0.00    +0.000 A 
ATOM     32  C   UNL     1       7.410   7.195  17.892  0.00  0.00    +0.000 A 
ATOM     33 CL   UNL     1       8.369   8.623  17.849  0.00  0.00    +0.000 Cl
ATOM     34  C   UNL     1       7.668   6.220  18.849  0.00  0.00    +0.000 A 
ATOM     35  C   UNL     1       6.849   5.092  18.924  0.00  0.00    +0.000 A 
ENDBRANCH  28  29
ENDBRANCH  24  28
ENDBRANCH  23  24
ENDBRANCH   1  23
TORSDOF 11
ENDMDL
MODEL 2
REMARK VINA RESULT:      -7.6      1.088      1.655
REMARK  Name = 
REMARK  13 active torsions:
REMARK  status: ('A' for Active; 'I' for Inactive)
REMARK    1  A    between atoms: C_1  and  C_2
REMARK    2  A    between atoms: C_2  and  C_3
REMARK    3  A    between atoms: C_3  and  N_4
REMARK    4  A    between atoms: N_4  and  C_5
REMARK    5  A    between atoms: N_4  and  C_13
REMARK    6  A    between atoms: C_5  and  C_6
REMARK    7  A    between atoms: C_13  and  C_14
REMARK    8  A    between atoms: C_17  and  N_18
REMARK    9  A    between atoms: C_19  and  C_21
REMARK   10  A    between atoms: C_21  and  C_22
REMARK   11  A    between atoms: C_25  and  S_26
REMARK   12  A    between atoms: S_26  and  C_29
REMARK   13  A    between atoms: C_29  and  C_30
REMARK                            x       y       z     vdW  Elec       q    Type
REMARK                         _______ _______ _______ _____ _____    ______ ____
ROOT
ATOM      1  C   UNL     1       2.370   5.789  18.592  0.00  0.00    +0.000 A 
ATOM      2  C   UNL     1       1.959   5.897  19.923  0.00  0.00    +0.000 A 
ATOM      3  C   UNL     1       1.637   7.143  20.474  0.00  0.00    +0.000 A 
ATOM      4  C   UNL     1       1.714   8.308  19.707  0.00  0.00    +0.000 A 
ATOM      5  C   UNL     1       2.155   8.206  18.382  0.00  0.00    +0.000 A 
ATOM      6  C   UNL     1       2.489   6.962  17.833  0.00  0.00    +0.000 A 
ENDROOT
BRANCH   4   7
ATOM      7  N   UNL     1       1.330   9.585  20.179  0.00  0.00    +0.000 N 
ATOM      8  C   UNL     1       0.333  10.395  19.660  0.00  0.00    +0.000 C 
ATOM      9  O   UNL     1      -0.467  10.091  18.776  0.00  0.00    +0.000 OA
ATOM     10  H   UNL     1       1.881   9.959  20.943  0.00  0.00    +0.000 HD
BRANCH   8  11
ATOM     11  C   UNL     1       0.308  11.799  20.256  0.00  0.00    +0.000 C 
BRANCH  11  12
ATOM     12  C   UNL     1      -0.905  12.003  21.134  0.00  0.00    +0.000 A 
ATOM     13  C   UNL     1      -1.996  12.748  20.657  0.00  0.00    +0.000 A 
ATOM     14  C   UNL     1      -3.057  13.074  21.502  0.00  0.00    +0.000 A 
ATOM     15  C   UNL     1      -3.047  12.621  22.824  0.00  0.00    +0.000 A 
ATOM     16  C   UNL     1      -1.996  11.832  23.297  0.00  0.00    +0.000 A 
ATOM     17  C   UNL     1      -0.929  11.520  22.450  0.00  0.00    +0.000 A 
BRANCH  15  18
ATOM     18  S   UNL     1      -4.329  13.159  23.929  0.00  0.00    +0.000 S 
ATOM     19  O   UNL     1      -5.292  13.912  23.144  0.00  0.00    +0.000 OA
ATOM     20  O   UNL     1      -4.736  11.996  24.693  0.00  0.00    +0.000 OA
BRANCH  18  21
ATOM     21  C   UNL     1      -3.510  14.306  25.025  0.00  0.00    +0.000 C 
ATOM     22  C   UNL     1      -2.843  15.425  24.252  0.00  0.00    +0.000 C 
ENDBRANCH  18  21
ENDBRANCH  15  18
ENDBRANCH  11  12
ENDBRANCH   8  11
ENDBRANCH   4   7
BRANCH   1  23
ATOM     23  C   UNL     1       2.624   4.432  17.961  0.00  0.00    +0.000 C 
BRANCH  23  24
ATOM     24  N   UNL     1       3.292   3.463  18.853  0.00  0.00    +0.000 NA
BRANCH  24  25
ATOM     25  C   UNL     1       2.470   2.273  19.123  0.00  0.00    +0.000 C 
BRANCH  25  27
ATOM     26  C   UNL     1       2.273   2.855  21.619  0.00  0.00    +0.000 C 
ATOM     27  C   UNL     1       1.577   2.332  20.374  0.00  0.00    +0.000 C 
ENDBRANCH  25  27
ENDBRANCH  24  25
BRANCH  24  28
ATOM     28  C   UNL     1       4.663   3.171  18.400  0.00  0.00    +0.000 C 
BRANCH  28  29
ATOM     29  C   UNL     1       5.600   4.344  18.154  0.00  0.00    +0.000 A 
ATOM     30  C   UNL     1       5.832   4.819  16.854  0.00  0.00    +0.000 A 
ATOM     31  C   UNL     1       6.605   5.965  16.637  0.00  0.00    +0.000 A 
ATOM     32  C   UNL     1       7.160   6.643  17.719  0.00  0.00    +0.000 A 
ATOM     33 CL   UNL     1       8.052   8.092  17.462  0.00  0.00    +0.000 Cl
ATOM     34  C   UNL     1       6.975   6.170  19.013  0.00  0.00    +0.000 A 
ATOM     35  C   UNL     1       6.197   5.030  19.227  0.00  0.00    +0.000 A 
ENDBRANCH  28  29
ENDBRANCH  24  28
ENDBRANCH  23  24
ENDBRANCH   1  23
TORSDOF 11
ENDMDL
MODEL 3
REMARK VINA RESULT:      -7.4      1.004      1.329
REMARK  Name = 
REMARK  13 active torsions:
REMARK  status: ('A' for Active; 'I' for Inactive)
REMARK    1  A    between atoms: C_1  and  C_2
REMARK    2  A    between atoms: C_2  and  C_3
REMARK    3  A    between atoms: C_3  and  N_4
REMARK    4  A    between atoms: N_4  and  C_5
REMARK    5  A    between atoms: N_4  and  C_13
REMARK    6  A    between atoms: C_5  and  C_6
REMARK    7  A    between atoms: C_13  and  C_14
REMARK    8  A    between atoms: C_17  and  N_18
REMARK    9  A    between atoms: C_19  and  C_21
REMARK   10  A    between atoms: C_21  and  C_22
REMARK   11  A    between atoms: C_25  and  S_26
REMARK   12  A    between atoms: S_26  and  C_29
REMARK   13  A    between atoms: C_29  and  C_30
REMARK                            x       y       z     vdW  Elec       q    Type
REMARK                         _______ _______ _______ _____ _____    ______ ____
ROOT
ATOM      1  C   UNL     1       2.293   5.665  18.844  0.00  0.00    +0.000 A 
ATOM      2  C   UNL     1       2.391   6.886  18.171  0.00  0.00    +0.000 A 
ATOM      3  C   UNL     1       2.058   8.085  18.812  0.00  0.00    +0.000 A 
ATOM      4  C   UNL     1       1.623   8.094  20.139  0.00  0.00    +0.000 A 
ATOM      5  C   UNL     1       1.495   6.869  20.806  0.00  0.00    +0.000 A 
ATOM      6  C   UNL     1       1.817   5.667  20.164  0.00  0.00    +0.000 A 
ENDROOT
BRANCH   4   7
ATOM      7  N   UNL     1       1.345   9.275  20.866  0.00  0.00    +0.000 N 
ATOM      8  C   UNL     1       0.289  10.147  20.657  0.00  0.00    +0.000 C 
ATOM      9  O   UNL     1      -0.651   9.982  19.881  0.00  0.00    +0.000 OA
ATOM     10  H   UNL     1       2.021   9.526  21.578  0.00  0.00    +0.000 HD
BRANCH   8  11
ATOM     11  C   UNL     1       0.388  11.437  21.466  0.00  0.00    +0.000 C 
BRANCH  11  12
ATOM     12  C   UNL     1      -0.981  12.005  21.766  0.00  0.00    +0.000 A 
ATOM     13  C   UNL     1      -1.611  11.704  22.985  0.00  0.00    +0.000 A 
ATOM     14  C   UNL     1      -2.930  12.091  23.216  0.00  0.00    +0.000 A 
ATOM     15  C   UNL     1      -3.614  12.820  22.239  0.00  0.00    +0.000 A 
ATOM     16  C   UNL     1      -2.983  13.176  21.046  0.00  0.00    +0.000 A 
ATOM     17  C   UNL     1      -1.665  12.773  20.813  0.00  0.00    +0.000 A 
BRANCH  15  18
ATOM     18  S   UNL     1      -5.334  13.187  22.484  0.00  0.00    +0.000 S 
ATOM     19  O   UNL     1      -5.866  12.190  23.398  0.00  0.00    +0.000 OA
ATOM     20  O   UNL     1      -5.420  14.601  22.792  0.00  0.00    +0.000 OA
BRANCH  18  21
ATOM     21  C   UNL     1      -6.075  12.903  20.884  0.00  0.00    +0.000 C 
ATOM     22  C   UNL     1      -6.713  11.531  20.809  0.00  0.00    +0.000 C 
ENDBRANCH  18  21
ENDBRANCH  15  18
ENDBRANCH  11  12
ENDBRANCH   8  11
ENDBRANCH   4   7
BRANCH   1  23
ATOM     23  C   UNL     1       2.747   4.374  18.190  0.00  0.00    +0.000 C 
BRANCH  23  24
ATOM     24  N   UNL     1       4.065   3.891  18.650  0.00  0.00    +0.000 NA
BRANCH  24  25
ATOM     25  C   UNL     1       4.009   2.541  19.231  0.00  0.00    +0.000 C 
BRANCH  25  27
ATOM     26  C   UNL     1       2.675   2.654  21.426  0.00  0.00    +0.000 C 
ATOM     27  C   UNL     1       4.031   2.459  20.767  0.00  0.00    +0.000 C 
ENDBRANCH  25  27
ENDBRANCH  24  25
BRANCH  24  28
ATOM     28  C   UNL     1       5.094   4.068  17.611  0.00  0.00    +0.000 C 
BRANCH  28  29
ATOM     29  C   UNL     1       6.079   5.217  17.769  0.00  0.00    +0.000 A 
ATOM     30  C   UNL     1       5.963   6.375  16.984  0.00  0.00    +0.000 A 
ATOM     31  C   UNL     1       6.798   7.476  17.205  0.00  0.00    +0.000 A 
ATOM     32  C   UNL     1       7.763   7.426  18.207  0.00  0.00    +0.000 A 
ATOM     33 CL   UNL     1       8.744   8.802  18.528  0.00  0.00    +0.000 Cl
ATOM     34  C   UNL     1       7.921   6.275  18.971  0.00  0.00    +0.000 A 
ATOM     35  C   UNL     1       7.081   5.181  18.753  0.00  0.00    +0.000 A 
ENDBRANCH  28  29
ENDBRANCH  24  28
ENDBRANCH  23  24
ENDBRANCH   1  23
TORSDOF 11
ENDMDL
MODEL 4
REMARK VINA RESULT:      -7.3      3.762      5.473
REMARK  Name = 
REMARK  13 active torsions:
REMARK  status: ('A' for Active; 'I' for Inactive)
REMARK    1  A    between atoms: C_1  and  C_2
REMARK    2  A    between atoms: C_2  and  C_3
REMARK    3  A    between atoms: C_3  and  N_4
REMARK    4  A    between atoms: N_4  and  C_5
REMARK    5  A    between atoms: N_4  and  C_13
REMARK    6  A    between atoms: C_5  and  C_6
REMARK    7  A    between atoms: C_13  and  C_14
REMARK    8  A    between atoms: C_17  and  N_18
REMARK    9  A    between atoms: C_19  and  C_21
REMARK   10  A    between atoms: C_21  and  C_22
REMARK   11  A    between atoms: C_25  and  S_26
REMARK   12  A    between atoms: S_26  and  C_29
REMARK   13  A    between atoms: C_29  and  C_30
REMARK                            x       y       z     vdW  Elec       q    Type
REMARK                         _______ _______ _______ _____ _____    ______ ____
ROOT
ATOM      1  C   UNL     1       2.220   7.406  18.684  0.00  0.00    +0.000 A 
ATOM      2  C   UNL     1       1.960   8.486  17.836  0.00  0.00    +0.000 A 
ATOM      3  C   UNL     1       1.411   9.672  18.337  0.00  0.00    +0.000 A 
ATOM      4  C   UNL     1       1.113   9.809  19.695  0.00  0.00    +0.000 A 
ATOM      5  C   UNL     1       1.345   8.718  20.541  0.00  0.00    +0.000 A 
ATOM      6  C   UNL     1       1.883   7.526  20.040  0.00  0.00    +0.000 A 
ENDROOT
BRANCH   4   7
ATOM      7  N   UNL     1       0.630  11.005  20.276  0.00  0.00    +0.000 N 
ATOM      8  C   UNL     1      -0.594  11.608  20.033  0.00  0.00    +0.000 C 
ATOM      9  O   UNL     1      -1.515  11.146  19.362  0.00  0.00    +0.000 OA
ATOM     10  H   UNL     1       1.271  11.489  20.893  0.00  0.00    +0.000 HD
BRANCH   8  11
ATOM     11  C   UNL     1      -0.728  12.997  20.651  0.00  0.00    +0.000 C 
BRANCH  11  12
ATOM     12  C   UNL     1       0.467  13.863  20.325  0.00  0.00    +0.000 A 
ATOM     13  C   UNL     1       0.716  14.238  18.995  0.00  0.00    +0.000 A 
ATOM     14  C   UNL     1       1.892  14.907  18.654  0.00  0.00    +0.000 A 
ATOM     15  C   UNL     1       2.808  15.238  19.655  0.00  0.00    +0.000 A 
ATOM     16  C   UNL     1       2.549  14.922  20.990  0.00  0.00    +0.000 A 
ATOM     17  C   UNL     1       1.376  14.239  21.324  0.00  0.00    +0.000 A 
BRANCH  15  18
ATOM     18  S   UNL     1       4.363  15.963  19.195  0.00  0.00    +0.000 S 
ATOM     19  O   UNL     1       4.083  17.277  18.641  0.00  0.00    +0.000 OA
ATOM     20  O   UNL     1       5.249  15.806  20.330  0.00  0.00    +0.000 OA
BRANCH  18  21
ATOM     21  C   UNL     1       4.951  14.928  17.863  0.00  0.00    +0.000 C 
ATOM     22  C   UNL     1       6.462  14.821  17.876  0.00  0.00    +0.000 C 
ENDBRANCH  18  21
ENDBRANCH  15  18
ENDBRANCH  11  12
ENDBRANCH   8  11
ENDBRANCH   4   7
BRANCH   1  23
ATOM     23  C   UNL     1       2.907   6.155  18.168  0.00  0.00    +0.000 C 
BRANCH  23  24
ATOM     24  N   UNL     1       3.025   5.072  19.165  0.00  0.00    +0.000 NA
BRANCH  24  25
ATOM     25  C   UNL     1       1.956   4.069  19.051  0.00  0.00    +0.000 C 
BRANCH  25  27
ATOM     26  C   UNL     1       1.395   2.888  21.265  0.00  0.00    +0.000 C 
ATOM     27  C   UNL     1       1.002   3.951  20.253  0.00  0.00    +0.000 C 
ENDBRANCH  25  27
ENDBRANCH  24  25
BRANCH  24  28
ATOM     28  C   UNL     1       4.388   4.514  19.192  0.00  0.00    +0.000 C 
BRANCH  28  29
ATOM     29  C   UNL     1       5.208   4.567  17.911  0.00  0.00    +0.000 A 
ATOM     30  C   UNL     1       4.834   3.815  16.787  0.00  0.00    +0.000 A 
ATOM     31  C   UNL     1       5.522   3.948  15.576  0.00  0.00    +0.000 A 
ATOM     32  C   UNL     1       6.597   4.829  15.480  0.00  0.00    +0.000 A 
ATOM     33 CL   UNL     1       7.400   5.046  13.974  0.00  0.00    +0.000 Cl
ATOM     34  C   UNL     1       7.009   5.554  16.592  0.00  0.00    +0.000 A 
ATOM     35  C   UNL     1       6.315   5.425  17.797  0.00  0.00    +0.000 A 
ENDBRANCH  28  29
ENDBRANCH  24  28
ENDBRANCH  23  24
ENDBRANCH   1  23
TORSDOF 11
ENDMDL
MODEL 5
REMARK VINA RESULT:      -7.3      2.163      3.400
REMARK  Name = 
REMARK  13 active torsions:
REMARK  status: ('A' for Active; 'I' for Inactive)
REMARK    1  A    between atoms: C_1  and  C_2
REMARK    2  A    between atoms: C_2  and  C_3
REMARK    3  A    between atoms: C_3  and  N_4
REMARK    4  A    between atoms: N_4  and  C_5
REMARK    5  A    between atoms: N_4  and  C_13
REMARK    6  A    between atoms: C_5  and  C_6
REMARK    7  A    between atoms: C_13  and  C_14
REMARK    8  A    between atoms: C_17  and  N_18
REMARK    9  A    between atoms: C_19  and  C_21
REMARK   10  A    between atoms: C_21  and  C_22
REMARK   11  A    between atoms: C_25  and  S_26
REMARK   12  A    between atoms: S_26  and  C_29
REMARK   13  A    between atoms: C_29  and  C_30
REMARK                            x       y       z     vdW  Elec       q    Type
REMARK                         _______ _______ _______ _____ _____    ______ ____
ROOT
ATOM      1  C   UNL     1       2.853   6.340  18.740  0.00  0.00    +0.000 A 
ATOM      2  C   UNL     1       2.783   7.334  17.760  0.00  0.00    +0.000 A 
ATOM      3  C   UNL     1       2.172   8.563  18.032  0.00  0.00    +0.000 A 
ATOM      4  C   UNL     1       1.621   8.830  19.287  0.00  0.00    +0.000 A 
ATOM      5  C   UNL     1       1.664   7.825  20.261  0.00  0.00    +0.000 A 
ATOM      6  C   UNL     1       2.265   6.590  19.988  0.00  0.00    +0.000 A 
ENDROOT
BRANCH   4   7
ATOM      7  N   UNL     1       1.060  10.077  19.650  0.00  0.00    +0.000 N 
ATOM      8  C   UNL     1      -0.074  10.663  19.109  0.00  0.00    +0.000 C 
ATOM      9  O   UNL     1      -0.850  10.147  18.307  0.00  0.00    +0.000 OA
ATOM     10  H   UNL     1       1.575  10.611  20.339  0.00  0.00    +0.000 HD
BRANCH   8  11
ATOM     11  C   UNL     1      -0.296  12.103  19.561  0.00  0.00    +0.000 C 
BRANCH  11  12
ATOM     12  C   UNL     1      -1.359  12.186  20.633  0.00  0.00    +0.000 A 
ATOM     13  C   UNL     1      -2.586  12.811  20.355  0.00  0.00    +0.000 A 
ATOM     14  C   UNL     1      -3.517  13.031  21.370  0.00  0.00    +0.000 A 
ATOM     15  C   UNL     1      -3.238  12.589  22.665  0.00  0.00    +0.000 A 
ATOM     16  C   UNL     1      -2.047  11.915  22.947  0.00  0.00    +0.000 A 
ATOM     17  C   UNL     1      -1.111  11.710  21.929  0.00  0.00    +0.000 A 
BRANCH  15  18
ATOM     18  S   UNL     1      -4.364  12.997  23.976  0.00  0.00    +0.000 S 
ATOM     19  O   UNL     1      -5.544  13.588  23.368  0.00  0.00    +0.000 OA
ATOM     20  O   UNL     1      -4.469  11.822  24.818  0.00  0.00    +0.000 OA
BRANCH  18  21
ATOM     21  C   UNL     1      -3.526  14.282  24.890  0.00  0.00    +0.000 C 
ATOM     22  C   UNL     1      -3.874  15.655  24.354  0.00  0.00    +0.000 C 
ENDBRANCH  18  21
ENDBRANCH  15  18
ENDBRANCH  11  12
ENDBRANCH   8  11
ENDBRANCH   4   7
BRANCH   1  23
ATOM     23  C   UNL     1       3.601   5.044  18.485  0.00  0.00    +0.000 C 
BRANCH  23  24
ATOM     24  N   UNL     1       5.023   5.223  18.128  0.00  0.00    +0.000 NA
BRANCH  24  25
ATOM     25  C   UNL     1       5.852   5.636  19.271  0.00  0.00    +0.000 C 
BRANCH  25  27
ATOM     26  C   UNL     1       8.019   6.872  18.647  0.00  0.00    +0.000 C 
ATOM     27  C   UNL     1       7.375   5.560  19.069  0.00  0.00    +0.000 C 
ENDBRANCH  25  27
ENDBRANCH  24  25
BRANCH  24  28
ATOM     28  C   UNL     1       5.540   4.063  17.383  0.00  0.00    +0.000 C 
BRANCH  28  29
ATOM     29  C   UNL     1       5.928   4.263  15.925  0.00  0.00    +0.000 A 
ATOM     30  C   UNL     1       7.083   4.982  15.582  0.00  0.00    +0.000 A 
ATOM     31  C   UNL     1       7.499   5.073  14.249  0.00  0.00    +0.000 A 
ATOM     32  C   UNL     1       6.759   4.451  13.246  0.00  0.00    +0.000 A 
ATOM     33 CL   UNL     1       7.307   4.502  11.616  0.00  0.00    +0.000 Cl
ATOM     34  C   UNL     1       5.591   3.766  13.559  0.00  0.00    +0.000 A 
ATOM     35  C   UNL     1       5.182   3.671  14.891  0.00  0.00    +0.000 A 
ENDBRANCH  28  29
ENDBRANCH  24  28
ENDBRANCH  23  24
ENDBRANCH   1  23
TORSDOF 11
ENDMDL
MODEL 6
REMARK VINA RESULT:      -7.1      1.953      2.669
REMARK  Name = 
REMARK  13 active torsions:
REMARK  status: ('A' for Active; 'I' for Inactive)
REMARK    1  A    between atoms: C_1  and  C_2
REMARK    2  A    between atoms: C_2  and  C_3
REMARK    3  A    between atoms: C_3  and  N_4
REMARK    4  A    between atoms: N_4  and  C_5
REMARK    5  A    between atoms: N_4  and  C_13
REMARK    6  A    between atoms: C_5  and  C_6
REMARK    7  A    between atoms: C_13  and  C_14
REMARK    8  A    between atoms: C_17  and  N_18
REMARK    9  A    between atoms: C_19  and  C_21
REMARK   10  A    between atoms: C_21  and  C_22
REMARK   11  A    between atoms: C_25  and  S_26
REMARK   12  A    between atoms: S_26  and  C_29
REMARK   13  A    between atoms: C_29  and  C_30
REMARK                            x       y       z     vdW  Elec       q    Type
REMARK                         _______ _______ _______ _____ _____    ______ ____
ROOT
ATOM      1  C   UNL     1       2.574   7.275  18.580  0.00  0.00    +0.000 A 
ATOM      2  C   UNL     1       2.317   8.318  17.686  0.00  0.00    +0.000 A 
ATOM      3  C   UNL     1       1.608   9.453  18.095  0.00  0.00    +0.000 A 
ATOM      4  C   UNL     1       1.144   9.576  19.407  0.00  0.00    +0.000 A 
ATOM      5  C   UNL     1       1.374   8.520  20.296  0.00  0.00    +0.000 A 
ATOM      6  C   UNL     1       2.073   7.377  19.886  0.00  0.00    +0.000 A 
ENDROOT
BRANCH   4   7
ATOM      7  N   UNL     1       0.490  10.727  19.904  0.00  0.00    +0.000 N 
ATOM      8  C   UNL     1      -0.806  11.130  19.623  0.00  0.00    +0.000 C 
ATOM      9  O   UNL     1      -1.647  10.494  18.990  0.00  0.00    +0.000 OA
ATOM     10  H   UNL     1       1.051  11.341  20.482  0.00  0.00    +0.000 HD
BRANCH   8  11
ATOM     11  C   UNL     1      -1.143  12.525  20.142  0.00  0.00    +0.000 C 
BRANCH  11  12
ATOM     12  C   UNL     1      -2.508  12.557  20.790  0.00  0.00    +0.000 A 
ATOM     13  C   UNL     1      -3.661  12.592  19.990  0.00  0.00    +0.000 A 
ATOM     14  C   UNL     1      -4.919  12.775  20.564  0.00  0.00    +0.000 A 
ATOM     15  C   UNL     1      -5.031  12.884  21.952  0.00  0.00    +0.000 A 
ATOM     16  C   UNL     1      -3.900  12.795  22.767  0.00  0.00    +0.000 A 
ATOM     17  C   UNL     1      -2.640  12.626  22.185  0.00  0.00    +0.000 A 
BRANCH  15  18
ATOM     18  S   UNL     1      -6.615  13.256  22.663  0.00  0.00    +0.000 S 
ATOM     19  O   UNL     1      -7.368  14.012  21.676  0.00  0.00    +0.000 OA
ATOM     20  O   UNL     1      -7.132  12.014  23.204  0.00  0.00    +0.000 OA
BRANCH  18  21
ATOM     21  C   UNL     1      -6.240  14.357  24.017  0.00  0.00    +0.000 C 
ATOM     22  C   UNL     1      -6.178  15.798  23.553  0.00  0.00    +0.000 C 
ENDBRANCH  18  21
ENDBRANCH  15  18
ENDBRANCH  11  12
ENDBRANCH   8  11
ENDBRANCH   4   7
BRANCH   1  23
ATOM     23  C   UNL     1       3.426   6.088  18.172  0.00  0.00    +0.000 C 
BRANCH  23  24
ATOM     24  N   UNL     1       3.871   5.244  19.299  0.00  0.00    +0.000 NA
BRANCH  24  25
ATOM     25  C   UNL     1       2.964   4.117  19.563  0.00  0.00    +0.000 C 
BRANCH  25  27
ATOM     26  C   UNL     1       2.240   2.299  17.894  0.00  0.00    +0.000 C 
ATOM     27  C   UNL     1       2.027   3.713  18.411  0.00  0.00    +0.000 C 
ENDBRANCH  25  27
ENDBRANCH  24  25
BRANCH  24  28
ATOM     28  C   UNL     1       5.289   4.870  19.163  0.00  0.00    +0.000 C 
BRANCH  28  29
ATOM     29  C   UNL     1       5.881   4.806  17.763  0.00  0.00    +0.000 A 
ATOM     30  C   UNL     1       5.407   3.876  16.824  0.00  0.00    +0.000 A 
ATOM     31  C   UNL     1       5.872   3.890  15.505  0.00  0.00    +0.000 A 
ATOM     32  C   UNL     1       6.822   4.830  15.113  0.00  0.00    +0.000 A 
ATOM     33 CL   UNL     1       7.345   4.895  13.475  0.00  0.00    +0.000 Cl
ATOM     34  C   UNL     1       7.334   5.735  16.036  0.00  0.00    +0.000 A 
ATOM     35  C   UNL     1       6.862   5.724  17.350  0.00  0.00    +0.000 A 
ENDBRANCH  28  29
ENDBRANCH  24  28
ENDBRANCH  23  24
ENDBRANCH   1  23
TORSDOF 11
ENDMDL
MODEL 7
REMARK VINA RESULT:      -7.1      3.459      4.902
REMARK  Name = 
REMARK  13 active torsions:
REMARK  status: ('A' for Active; 'I' for Inactive)
REMARK    1  A    between atoms: C_1  and  C_2
REMARK    2  A    between atoms: C_2  and  C_3
REMARK    3  A    between atoms: C_3  and  N_4
REMARK    4  A    between atoms: N_4  and  C_5
REMARK    5  A    between atoms: N_4  and  C_13
REMARK    6  A    between atoms: C_5  and  C_6
REMARK    7  A    between atoms: C_13  and  C_14
REMARK    8  A    between atoms: C_17  and  N_18
REMARK    9  A    between atoms: C_19  and  C_21
REMARK   10  A    between atoms: C_21  and  C_22
REMARK   11  A    between atoms: C_25  and  S_26
REMARK   12  A    between atoms: S_26  and  C_29
REMARK   13  A    between atoms: C_29  and  C_30
REMARK                            x       y       z     vdW  Elec       q    Type
REMARK                         _______ _______ _______ _____ _____    ______ ____
ROOT
ATOM      1  C   UNL     1       2.628   5.935  18.595  0.00  0.00    +0.000 A 
ATOM      2  C   UNL     1       2.656   7.119  17.853  0.00  0.00    +0.000 A 
ATOM      3  C   UNL     1       2.172   8.315  18.396  0.00  0.00    +0.000 A 
ATOM      4  C   UNL     1       1.654   8.357  19.692  0.00  0.00    +0.000 A 
ATOM      5  C   UNL     1       1.598   7.166  20.426  0.00  0.00    +0.000 A 
ATOM      6  C   UNL     1       2.070   5.966  19.881  0.00  0.00    +0.000 A 
ENDROOT
BRANCH   4   7
ATOM      7  N   UNL     1       1.221   9.545  20.327  0.00  0.00    +0.000 N 
ATOM      8  C   UNL     1       0.364  10.499  19.802  0.00  0.00    +0.000 C 
ATOM      9  O   UNL     1      -0.259  10.418  18.745  0.00  0.00    +0.000 OA
ATOM     10  H   UNL     1       1.624   9.733  21.237  0.00  0.00    +0.000 HD
BRANCH   8  11
ATOM     11  C   UNL     1       0.263  11.766  20.647  0.00  0.00    +0.000 C 
BRANCH  11  12
ATOM     12  C   UNL     1       0.940  12.935  19.970  0.00  0.00    +0.000 A 
ATOM     13  C   UNL     1       2.109  12.727  19.220  0.00  0.00    +0.000 A 
ATOM     14  C   UNL     1       2.831  13.809  18.715  0.00  0.00    +0.000 A 
ATOM     15  C   UNL     1       2.361  15.107  18.928  0.00  0.00    +0.000 A 
ATOM     16  C   UNL     1       1.170  15.328  19.624  0.00  0.00    +0.000 A 
ATOM     17  C   UNL     1       0.458  14.241  20.139  0.00  0.00    +0.000 A 
BRANCH  15  18
ATOM     18  S   UNL     1       3.357  16.481  18.405  0.00  0.00    +0.000 S 
ATOM     19  O   UNL     1       3.125  17.568  19.341  0.00  0.00    +0.000 OA
ATOM     20  O   UNL     1       4.692  15.966  18.177  0.00  0.00    +0.000 OA
BRANCH  18  21
ATOM     21  C   UNL     1       2.653  16.960  16.835  0.00  0.00    +0.000 C 
ATOM     22  C   UNL     1       1.549  17.980  17.016  0.00  0.00    +0.000 C 
ENDBRANCH  18  21
ENDBRANCH  15  18
ENDBRANCH  11  12
ENDBRANCH   8  11
ENDBRANCH   4   7
BRANCH   1  23
ATOM     23  C   UNL     1       3.241   4.658  18.050  0.00  0.00    +0.000 C 
BRANCH  23  24
ATOM     24  N   UNL     1       4.422   4.184  18.800  0.00  0.00    +0.000 NA
BRANCH  24  25
ATOM     25  C   UNL     1       4.182   2.913  19.502  0.00  0.00    +0.000 C 
BRANCH  25  27
ATOM     26  C   UNL     1       1.796   1.972  19.315  0.00  0.00    +0.000 C 
ATOM     27  C   UNL     1       3.229   1.923  18.810  0.00  0.00    +0.000 C 
ENDBRANCH  25  27
ENDBRANCH  24  25
BRANCH  24  28
ATOM     28  C   UNL     1       5.633   4.201  17.962  0.00  0.00    +0.000 C 
BRANCH  28  29
ATOM     29  C   UNL     1       6.471   5.471  17.943  0.00  0.00    +0.000 A 
ATOM     30  C   UNL     1       6.173   6.515  17.054  0.00  0.00    +0.000 A 
ATOM     31  C   UNL     1       6.873   7.726  17.112  0.00  0.00    +0.000 A 
ATOM     32  C   UNL     1       7.883   7.900  18.054  0.00  0.00    +0.000 A 
ATOM     33 CL   UNL     1       8.697   9.411  18.174  0.00  0.00    +0.000 Cl
ATOM     34  C   UNL     1       8.220   6.866  18.919  0.00  0.00    +0.000 A 
ATOM     35  C   UNL     1       7.515   5.662  18.864  0.00  0.00    +0.000 A 
ENDBRANCH  28  29
ENDBRANCH  24  28
ENDBRANCH  23  24
ENDBRANCH   1  23
TORSDOF 11
ENDMDL
MODEL 8
REMARK VINA RESULT:      -7.1      4.952     11.371
REMARK  Name = 
REMARK  13 active torsions:
REMARK  status: ('A' for Active; 'I' for Inactive)
REMARK    1  A    between atoms: C_1  and  C_2
REMARK    2  A    between atoms: C_2  and  C_3
REMARK    3  A    between atoms: C_3  and  N_4
REMARK    4  A    between atoms: N_4  and  C_5
REMARK    5  A    between atoms: N_4  and  C_13
REMARK    6  A    between atoms: C_5  and  C_6
REMARK    7  A    between atoms: C_13  and  C_14
REMARK    8  A    between atoms: C_17  and  N_18
REMARK    9  A    between atoms: C_19  and  C_21
REMARK   10  A    between atoms: C_21  and  C_22
REMARK   11  A    between atoms: C_25  and  S_26
REMARK   12  A    between atoms: S_26  and  C_29
REMARK   13  A    between atoms: C_29  and  C_30
REMARK                            x       y       z     vdW  Elec       q    Type
REMARK                         _______ _______ _______ _____ _____    ______ ____
ROOT
ATOM      1  C   UNL     1       0.535  10.204  19.486  0.00  0.00    +0.000 A 
ATOM      2  C   UNL     1       1.132   9.709  18.324  0.00  0.00    +0.000 A 
ATOM      3  C   UNL     1       1.834   8.497  18.340  0.00  0.00    +0.000 A 
ATOM      4  C   UNL     1       1.952   7.752  19.515  0.00  0.00    +0.000 A 
ATOM      5  C   UNL     1       1.380   8.261  20.688  0.00  0.00    +0.000 A 
ATOM      6  C   UNL     1       0.688   9.478  20.676  0.00  0.00    +0.000 A 
ENDROOT
BRANCH   4   7
ATOM      7  N   UNL     1       2.580   6.486  19.582  0.00  0.00    +0.000 N 
ATOM      8  C   UNL     1       2.097   5.354  20.219  0.00  0.00    +0.000 C 
ATOM      9  O   UNL     1       0.987   5.224  20.732  0.00  0.00    +0.000 OA
ATOM     10  H   UNL     1       3.500   6.425  19.163  0.00  0.00    +0.000 HD
BRANCH   8  11
ATOM     11  C   UNL     1       3.106   4.212  20.293  0.00  0.00    +0.000 C 
BRANCH  11  12
ATOM     12  C   UNL     1       4.024   4.210  19.092  0.00  0.00    +0.000 A 
ATOM     13  C   UNL     1       5.289   4.816  19.178  0.00  0.00    +0.000 A 
ATOM     14  C   UNL     1       6.086   4.958  18.043  0.00  0.00    +0.000 A 
ATOM     15  C   UNL     1       5.636   4.455  16.819  0.00  0.00    +0.000 A 
ATOM     16  C   UNL     1       4.406   3.800  16.729  0.00  0.00    +0.000 A 
ATOM     17  C   UNL     1       3.604   3.673  17.867  0.00  0.00    +0.000 A 
BRANCH  15  18
ATOM     18  S   UNL     1       6.593   4.764  15.356  0.00  0.00    +0.000 S 
ATOM     19  O   UNL     1       6.093   5.991  14.760  0.00  0.00    +0.000 OA
ATOM     20  O   UNL     1       7.986   4.632  15.733  0.00  0.00    +0.000 OA
BRANCH  18  21
ATOM     21  C   UNL     1       6.167   3.418  14.262  0.00  0.00    +0.000 C 
ATOM     22  C   UNL     1       5.750   3.929  12.898  0.00  0.00    +0.000 C 
ENDBRANCH  18  21
ENDBRANCH  15  18
ENDBRANCH  11  12
ENDBRANCH   8  11
ENDBRANCH   4   7
BRANCH   1  23
ATOM     23  C   UNL     1      -0.310  11.464  19.454  0.00  0.00    +0.000 C 
BRANCH  23  24
ATOM     24  N   UNL     1       0.448  12.709  19.691  0.00  0.00    +0.000 NA
BRANCH  24  25
ATOM     25  C   UNL     1       0.099  13.780  18.746  0.00  0.00    +0.000 C 
BRANCH  25  27
ATOM     26  C   UNL     1      -0.348  16.310  18.633  0.00  0.00    +0.000 C 
ATOM     27  C   UNL     1       0.567  15.198  19.119  0.00  0.00    +0.000 C 
ENDBRANCH  25  27
ENDBRANCH  24  25
BRANCH  24  28
ATOM     28  C   UNL     1       0.401  13.105  21.110  0.00  0.00    +0.000 C 
BRANCH  28  29
ATOM     29  C   UNL     1      -0.899  12.888  21.870  0.00  0.00    +0.000 A 
ATOM     30  C   UNL     1      -1.070  11.766  22.696  0.00  0.00    +0.000 A 
ATOM     31  C   UNL     1      -2.220  11.624  23.481  0.00  0.00    +0.000 A 
ATOM     32  C   UNL     1      -3.214  12.598  23.439  0.00  0.00    +0.000 A 
ATOM     33 CL   UNL     1      -4.597  12.460  24.455  0.00  0.00    +0.000 Cl
ATOM     34  C   UNL     1      -3.084  13.697  22.600  0.00  0.00    +0.000 A 
ATOM     35  C   UNL     1      -1.931  13.841  21.824  0.00  0.00    +0.000 A 
ENDBRANCH  28  29
ENDBRANCH  24  28
ENDBRANCH  23  24
ENDBRANCH   1  23
TORSDOF 11
ENDMDL
MODEL 9
REMARK VINA RESULT:      -7.1      2.602      3.376
REMARK  Name = 
REMARK  13 active torsions:
REMARK  status: ('A' for Active; 'I' for Inactive)
REMARK    1  A    between atoms: C_1  and  C_2
REMARK    2  A    between atoms: C_2  and  C_3
REMARK    3  A    between atoms: C_3  and  N_4
REMARK    4  A    between atoms: N_4  and  C_5
REMARK    5  A    between atoms: N_4  and  C_13
REMARK    6  A    between atoms: C_5  and  C_6
REMARK    7  A    between atoms: C_13  and  C_14
REMARK    8  A    between atoms: C_17  and  N_18
REMARK    9  A    between atoms: C_19  and  C_21
REMARK   10  A    between atoms: C_21  and  C_22
REMARK   11  A    between atoms: C_25  and  S_26
REMARK   12  A    between atoms: S_26  and  C_29
REMARK   13  A    between atoms: C_29  and  C_30
REMARK                            x       y       z     vdW  Elec       q    Type
REMARK                         _______ _______ _______ _____ _____    ______ ____
ROOT
ATOM      1  C   UNL     1       1.937   8.158  19.074  0.00  0.00    +0.000 A 
ATOM      2  C   UNL     1       1.820   7.792  20.418  0.00  0.00    +0.000 A 
ATOM      3  C   UNL     1       0.982   8.506  21.283  0.00  0.00    +0.000 A 
ATOM      4  C   UNL     1       0.239   9.597  20.825  0.00  0.00    +0.000 A 
ATOM      5  C   UNL     1       0.379   9.983  19.486  0.00  0.00    +0.000 A 
ATOM      6  C   UNL     1       1.225   9.278  18.622  0.00  0.00    +0.000 A 
ENDROOT
BRANCH   4   7
ATOM      7  N   UNL     1      -0.682  10.312  21.626  0.00  0.00    +0.000 N 
ATOM      8  C   UNL     1      -0.525  11.595  22.125  0.00  0.00    +0.000 C 
ATOM      9  O   UNL     1       0.388  12.374  21.859  0.00  0.00    +0.000 OA
ATOM     10  H   UNL     1      -1.516   9.806  21.900  0.00  0.00    +0.000 HD
BRANCH   8  11
ATOM     11  C   UNL     1      -1.600  12.000  23.129  0.00  0.00    +0.000 C 
BRANCH  11  12
ATOM     12  C   UNL     1      -2.839  12.515  22.433  0.00  0.00    +0.000 A 
ATOM     13  C   UNL     1      -4.009  12.752  23.172  0.00  0.00    +0.000 A 
ATOM     14  C   UNL     1      -5.201  13.081  22.527  0.00  0.00    +0.000 A 
ATOM     15  C   UNL     1      -5.216  13.214  21.137  0.00  0.00    +0.000 A 
ATOM     16  C   UNL     1      -4.048  13.038  20.392  0.00  0.00    +0.000 A 
ATOM     17  C   UNL     1      -2.859  12.694  21.042  0.00  0.00    +0.000 A 
BRANCH  15  18
ATOM     18  S   UNL     1      -6.765  13.495  20.314  0.00  0.00    +0.000 S 
ATOM     19  O   UNL     1      -6.480  13.679  18.901  0.00  0.00    +0.000 OA
ATOM     20  O   UNL     1      -7.671  12.456  20.763  0.00  0.00    +0.000 OA
BRANCH  18  21
ATOM     21  C   UNL     1      -7.327  15.062  20.961  0.00  0.00    +0.000 C 
ATOM     22  C   UNL     1      -7.917  15.929  19.868  0.00  0.00    +0.000 C 
ENDBRANCH  18  21
ENDBRANCH  15  18
ENDBRANCH  11  12
ENDBRANCH   8  11
ENDBRANCH   4   7
BRANCH   1  23
ATOM     23  C   UNL     1       2.766   7.330  18.109  0.00  0.00    +0.000 C 
BRANCH  23  24
ATOM     24  N   UNL     1       3.160   6.005  18.631  0.00  0.00    +0.000 NA
BRANCH  24  25
ATOM     25  C   UNL     1       2.311   4.915  18.125  0.00  0.00    +0.000 C 
BRANCH  25  27
ATOM     26  C   UNL     1       0.937   3.921  20.058  0.00  0.00    +0.000 C 
ATOM     27  C   UNL     1       2.085   3.730  19.080  0.00  0.00    +0.000 C 
ENDBRANCH  25  27
ENDBRANCH  24  25
BRANCH  24  28
ATOM     28  C   UNL     1       4.607   5.776  18.476  0.00  0.00    +0.000 C 
BRANCH  28  29
ATOM     29  C   UNL     1       5.113   5.278  17.131  0.00  0.00    +0.000 A 
ATOM     30  C   UNL     1       5.457   3.929  16.947  0.00  0.00    +0.000 A 
ATOM     31  C   UNL     1       5.816   3.448  15.683  0.00  0.00    +0.000 A 
ATOM     32  C   UNL     1       5.841   4.313  14.592  0.00  0.00    +0.000 A 
ATOM     33 CL   UNL     1       6.214   3.710  13.024  0.00  0.00    +0.000 Cl
ATOM     34  C   UNL     1       5.542   5.660  14.759  0.00  0.00    +0.000 A 
ATOM     35  C   UNL     1       5.177   6.136  16.020  0.00  0.00    +0.000 A 
ENDBRANCH  28  29
ENDBRANCH  24  28
ENDBRANCH  23  24
ENDBRANCH   1  23
TORSDOF 11
ENDMDL
