MODEL 1
REMARK VINA RESULT:      -9.8      0.000      0.000
REMARK  Name = 
REMARK  7 active torsions:
REMARK  status: ('A' for Active; 'I' for Inactive)
REMARK    1  A    between atoms: C_1  and  S_2
REMARK    2  A    between atoms: S_2  and  N_5
REMARK    3  A    between atoms: N_5  and  C_6
REMARK    4  A    between atoms: N_5  and  C_20
REMARK    5  A    between atoms: C_6  and  C_7
REMARK    6  A    between atoms: C_13  and  C_14
REMARK    7  A    between atoms: C_23  and  C_24
REMARK                            x       y       z     vdW  Elec       q    Type
REMARK                         _______ _______ _______ _____ _____    ______ ____
ROOT
ATOM      1  N   UNL     1       3.035   4.617  19.136  0.00  0.00    +0.000 N 
ENDROOT
BRANCH   1   2
ATOM      2  C   UNL     1       2.449   5.893  19.400  0.00  0.00    +0.000 A 
ATOM      3  C   UNL     1       1.941   6.285  20.642  0.00  0.00    +0.000 A 
ATOM      4  C   UNL     1       1.433   7.584  20.801  0.00  0.00    +0.000 A 
ATOM      5  C   UNL     1       1.449   8.491  19.728  0.00  0.00    +0.000 A 
ATOM      6  C   UNL     1       2.057   8.106  18.531  0.00  0.00    +0.000 A 
ATOM      7  C   UNL     1       2.503   6.803  18.350  0.00  0.00    +0.000 A 
BRANCH   5   8
ATOM      8  C   UNL     1       0.928   9.876  19.928  0.00  0.00    +0.000 C 
ATOM      9  O   UNL     1       0.947  10.632  18.959  0.00  0.00    +0.000 OA
ATOM     10  N   UNL     1       0.424  10.272  21.157  0.00  0.00    +0.000 N 
ATOM     11  C   UNL     1       0.537   9.671  22.480  0.00  0.00    +0.000 C 
ATOM     12  C   UNL     1      -0.762  10.103  23.138  0.00  0.00    +0.000 C 
ATOM     13  C   UNL     1      -0.891  11.550  22.674  0.00  0.00    +0.000 C 
ATOM     14  C   UNL     1      -0.253  11.555  21.286  0.00  0.00    +0.000 C 
ENDBRANCH   5   8
ENDBRANCH   1   2
BRANCH   1  16
ATOM     15  C   UNL     1       2.910   1.870  18.781  0.00  0.00    +0.000 C 
ATOM     16  S   UNL     1       2.284   3.236  19.755  0.00  0.00    +0.000 S 
ATOM     17  O   UNL     1       0.865   3.338  19.488  0.00  0.00    +0.000 OA
ATOM     18  O   UNL     1       2.760   3.050  21.111  0.00  0.00    +0.000 OA
ENDBRANCH   1  16
BRANCH   1  19
ATOM     19  C   UNL     1       4.523   4.597  19.157  0.00  0.00    +0.000 C 
BRANCH  19  20
ATOM     20  C   UNL     1       5.193   4.946  17.843  0.00  0.00    +0.000 A 
ATOM     21  C   UNL     1       6.343   5.744  17.810  0.00  0.00    +0.000 A 
ATOM     22  C   UNL     1       7.088   5.868  16.631  0.00  0.00    +0.000 A 
ATOM     23  C   UNL     1       6.706   5.188  15.463  0.00  0.00    +0.000 A 
ATOM     24  C   UNL     1       7.503   5.195  14.305  0.00  0.00    +0.000 A 
ATOM     25  C   UNL     1       7.132   4.455  13.177  0.00  0.00    +0.000 A 
ATOM     26  C   UNL     1       5.935   3.733  13.176  0.00  0.00    +0.000 A 
ATOM     27  C   UNL     1       5.120   3.747  14.313  0.00  0.00    +0.000 A 
ATOM     28  C   UNL     1       5.508   4.442  15.470  0.00  0.00    +0.000 A 
ATOM     29  C   UNL     1       4.756   4.352  16.651  0.00  0.00    +0.000 A 
BRANCH  26  30
ATOM     30  C   UNL     1       5.547   2.895  12.005  0.00  0.00    +0.000 C 
ATOM     31  N   UNL     1       6.286   1.940  11.537  0.00  0.00    +0.000 NA
ATOM     32  N   UNL     1       4.351   3.098  11.382  0.00  0.00    +0.000 N 
ATOM     33  H   UNL     1       7.179   1.879  12.030  0.00  0.00    +0.000 HD
ATOM     34  H   UNL     1       3.573   3.347  11.980  0.00  0.00    +0.000 HD
ATOM     35  H   UNL     1       4.131   2.328  10.758  0.00  0.00    +0.000 HD
ENDBRANCH  26  30
ENDBRANCH  19  20
ENDBRANCH   1  19
TORSDOF 6
ENDMDL
MODEL 2
REMARK VINA RESULT:      -9.7      1.337      1.843
REMARK  Name = 
REMARK  7 active torsions:
REMARK  status: ('A' for Active; 'I' for Inactive)
REMARK    1  A    between atoms: C_1  and  S_2
REMARK    2  A    between atoms: S_2  and  N_5
REMARK    3  A    between atoms: N_5  and  C_6
REMARK    4  A    between atoms: N_5  and  C_20
REMARK    5  A    between atoms: C_6  and  C_7
REMARK    6  A    between atoms: C_13  and  C_14
REMARK    7  A    between atoms: C_23  and  C_24
REMARK                            x       y       z     vdW  Elec       q    Type
REMARK                         _______ _______ _______ _____ _____    ______ ____
ROOT
ATOM      1  N   UNL     1       2.984   5.067  19.231  0.00  0.00    +0.000 N 
ENDROOT
BRANCH   1   2
ATOM      2  C   UNL     1       2.379   6.352  19.392  0.00  0.00    +0.000 A 
ATOM      3  C   UNL     1       1.892   6.847  20.606  0.00  0.00    +0.000 A 
ATOM      4  C   UNL     1       1.362   8.145  20.658  0.00  0.00    +0.000 A 
ATOM      5  C   UNL     1       1.334   8.950  19.507  0.00  0.00    +0.000 A 
ATOM      6  C   UNL     1       1.922   8.469  18.335  0.00  0.00    +0.000 A 
ATOM      7  C   UNL     1       2.390   7.163  18.263  0.00  0.00    +0.000 A 
BRANCH   5   8
ATOM      8  C   UNL     1       0.791  10.338  19.593  0.00  0.00    +0.000 C 
ATOM      9  O   UNL     1       1.458  11.169  20.207  0.00  0.00    +0.000 OA
ATOM     10  N   UNL     1      -0.407  10.669  18.979  0.00  0.00    +0.000 N 
ATOM     11  C   UNL     1      -1.474   9.833  18.443  0.00  0.00    +0.000 C 
ATOM     12  C   UNL     1      -2.026  10.700  17.325  0.00  0.00    +0.000 C 
ATOM     13  C   UNL     1      -2.027  12.085  17.963  0.00  0.00    +0.000 C 
ATOM     14  C   UNL     1      -0.827  12.061  18.908  0.00  0.00    +0.000 C 
ENDBRANCH   5   8
ENDBRANCH   1   2
BRANCH   1  16
ATOM     15  C   UNL     1       2.846   2.309  18.992  0.00  0.00    +0.000 C 
ATOM     16  S   UNL     1       2.214   3.719  19.897  0.00  0.00    +0.000 S 
ATOM     17  O   UNL     1       0.800   3.818  19.604  0.00  0.00    +0.000 OA
ATOM     18  O   UNL     1       2.669   3.588  21.266  0.00  0.00    +0.000 OA
ENDBRANCH   1  16
BRANCH   1  19
ATOM     19  C   UNL     1       4.469   5.062  19.318  0.00  0.00    +0.000 C 
BRANCH  19  20
ATOM     20  C   UNL     1       5.195   5.312  18.012  0.00  0.00    +0.000 A 
ATOM     21  C   UNL     1       6.419   5.993  17.986  0.00  0.00    +0.000 A 
ATOM     22  C   UNL     1       7.196   6.016  16.822  0.00  0.00    +0.000 A 
ATOM     23  C   UNL     1       6.771   5.349  15.661  0.00  0.00    +0.000 A 
ATOM     24  C   UNL     1       7.587   5.250  14.520  0.00  0.00    +0.000 A 
ATOM     25  C   UNL     1       7.167   4.525  13.401  0.00  0.00    +0.000 A 
ATOM     26  C   UNL     1       5.905   3.924  13.389  0.00  0.00    +0.000 A 
ATOM     27  C   UNL     1       5.073   4.044  14.508  0.00  0.00    +0.000 A 
ATOM     28  C   UNL     1       5.505   4.724  15.658  0.00  0.00    +0.000 A 
ATOM     29  C   UNL     1       4.726   4.736  16.824  0.00  0.00    +0.000 A 
BRANCH  26  30
ATOM     30  C   UNL     1       5.458   3.100  12.229  0.00  0.00    +0.000 C 
ATOM     31  N   UNL     1       4.371   3.336  11.565  0.00  0.00    +0.000 NA
ATOM     32  N   UNL     1       6.214   2.050  11.801  0.00  0.00    +0.000 N 
ATOM     33  H   UNL     1       3.842   4.110  11.972  0.00  0.00    +0.000 HD
ATOM     34  H   UNL     1       7.219   2.175  11.848  0.00  0.00    +0.000 HD
ATOM     35  H   UNL     1       5.906   1.728  10.889  0.00  0.00    +0.000 HD
ENDBRANCH  26  30
ENDBRANCH  19  20
ENDBRANCH   1  19
TORSDOF 6
ENDMDL
MODEL 3
REMARK VINA RESULT:      -9.7      2.183      9.116
REMARK  Name = 
REMARK  7 active torsions:
REMARK  status: ('A' for Active; 'I' for Inactive)
REMARK    1  A    between atoms: C_1  and  S_2
REMARK    2  A    between atoms: S_2  and  N_5
REMARK    3  A    between atoms: N_5  and  C_6
REMARK    4  A    between atoms: N_5  and  C_20
REMARK    5  A    between atoms: C_6  and  C_7
REMARK    6  A    between atoms: C_13  and  C_14
REMARK    7  A    between atoms: C_23  and  C_24
REMARK                            x       y       z     vdW  Elec       q    Type
REMARK                         _______ _______ _______ _____ _____    ______ ____
ROOT
ATOM      1  N   UNL     1       3.432   4.105  19.476  0.00  0.00    +0.000 N 
ENDROOT
BRANCH   1   2
ATOM      2  C   UNL     1       4.309   4.447  18.400  0.00  0.00    +0.000 A 
ATOM      3  C   UNL     1       5.473   5.207  18.544  0.00  0.00    +0.000 A 
ATOM      4  C   UNL     1       6.288   5.439  17.424  0.00  0.00    +0.000 A 
ATOM      5  C   UNL     1       5.949   4.900  16.173  0.00  0.00    +0.000 A 
ATOM      6  C   UNL     1       4.838   4.058  16.081  0.00  0.00    +0.000 A 
ATOM      7  C   UNL     1       3.995   3.878  17.171  0.00  0.00    +0.000 A 
BRANCH   5   8
ATOM      8  C   UNL     1       6.845   5.137  15.003  0.00  0.00    +0.000 C 
ATOM      9  O   UNL     1       7.848   5.822  15.189  0.00  0.00    +0.000 OA
ATOM     10  N   UNL     1       6.559   4.579  13.766  0.00  0.00    +0.000 N 
ATOM     11  C   UNL     1       5.339   3.975  13.245  0.00  0.00    +0.000 C 
ATOM     12  C   UNL     1       5.883   2.961  12.255  0.00  0.00    +0.000 C 
ATOM     13  C   UNL     1       7.012   3.738  11.587  0.00  0.00    +0.000 C 
ATOM     14  C   UNL     1       7.535   4.657  12.689  0.00  0.00    +0.000 C 
ENDBRANCH   5   8
ENDBRANCH   1   2
BRANCH   1  16
ATOM     15  C   UNL     1       2.643   2.612  21.675  0.00  0.00    +0.000 C 
ATOM     16  S   UNL     1       3.482   2.534  20.094  0.00  0.00    +0.000 S 
ATOM     17  O   UNL     1       4.865   2.199  20.359  0.00  0.00    +0.000 OA
ATOM     18  O   UNL     1       2.681   1.697  19.225  0.00  0.00    +0.000 OA
ENDBRANCH   1  16
BRANCH   1  19
ATOM     19  C   UNL     1       2.078   4.717  19.394  0.00  0.00    +0.000 C 
BRANCH  19  20
ATOM     20  C   UNL     1       2.051   6.232  19.388  0.00  0.00    +0.000 A 
ATOM     21  C   UNL     1       2.366   6.953  18.229  0.00  0.00    +0.000 A 
ATOM     22  C   UNL     1       2.114   8.328  18.158  0.00  0.00    +0.000 A 
ATOM     23  C   UNL     1       1.532   9.010  19.240  0.00  0.00    +0.000 A 
ATOM     24  C   UNL     1       1.154  10.362  19.149  0.00  0.00    +0.000 A 
ATOM     25  C   UNL     1       0.516  10.999  20.218  0.00  0.00    +0.000 A 
ATOM     26  C   UNL     1       0.287  10.306  21.410  0.00  0.00    +0.000 A 
ATOM     27  C   UNL     1       0.689   8.970  21.520  0.00  0.00    +0.000 A 
ATOM     28  C   UNL     1       1.281   8.304  20.435  0.00  0.00    +0.000 A 
ATOM     29  C   UNL     1       1.567   6.932  20.501  0.00  0.00    +0.000 A 
BRANCH  26  30
ATOM     30  C   UNL     1      -0.439  10.948  22.543  0.00  0.00    +0.000 C 
ATOM     31  N   UNL     1      -0.452  12.228  22.746  0.00  0.00    +0.000 NA
ATOM     32  N   UNL     1      -1.154  10.188  23.420  0.00  0.00    +0.000 N 
ATOM     33  H   UNL     1       0.138  12.721  22.074  0.00  0.00    +0.000 HD
ATOM     34  H   UNL     1      -1.639   9.391  23.026  0.00  0.00    +0.000 HD
ATOM     35  H   UNL     1      -1.760  10.767  23.993  0.00  0.00    +0.000 HD
ENDBRANCH  26  30
ENDBRANCH  19  20
ENDBRANCH   1  19
TORSDOF 6
ENDMDL
MODEL 4
REMARK VINA RESULT:      -9.6      2.112      8.966
REMARK  Name = 
REMARK  7 active torsions:
REMARK  status: ('A' for Active; 'I' for Inactive)
REMARK    1  A    between atoms: C_1  and  S_2
REMARK    2  A    between atoms: S_2  and  N_5
REMARK    3  A    between atoms: N_5  and  C_6
REMARK    4  A    between atoms: N_5  and  C_20
REMARK    5  A    between atoms: C_6  and  C_7
REMARK    6  A    between atoms: C_13  and  C_14
REMARK    7  A    between atoms: C_23  and  C_24
REMARK                            x       y       z     vdW  Elec       q    Type
REMARK                         _______ _______ _______ _____ _____    ______ ____
ROOT
ATOM      1  N   UNL     1       3.423   4.041  19.711  0.00  0.00    +0.000 N 
ENDROOT
BRANCH   1   2
ATOM      2  C   UNL     1       4.251   4.258  18.565  0.00  0.00    +0.000 A 
ATOM      3  C   UNL     1       3.944   3.813  17.277  0.00  0.00    +0.000 A 
ATOM      4  C   UNL     1       4.808   4.127  16.215  0.00  0.00    +0.000 A 
ATOM      5  C   UNL     1       5.962   4.896  16.439  0.00  0.00    +0.000 A 
ATOM      6  C   UNL     1       6.187   5.415  17.716  0.00  0.00    +0.000 A 
ATOM      7  C   UNL     1       5.371   5.054  18.781  0.00  0.00    +0.000 A 
BRANCH   5   8
ATOM      8  C   UNL     1       6.850   5.241  15.290  0.00  0.00    +0.000 C 
ATOM      9  O   UNL     1       7.808   5.978  15.517  0.00  0.00    +0.000 OA
ATOM     10  N   UNL     1       6.608   4.723  14.027  0.00  0.00    +0.000 N 
ATOM     11  C   UNL     1       5.432   4.070  13.467  0.00  0.00    +0.000 C 
ATOM     12  C   UNL     1       6.045   3.137  12.438  0.00  0.00    +0.000 C 
ATOM     13  C   UNL     1       7.128   4.012  11.817  0.00  0.00    +0.000 C 
ATOM     14  C   UNL     1       7.586   4.910  12.965  0.00  0.00    +0.000 C 
ENDBRANCH   5   8
ENDBRANCH   1   2
BRANCH   1  16
ATOM     15  C   UNL     1       2.357   1.487  19.551  0.00  0.00    +0.000 C 
ATOM     16  S   UNL     1       3.476   2.536  20.476  0.00  0.00    +0.000 S 
ATOM     17  O   UNL     1       2.923   2.687  21.805  0.00  0.00    +0.000 OA
ATOM     18  O   UNL     1       4.811   2.002  20.296  0.00  0.00    +0.000 OA
ENDBRANCH   1  16
BRANCH   1  19
ATOM     19  C   UNL     1       2.078   4.673  19.636  0.00  0.00    +0.000 C 
BRANCH  19  20
ATOM     20  C   UNL     1       2.078   6.181  19.491  0.00  0.00    +0.000 A 
ATOM     21  C   UNL     1       2.410   6.788  18.273  0.00  0.00    +0.000 A 
ATOM     22  C   UNL     1       2.184   8.155  18.074  0.00  0.00    +0.000 A 
ATOM     23  C   UNL     1       1.610   8.943  19.086  0.00  0.00    +0.000 A 
ATOM     24  C   UNL     1       1.256  10.287  18.870  0.00  0.00    +0.000 A 
ATOM     25  C   UNL     1       0.626  11.030  19.873  0.00  0.00    +0.000 A 
ATOM     26  C   UNL     1       0.380  10.454  21.122  0.00  0.00    +0.000 A 
ATOM     27  C   UNL     1       0.758   9.126  21.356  0.00  0.00    +0.000 A 
ATOM     28  C   UNL     1       1.342   8.354  20.340  0.00  0.00    +0.000 A 
ATOM     29  C   UNL     1       1.603   6.989  20.532  0.00  0.00    +0.000 A 
BRANCH  26  30
ATOM     30  C   UNL     1      -0.339  11.210  22.187  0.00  0.00    +0.000 C 
ATOM     31  N   UNL     1      -0.686  10.687  23.321  0.00  0.00    +0.000 NA
ATOM     32  N   UNL     1      -0.647  12.526  22.007  0.00  0.00    +0.000 N 
ATOM     33  H   UNL     1      -0.457   9.692  23.361  0.00  0.00    +0.000 HD
ATOM     34  H   UNL     1       0.039  13.079  21.507  0.00  0.00    +0.000 HD
ATOM     35  H   UNL     1      -0.931  12.956  22.882  0.00  0.00    +0.000 HD
ENDBRANCH  26  30
ENDBRANCH  19  20
ENDBRANCH   1  19
TORSDOF 6
ENDMDL
MODEL 5
REMARK VINA RESULT:      -9.6      0.716      1.010
REMARK  Name = 
REMARK  7 active torsions:
REMARK  status: ('A' for Active; 'I' for Inactive)
REMARK    1  A    between atoms: C_1  and  S_2
REMARK    2  A    between atoms: S_2  and  N_5
REMARK    3  A    between atoms: N_5  and  C_6
REMARK    4  A    between atoms: N_5  and  C_20
REMARK    5  A    between atoms: C_6  and  C_7
REMARK    6  A    between atoms: C_13  and  C_14
REMARK    7  A    between atoms: C_23  and  C_24
REMARK                            x       y       z     vdW  Elec       q    Type
REMARK                         _______ _______ _______ _____ _____    ______ ____
ROOT
ATOM      1  N   UNL     1       3.238   4.344  19.122  0.00  0.00    +0.000 N 
ENDROOT
BRANCH   1   2
ATOM      2  C   UNL     1       2.609   5.602  19.377  0.00  0.00    +0.000 A 
ATOM      3  C   UNL     1       2.111   5.996  20.622  0.00  0.00    +0.000 A 
ATOM      4  C   UNL     1       1.557   7.278  20.769  0.00  0.00    +0.000 A 
ATOM      5  C   UNL     1       1.518   8.166  19.682  0.00  0.00    +0.000 A 
ATOM      6  C   UNL     1       2.118   7.785  18.479  0.00  0.00    +0.000 A 
ATOM      7  C   UNL     1       2.609   6.496  18.311  0.00  0.00    +0.000 A 
BRANCH   5   8
ATOM      8  C   UNL     1       0.950   9.534  19.870  0.00  0.00    +0.000 C 
ATOM      9  O   UNL     1       0.869  10.254  18.876  0.00  0.00    +0.000 OA
ATOM     10  N   UNL     1       0.513   9.954  21.116  0.00  0.00    +0.000 N 
ATOM     11  C   UNL     1       0.741   9.408  22.448  0.00  0.00    +0.000 C 
ATOM     12  C   UNL     1      -0.528   9.808  23.179  0.00  0.00    +0.000 C 
ATOM     13  C   UNL     1      -0.754  11.230  22.676  0.00  0.00    +0.000 C 
ATOM     14  C   UNL     1      -0.212  11.210  21.247  0.00  0.00    +0.000 C 
ENDBRANCH   5   8
ENDBRANCH   1   2
BRANCH   1  16
ATOM     15  C   UNL     1       0.790   3.130  19.593  0.00  0.00    +0.000 C 
ATOM     16  S   UNL     1       2.561   2.950  19.793  0.00  0.00    +0.000 S 
ATOM     17  O   UNL     1       2.834   2.956  21.215  0.00  0.00    +0.000 OA
ATOM     18  O   UNL     1       2.973   1.827  18.975  0.00  0.00    +0.000 OA
ENDBRANCH   1  16
BRANCH   1  19
ATOM     19  C   UNL     1       4.724   4.384  19.096  0.00  0.00    +0.000 C 
BRANCH  19  20
ATOM     20  C   UNL     1       5.339   4.746  17.760  0.00  0.00    +0.000 A 
ATOM     21  C   UNL     1       6.507   5.517  17.689  0.00  0.00    +0.000 A 
ATOM     22  C   UNL     1       7.198   5.650  16.478  0.00  0.00    +0.000 A 
ATOM     23  C   UNL     1       6.742   5.007  15.315  0.00  0.00    +0.000 A 
ATOM     24  C   UNL     1       7.483   5.021  14.120  0.00  0.00    +0.000 A 
ATOM     25  C   UNL     1       7.039   4.318  12.996  0.00  0.00    +0.000 A 
ATOM     26  C   UNL     1       5.825   3.627  13.036  0.00  0.00    +0.000 A 
ATOM     27  C   UNL     1       5.066   3.634  14.212  0.00  0.00    +0.000 A 
ATOM     28  C   UNL     1       5.527   4.291  15.363  0.00  0.00    +0.000 A 
ATOM     29  C   UNL     1       4.831   4.192  16.578  0.00  0.00    +0.000 A 
BRANCH  26  30
ATOM     30  C   UNL     1       5.359   2.826  11.868  0.00  0.00    +0.000 C 
ATOM     31  N   UNL     1       4.286   3.103  11.197  0.00  0.00    +0.000 NA
ATOM     32  N   UNL     1       6.082   1.753  11.438  0.00  0.00    +0.000 N 
ATOM     33  H   UNL     1       3.781   3.892  11.606  0.00  0.00    +0.000 HD
ATOM     34  H   UNL     1       7.090   1.844  11.493  0.00  0.00    +0.000 HD
ATOM     35  H   UNL     1       5.769   1.447  10.522  0.00  0.00    +0.000 HD
ENDBRANCH  26  30
ENDBRANCH  19  20
ENDBRANCH   1  19
TORSDOF 6
ENDMDL
MODEL 6
REMARK VINA RESULT:      -9.5      2.025      9.129
REMARK  Name = 
REMARK  7 active torsions:
REMARK  status: ('A' for Active; 'I' for Inactive)
REMARK    1  A    between atoms: C_1  and  S_2
REMARK    2  A    between atoms: S_2  and  N_5
REMARK    3  A    between atoms: N_5  and  C_6
REMARK    4  A    between atoms: N_5  and  C_20
REMARK    5  A    between atoms: C_6  and  C_7
REMARK    6  A    between atoms: C_13  and  C_14
REMARK    7  A    between atoms: C_23  and  C_24
REMARK                            x       y       z     vdW  Elec       q    Type
REMARK                         _______ _______ _______ _____ _____    ______ ____
ROOT
ATOM      1  N   UNL     1       3.695   4.021  19.294  0.00  0.00    +0.000 N 
ENDROOT
BRANCH   1   2
ATOM      2  C   UNL     1       4.540   4.322  18.181  0.00  0.00    +0.000 A 
ATOM      3  C   UNL     1       5.840   4.821  18.291  0.00  0.00    +0.000 A 
ATOM      4  C   UNL     1       6.598   5.033  17.128  0.00  0.00    +0.000 A 
ATOM      5  C   UNL     1       6.064   4.731  15.865  0.00  0.00    +0.000 A 
ATOM      6  C   UNL     1       4.803   4.136  15.793  0.00  0.00    +0.000 A 
ATOM      7  C   UNL     1       4.025   3.983  16.934  0.00  0.00    +0.000 A 
BRANCH   5   8
ATOM      8  C   UNL     1       6.899   4.939  14.645  0.00  0.00    +0.000 C 
ATOM      9  O   UNL     1       7.890   5.658  14.754  0.00  0.00    +0.000 OA
ATOM     10  N   UNL     1       6.572   4.318  13.449  0.00  0.00    +0.000 N 
ATOM     11  C   UNL     1       5.347   3.660  13.012  0.00  0.00    +0.000 C 
ATOM     12  C   UNL     1       5.873   2.617  12.043  0.00  0.00    +0.000 C 
ATOM     13  C   UNL     1       6.948   3.393  11.289  0.00  0.00    +0.000 C 
ATOM     14  C   UNL     1       7.495   4.374  12.325  0.00  0.00    +0.000 C 
ENDBRANCH   5   8
ENDBRANCH   1   2
BRANCH   1  16
ATOM     15  C   UNL     1       3.476   1.324  18.688  0.00  0.00    +0.000 C 
ATOM     16  S   UNL     1       3.806   2.492  20.005  0.00  0.00    +0.000 S 
ATOM     17  O   UNL     1       2.733   2.365  20.969  0.00  0.00    +0.000 OA
ATOM     18  O   UNL     1       5.182   2.299  20.414  0.00  0.00    +0.000 OA
ENDBRANCH   1  16
BRANCH   1  19
ATOM     19  C   UNL     1       2.322   4.586  19.206  0.00  0.00    +0.000 C 
BRANCH  19  20
ATOM     20  C   UNL     1       2.242   6.099  19.231  0.00  0.00    +0.000 A 
ATOM     21  C   UNL     1       2.507   6.854  18.082  0.00  0.00    +0.000 A 
ATOM     22  C   UNL     1       2.206   8.221  18.044  0.00  0.00    +0.000 A 
ATOM     23  C   UNL     1       1.623   8.860  19.152  0.00  0.00    +0.000 A 
ATOM     24  C   UNL     1       1.196  10.199  19.097  0.00  0.00    +0.000 A 
ATOM     25  C   UNL     1       0.560  10.791  20.192  0.00  0.00    +0.000 A 
ATOM     26  C   UNL     1       0.380  10.067  21.374  0.00  0.00    +0.000 A 
ATOM     27  C   UNL     1       0.831   8.744  21.448  0.00  0.00    +0.000 A 
ATOM     28  C   UNL     1       1.422   8.121  20.337  0.00  0.00    +0.000 A 
ATOM     29  C   UNL     1       1.757   6.759  20.369  0.00  0.00    +0.000 A 
BRANCH  26  30
ATOM     30  C   UNL     1      -0.344  10.661  22.534  0.00  0.00    +0.000 C 
ATOM     31  N   UNL     1      -0.625  10.000  23.612  0.00  0.00    +0.000 NA
ATOM     32  N   UNL     1      -0.730  11.968  22.507  0.00  0.00    +0.000 N 
ATOM     33  H   UNL     1      -0.340   9.021  23.537  0.00  0.00    +0.000 HD
ATOM     34  H   UNL     1      -0.093  12.611  22.053  0.00  0.00    +0.000 HD
ATOM     35  H   UNL     1      -1.009  12.284  23.431  0.00  0.00    +0.000 HD
ENDBRANCH  26  30
ENDBRANCH  19  20
ENDBRANCH   1  19
TORSDOF 6
ENDMDL
MODEL 7
REMARK VINA RESULT:      -9.4      1.599      2.333
REMARK  Name = 
REMARK  7 active torsions:
REMARK  status: ('A' for Active; 'I' for Inactive)
REMARK    1  A    between atoms: C_1  and  S_2
REMARK    2  A    between atoms: S_2  and  N_5
REMARK    3  A    between atoms: N_5  and  C_6
REMARK    4  A    between atoms: N_5  and  C_20
REMARK    5  A    between atoms: C_6  and  C_7
REMARK    6  A    between atoms: C_13  and  C_14
REMARK    7  A    between atoms: C_23  and  C_24
REMARK                            x       y       z     vdW  Elec       q    Type
REMARK                         _______ _______ _______ _____ _____    ______ ____
ROOT
ATOM      1  N   UNL     1       3.050   5.561  19.064  0.00  0.00    +0.000 N 
ENDROOT
BRANCH   1   2
ATOM      2  C   UNL     1       2.465   6.863  19.005  0.00  0.00    +0.000 A 
ATOM      3  C   UNL     1       2.227   7.568  17.822  0.00  0.00    +0.000 A 
ATOM      4  C   UNL     1       1.599   8.822  17.881  0.00  0.00    +0.000 A 
ATOM      5  C   UNL     1       1.196   9.360  19.114  0.00  0.00    +0.000 A 
ATOM      6  C   UNL     1       1.351   8.588  20.268  0.00  0.00    +0.000 A 
ATOM      7  C   UNL     1       2.029   7.376  20.222  0.00  0.00    +0.000 A 
BRANCH   5   8
ATOM      8  C   UNL     1       0.504  10.683  19.149  0.00  0.00    +0.000 C 
ATOM      9  O   UNL     1      -0.663  10.701  19.535  0.00  0.00    +0.000 OA
ATOM     10  N   UNL     1       1.172  11.841  18.781  0.00  0.00    +0.000 N 
ATOM     11  C   UNL     1       2.423  12.040  18.060  0.00  0.00    +0.000 C 
ATOM     12  C   UNL     1       2.924  13.348  18.645  0.00  0.00    +0.000 C 
ATOM     13  C   UNL     1       1.644  14.172  18.729  0.00  0.00    +0.000 C 
ATOM     14  C   UNL     1       0.552  13.139  19.002  0.00  0.00    +0.000 C 
ENDBRANCH   5   8
ENDBRANCH   1   2
BRANCH   1  16
ATOM     15  C   UNL     1       3.210   2.861  19.675  0.00  0.00    +0.000 C 
ATOM     16  S   UNL     1       2.255   4.354  19.938  0.00  0.00    +0.000 S 
ATOM     17  O   UNL     1       0.956   4.143  19.336  0.00  0.00    +0.000 OA
ATOM     18  O   UNL     1       2.364   4.690  21.343  0.00  0.00    +0.000 OA
ENDBRANCH   1  16
BRANCH   1  19
ATOM     19  C   UNL     1       4.534   5.548  19.162  0.00  0.00    +0.000 C 
BRANCH  19  20
ATOM     20  C   UNL     1       5.271   5.662  17.843  0.00  0.00    +0.000 A 
ATOM     21  C   UNL     1       6.539   6.254  17.774  0.00  0.00    +0.000 A 
ATOM     22  C   UNL     1       7.311   6.148  16.611  0.00  0.00    +0.000 A 
ATOM     23  C   UNL     1       6.837   5.439  15.495  0.00  0.00    +0.000 A 
ATOM     24  C   UNL     1       7.641   5.211  14.364  0.00  0.00    +0.000 A 
ATOM     25  C   UNL     1       7.167   4.445  13.294  0.00  0.00    +0.000 A 
ATOM     26  C   UNL     1       5.867   3.933  13.320  0.00  0.00    +0.000 A 
ATOM     27  C   UNL     1       5.049   4.183  14.428  0.00  0.00    +0.000 A 
ATOM     28  C   UNL     1       5.532   4.904  15.532  0.00  0.00    +0.000 A 
ATOM     29  C   UNL     1       4.759   5.045  16.694  0.00  0.00    +0.000 A 
BRANCH  26  30
ATOM     30  C   UNL     1       5.360   3.069  12.215  0.00  0.00    +0.000 C 
ATOM     31  N   UNL     1       4.284   3.331  11.543  0.00  0.00    +0.000 NA
ATOM     32  N   UNL     1       6.047   1.950  11.848  0.00  0.00    +0.000 N 
ATOM     33  H   UNL     1       3.807   4.159  11.904  0.00  0.00    +0.000 HD
ATOM     34  H   UNL     1       7.057   2.016  11.883  0.00  0.00    +0.000 HD
ATOM     35  H   UNL     1       5.711   1.592  10.959  0.00  0.00    +0.000 HD
ENDBRANCH  26  30
ENDBRANCH  19  20
ENDBRANCH   1  19
TORSDOF 6
ENDMDL
MODEL 8
REMARK VINA RESULT:      -9.4      1.224      1.821
REMARK  Name = 
REMARK  7 active torsions:
REMARK  status: ('A' for Active; 'I' for Inactive)
REMARK    1  A    between atoms: C_1  and  S_2
REMARK    2  A    between atoms: S_2  and  N_5
REMARK    3  A    between atoms: N_5  and  C_6
REMARK    4  A    between atoms: N_5  and  C_20
REMARK    5  A    between atoms: C_6  and  C_7
REMARK    6  A    between atoms: C_13  and  C_14
REMARK    7  A    between atoms: C_23  and  C_24
REMARK                            x       y       z     vdW  Elec       q    Type
REMARK                         _______ _______ _______ _____ _____    ______ ____
ROOT
ATOM      1  N   UNL     1       2.750   5.262  18.898  0.00  0.00    +0.000 N 
ENDROOT
BRANCH   1   2
ATOM      2  C   UNL     1       2.289   6.564  19.266  0.00  0.00    +0.000 A 
ATOM      3  C   UNL     1       2.202   7.647  18.387  0.00  0.00    +0.000 A 
ATOM      4  C   UNL     1       1.685   8.869  18.846  0.00  0.00    +0.000 A 
ATOM      5  C   UNL     1       1.242   9.001  20.172  0.00  0.00    +0.000 A 
ATOM      6  C   UNL     1       1.243   7.874  20.998  0.00  0.00    +0.000 A 
ATOM      7  C   UNL     1       1.812   6.682  20.567  0.00  0.00    +0.000 A 
BRANCH   5   8
ATOM      8  C   UNL     1       0.670  10.302  20.630  0.00  0.00    +0.000 C 
ATOM      9  O   UNL     1       1.180  10.827  21.618  0.00  0.00    +0.000 OA
ATOM     10  N   UNL     1      -0.379  10.895  19.945  0.00  0.00    +0.000 N 
ATOM     11  C   UNL     1      -1.297  10.362  18.946  0.00  0.00    +0.000 C 
ATOM     12  C   UNL     1      -1.617  11.593  18.118  0.00  0.00    +0.000 C 
ATOM     13  C   UNL     1      -1.774  12.668  19.188  0.00  0.00    +0.000 C 
ATOM     14  C   UNL     1      -0.797  12.247  20.285  0.00  0.00    +0.000 C 
ENDBRANCH   5   8
ENDBRANCH   1   2
BRANCH   1  16
ATOM     15  C   UNL     1       2.951   2.580  19.569  0.00  0.00    +0.000 C 
ATOM     16  S   UNL     1       1.799   3.923  19.294  0.00  0.00    +0.000 S 
ATOM     17  O   UNL     1       1.005   3.577  18.134  0.00  0.00    +0.000 OA
ATOM     18  O   UNL     1       1.157   4.204  20.562  0.00  0.00    +0.000 OA
ENDBRANCH   1  16
BRANCH   1  19
ATOM     19  C   UNL     1       4.219   5.062  19.026  0.00  0.00    +0.000 C 
BRANCH  19  20
ATOM     20  C   UNL     1       5.013   5.268  17.752  0.00  0.00    +0.000 A 
ATOM     21  C   UNL     1       6.253   5.920  17.773  0.00  0.00    +0.000 A 
ATOM     22  C   UNL     1       7.086   5.900  16.648  0.00  0.00    +0.000 A 
ATOM     23  C   UNL     1       6.701   5.220  15.480  0.00  0.00    +0.000 A 
ATOM     24  C   UNL     1       7.570   5.078  14.383  0.00  0.00    +0.000 A 
ATOM     25  C   UNL     1       7.187   4.340  13.259  0.00  0.00    +0.000 A 
ATOM     26  C   UNL     1       5.913   3.768  13.197  0.00  0.00    +0.000 A 
ATOM     27  C   UNL     1       5.030   3.931  14.272  0.00  0.00    +0.000 A 
ATOM     28  C   UNL     1       5.423   4.624  15.428  0.00  0.00    +0.000 A 
ATOM     29  C   UNL     1       4.588   4.678  16.554  0.00  0.00    +0.000 A 
BRANCH  26  30
ATOM     30  C   UNL     1       5.503   2.932  12.033  0.00  0.00    +0.000 C 
ATOM     31  N   UNL     1       6.168   1.894  11.633  0.00  0.00    +0.000 NA
ATOM     32  N   UNL     1       4.366   3.227  11.341  0.00  0.00    +0.000 N 
ATOM     33  H   UNL     1       7.024   1.765  12.175  0.00  0.00    +0.000 HD
ATOM     34  H   UNL     1       3.587   3.570  11.890  0.00  0.00    +0.000 HD
ATOM     35  H   UNL     1       4.103   2.461  10.729  0.00  0.00    +0.000 HD
ENDBRANCH  26  30
ENDBRANCH  19  20
ENDBRANCH   1  19
TORSDOF 6
ENDMDL
MODEL 9
REMARK VINA RESULT:      -9.3      1.285      1.826
REMARK  Name = 
REMARK  7 active torsions:
REMARK  status: ('A' for Active; 'I' for Inactive)
REMARK    1  A    between atoms: C_1  and  S_2
REMARK    2  A    between atoms: S_2  and  N_5
REMARK    3  A    between atoms: N_5  and  C_6
REMARK    4  A    between atoms: N_5  and  C_20
REMARK    5  A    between atoms: C_6  and  C_7
REMARK    6  A    between atoms: C_13  and  C_14
REMARK    7  A    between atoms: C_23  and  C_24
REMARK                            x       y       z     vdW  Elec       q    Type
REMARK                         _______ _______ _______ _____ _____    ______ ____
ROOT
ATOM      1  N   UNL     1       2.782   4.698  19.344  0.00  0.00    +0.000 N 
ENDROOT
BRANCH   1   2
ATOM      2  C   UNL     1       2.211   5.951  19.728  0.00  0.00    +0.000 A 
ATOM      3  C   UNL     1       1.570   6.184  20.948  0.00  0.00    +0.000 A 
ATOM      4  C   UNL     1       1.090   7.470  21.240  0.00  0.00    +0.000 A 
ATOM      5  C   UNL     1       1.266   8.521  20.325  0.00  0.00    +0.000 A 
ATOM      6  C   UNL     1       2.002   8.284  19.162  0.00  0.00    +0.000 A 
ATOM      7  C   UNL     1       2.423   7.000  18.840  0.00  0.00    +0.000 A 
BRANCH   5   8
ATOM      8  C   UNL     1       0.772   9.887  20.670  0.00  0.00    +0.000 C 
ATOM      9  O   UNL     1       1.243  10.422  21.672  0.00  0.00    +0.000 OA
ATOM     10  N   UNL     1      -0.164  10.525  19.870  0.00  0.00    +0.000 N 
ATOM     11  C   UNL     1      -1.039  10.014  18.823  0.00  0.00    +0.000 C 
ATOM     12  C   UNL     1      -1.185  11.220  17.912  0.00  0.00    +0.000 C 
ATOM     13  C   UNL     1      -1.336  12.361  18.913  0.00  0.00    +0.000 C 
ATOM     14  C   UNL     1      -0.491  11.923  20.108  0.00  0.00    +0.000 C 
ENDBRANCH   5   8
ENDBRANCH   1   2
BRANCH   1  16
ATOM     15  C   UNL     1       2.382   2.982  21.484  0.00  0.00    +0.000 C 
ATOM     16  S   UNL     1       1.974   3.276  19.766  0.00  0.00    +0.000 S 
ATOM     17  O   UNL     1       2.544   2.190  18.998  0.00  0.00    +0.000 OA
ATOM     18  O   UNL     1       0.552   3.547  19.703  0.00  0.00    +0.000 OA
ENDBRANCH   1  16
BRANCH   1  19
ATOM     19  C   UNL     1       4.266   4.638  19.427  0.00  0.00    +0.000 C 
BRANCH  19  20
ATOM     20  C   UNL     1       5.003   5.039  18.165  0.00  0.00    +0.000 A 
ATOM     21  C   UNL     1       6.138   5.856  18.222  0.00  0.00    +0.000 A 
ATOM     22  C   UNL     1       6.947   6.030  17.092  0.00  0.00    +0.000 A 
ATOM     23  C   UNL     1       6.642   5.382  15.884  0.00  0.00    +0.000 A 
ATOM     24  C   UNL     1       7.503   5.439  14.773  0.00  0.00    +0.000 A 
ATOM     25  C   UNL     1       7.209   4.730  13.604  0.00  0.00    +0.000 A 
ATOM     26  C   UNL     1       6.027   3.989  13.512  0.00  0.00    +0.000 A 
ATOM     27  C   UNL     1       5.149   3.953  14.601  0.00  0.00    +0.000 A 
ATOM     28  C   UNL     1       5.460   4.617  15.799  0.00  0.00    +0.000 A 
ATOM     29  C   UNL     1       4.644   4.476  16.933  0.00  0.00    +0.000 A 
BRANCH  26  30
ATOM     30  C   UNL     1       5.720   3.183  12.296  0.00  0.00    +0.000 C 
ATOM     31  N   UNL     1       4.599   3.265  11.652  0.00  0.00    +0.000 NA
ATOM     32  N   UNL     1       6.647   2.319  11.793  0.00  0.00    +0.000 N 
ATOM     33  H   UNL     1       3.946   3.900  12.114  0.00  0.00    +0.000 HD
ATOM     34  H   UNL     1       7.613   2.619  11.848  0.00  0.00    +0.000 HD
ATOM     35  H   UNL     1       6.388   2.012  10.860  0.00  0.00    +0.000 HD
ENDBRANCH  26  30
ENDBRANCH  19  20
ENDBRANCH   1  19
TORSDOF 6
ENDMDL
