MODEL 1
REMARK VINA RESULT:      -7.8      0.000      0.000
REMARK  Name = 
REMARK  8 active torsions:
REMARK  status: ('A' for Active; 'I' for Inactive)
REMARK    1  A    between atoms: C_1  and  C_2
REMARK    2  A    between atoms: C_2  and  C_3
REMARK    3  A    between atoms: C_2  and  C_4
REMARK    4  A    between atoms: C_6  and  C_7
REMARK    5  A    between atoms: C_7  and  C_8
REMARK    6  A    between atoms: C_8  and  C_9
REMARK    7  A    between atoms: C_21  and  C_22
REMARK    8  A    between atoms: C_21  and  C_23
REMARK                            x       y       z     vdW  Elec       q    Type
REMARK                         _______ _______ _______ _____ _____    ______ ____
ROOT
ATOM      1  C   UNL     1       7.082   5.012  17.512  0.00  0.00    +0.000 C 
ATOM      2  O   UNL     1       7.670   4.391  16.332  0.00  0.00    +0.000 OA
ATOM      3  C   UNL     1       6.822   3.915  15.280  0.00  0.00    +0.000 C 
ATOM      4  C   UNL     1       5.660   3.082  15.815  0.00  0.00    +0.000 C 
ATOM      5  C   UNL     1       4.946   3.818  16.899  0.00  0.00    +0.000 C 
ATOM      6  C   UNL     1       5.612   4.670  17.680  0.00  0.00    +0.000 C 
ATOM      7  C   UNL     1       4.898   5.083  18.895  0.00  0.00    +0.000 C 
ATOM      8  O   UNL     1       5.463   5.348  19.947  0.00  0.00    +0.000 OA
ATOM      9  O   UNL     1       3.568   5.199  18.736  0.00  0.00    +0.000 OA
ATOM     10  C   UNL     1       2.934   4.076  18.134  0.00  0.00    +0.000 C 
ATOM     11  C   UNL     1       2.716   2.995  19.195  0.00  0.00    +0.000 C 
ATOM     12  C   UNL     1       1.588   4.572  17.606  0.00  0.00    +0.000 C 
ATOM     13  O   UNL     1       3.625   3.476  17.031  0.00  0.00    +0.000 OA
ENDROOT
BRANCH   1  15
ATOM     14  C   UNL     1       6.438   7.557  17.276  0.00  0.00    +0.000 C 
ATOM     15  C   UNL     1       7.538   6.516  17.517  0.00  0.00    +0.000 C 
ATOM     16  C   UNL     1       8.201   6.886  18.862  0.00  0.00    +0.000 C 
ENDBRANCH   1  15
BRANCH   3  17
ATOM     17  C   UNL     1       6.310   5.012  14.338  0.00  0.00    +0.000 C 
BRANCH  17  18
ATOM     18  C   UNL     1       6.975   4.973  12.961  0.00  0.00    +0.000 C 
BRANCH  18  19
ATOM     19  C   UNL     1       6.590   3.720  12.209  0.00  0.00    +0.000 A 
ATOM     20  C   UNL     1       5.240   3.397  12.030  0.00  0.00    +0.000 A 
ATOM     21  C   UNL     1       4.873   2.205  11.403  0.00  0.00    +0.000 A 
ATOM     22  C   UNL     1       5.853   1.326  10.944  0.00  0.00    +0.000 A 
ATOM     23  C   UNL     1       7.201   1.651  11.087  0.00  0.00    +0.000 A 
ATOM     24  C   UNL     1       7.567   2.848  11.705  0.00  0.00    +0.000 A 
ENDBRANCH  18  19
ENDBRANCH  17  18
ENDBRANCH   3  17
TORSDOF 4
ENDMDL
MODEL 2
REMARK VINA RESULT:      -7.1      2.080      3.523
REMARK  Name = 
REMARK  8 active torsions:
REMARK  status: ('A' for Active; 'I' for Inactive)
REMARK    1  A    between atoms: C_1  and  C_2
REMARK    2  A    between atoms: C_2  and  C_3
REMARK    3  A    between atoms: C_2  and  C_4
REMARK    4  A    between atoms: C_6  and  C_7
REMARK    5  A    between atoms: C_7  and  C_8
REMARK    6  A    between atoms: C_8  and  C_9
REMARK    7  A    between atoms: C_21  and  C_22
REMARK    8  A    between atoms: C_21  and  C_23
REMARK                            x       y       z     vdW  Elec       q    Type
REMARK                         _______ _______ _______ _____ _____    ______ ____
ROOT
ATOM      1  C   UNL     1       3.527   6.513  19.048  0.00  0.00    +0.000 C 
ATOM      2  O   UNL     1       4.860   6.410  18.468  0.00  0.00    +0.000 OA
ATOM      3  C   UNL     1       5.300   5.168  17.908  0.00  0.00    +0.000 C 
ATOM      4  C   UNL     1       5.015   3.990  18.837  0.00  0.00    +0.000 C 
ATOM      5  C   UNL     1       3.587   4.001  19.270  0.00  0.00    +0.000 C 
ATOM      6  C   UNL     1       2.933   5.158  19.389  0.00  0.00    +0.000 C 
ATOM      7  C   UNL     1       1.662   5.078  20.121  0.00  0.00    +0.000 C 
ATOM      8  O   UNL     1       1.226   5.992  20.807  0.00  0.00    +0.000 OA
ATOM      9  O   UNL     1       0.989   3.930  19.926  0.00  0.00    +0.000 OA
ATOM     10  C   UNL     1       1.756   2.745  20.112  0.00  0.00    +0.000 C 
ATOM     11  C   UNL     1       1.851   2.440  21.610  0.00  0.00    +0.000 C 
ATOM     12  C   UNL     1       1.000   1.626  19.396  0.00  0.00    +0.000 C 
ATOM     13  O   UNL     1       3.087   2.763  19.583  0.00  0.00    +0.000 OA
ENDROOT
BRANCH   1  15
ATOM     14  C   UNL     1       1.906   8.586  18.905  0.00  0.00    +0.000 C 
ATOM     15  C   UNL     1       2.712   7.518  18.156  0.00  0.00    +0.000 C 
ATOM     16  C   UNL     1       3.646   8.277  17.187  0.00  0.00    +0.000 C 
ENDBRANCH   1  15
BRANCH   3  17
ATOM     17  C   UNL     1       4.763   4.886  16.499  0.00  0.00    +0.000 C 
BRANCH  17  18
ATOM     18  C   UNL     1       5.409   3.662  15.849  0.00  0.00    +0.000 C 
BRANCH  18  19
ATOM     19  C   UNL     1       6.061   4.027  14.536  0.00  0.00    +0.000 A 
ATOM     20  C   UNL     1       5.635   3.422  13.349  0.00  0.00    +0.000 A 
ATOM     21  C   UNL     1       6.280   3.697  12.141  0.00  0.00    +0.000 A 
ATOM     22  C   UNL     1       7.355   4.583  12.109  0.00  0.00    +0.000 A 
ATOM     23  C   UNL     1       7.770   5.217  13.279  0.00  0.00    +0.000 A 
ATOM     24  C   UNL     1       7.118   4.951  14.484  0.00  0.00    +0.000 A 
ENDBRANCH  18  19
ENDBRANCH  17  18
ENDBRANCH   3  17
TORSDOF 4
ENDMDL
MODEL 3
REMARK VINA RESULT:      -7.1      1.961      3.305
REMARK  Name = 
REMARK  8 active torsions:
REMARK  status: ('A' for Active; 'I' for Inactive)
REMARK    1  A    between atoms: C_1  and  C_2
REMARK    2  A    between atoms: C_2  and  C_3
REMARK    3  A    between atoms: C_2  and  C_4
REMARK    4  A    between atoms: C_6  and  C_7
REMARK    5  A    between atoms: C_7  and  C_8
REMARK    6  A    between atoms: C_8  and  C_9
REMARK    7  A    between atoms: C_21  and  C_22
REMARK    8  A    between atoms: C_21  and  C_23
REMARK                            x       y       z     vdW  Elec       q    Type
REMARK                         _______ _______ _______ _____ _____    ______ ____
ROOT
ATOM      1  C   UNL     1       3.900   6.119  18.889  0.00  0.00    +0.000 C 
ATOM      2  O   UNL     1       5.243   5.805  18.418  0.00  0.00    +0.000 OA
ATOM      3  C   UNL     1       5.555   4.474  17.990  0.00  0.00    +0.000 C 
ATOM      4  C   UNL     1       5.064   3.424  18.985  0.00  0.00    +0.000 C 
ATOM      5  C   UNL     1       3.625   3.647  19.311  0.00  0.00    +0.000 C 
ATOM      6  C   UNL     1       3.118   4.881  19.291  0.00  0.00    +0.000 C 
ATOM      7  C   UNL     1       1.804   5.020  19.932  0.00  0.00    +0.000 C 
ATOM      8  O   UNL     1       1.445   6.036  20.510  0.00  0.00    +0.000 OA
ATOM      9  O   UNL     1       1.004   3.950  19.778  0.00  0.00    +0.000 OA
ATOM     10  C   UNL     1       1.600   2.701  20.112  0.00  0.00    +0.000 C 
ATOM     11  C   UNL     1       1.561   2.517  21.631  0.00  0.00    +0.000 C 
ATOM     12  C   UNL     1       0.755   1.625  19.431  0.00  0.00    +0.000 C 
ATOM     13  O   UNL     1       2.953   2.511  19.681  0.00  0.00    +0.000 OA
ENDROOT
BRANCH   1  15
ATOM     14  C   UNL     1       2.394   8.238  18.458  0.00  0.00    +0.000 C 
ATOM     15  C   UNL     1       3.278   7.135  17.864  0.00  0.00    +0.000 C 
ATOM     16  C   UNL     1       4.383   7.850  17.056  0.00  0.00    +0.000 C 
ENDBRANCH   1  15
BRANCH   3  17
ATOM     17  C   UNL     1       5.077   4.139  16.572  0.00  0.00    +0.000 C 
BRANCH  17  18
ATOM     18  C   UNL     1       5.373   5.251  15.565  0.00  0.00    +0.000 C 
BRANCH  18  19
ATOM     19  C   UNL     1       5.959   4.685  14.292  0.00  0.00    +0.000 A 
ATOM     20  C   UNL     1       7.198   5.143  13.828  0.00  0.00    +0.000 A 
ATOM     21  C   UNL     1       7.714   4.681  12.615  0.00  0.00    +0.000 A 
ATOM     22  C   UNL     1       6.999   3.756  11.857  0.00  0.00    +0.000 A 
ATOM     23  C   UNL     1       5.780   3.268  12.324  0.00  0.00    +0.000 A 
ATOM     24  C   UNL     1       5.269   3.720  13.541  0.00  0.00    +0.000 A 
ENDBRANCH  18  19
ENDBRANCH  17  18
ENDBRANCH   3  17
TORSDOF 4
ENDMDL
MODEL 4
REMARK VINA RESULT:      -6.9      2.010      6.269
REMARK  Name = 
REMARK  8 active torsions:
REMARK  status: ('A' for Active; 'I' for Inactive)
REMARK    1  A    between atoms: C_1  and  C_2
REMARK    2  A    between atoms: C_2  and  C_3
REMARK    3  A    between atoms: C_2  and  C_4
REMARK    4  A    between atoms: C_6  and  C_7
REMARK    5  A    between atoms: C_7  and  C_8
REMARK    6  A    between atoms: C_8  and  C_9
REMARK    7  A    between atoms: C_21  and  C_22
REMARK    8  A    between atoms: C_21  and  C_23
REMARK                            x       y       z     vdW  Elec       q    Type
REMARK                         _______ _______ _______ _____ _____    ______ ____
ROOT
ATOM      1  C   UNL     1       6.145   6.189  18.008  0.00  0.00    +0.000 C 
ATOM      2  O   UNL     1       5.207   7.294  18.156  0.00  0.00    +0.000 OA
ATOM      3  C   UNL     1       4.105   7.419  17.250  0.00  0.00    +0.000 C 
ATOM      4  C   UNL     1       4.540   7.262  15.795  0.00  0.00    +0.000 C 
ATOM      5  C   UNL     1       5.343   6.016  15.623  0.00  0.00    +0.000 C 
ATOM      6  C   UNL     1       6.090   5.557  16.628  0.00  0.00    +0.000 C 
ATOM      7  C   UNL     1       7.072   4.532  16.252  0.00  0.00    +0.000 C 
ATOM      8  O   UNL     1       8.155   4.406  16.806  0.00  0.00    +0.000 OA
ATOM      9  O   UNL     1       6.653   3.703  15.279  0.00  0.00    +0.000 OA
ATOM     10  C   UNL     1       6.128   4.349  14.125  0.00  0.00    +0.000 C 
ATOM     11  C   UNL     1       7.288   4.810  13.238  0.00  0.00    +0.000 C 
ATOM     12  C   UNL     1       5.290   3.304  13.390  0.00  0.00    +0.000 C 
ATOM     13  O   UNL     1       5.282   5.480  14.362  0.00  0.00    +0.000 OA
ENDROOT
BRANCH   1  15
ATOM     14  C   UNL     1       5.388   3.896  19.064  0.00  0.00    +0.000 C 
ATOM     15  C   UNL     1       5.998   5.285  19.285  0.00  0.00    +0.000 C 
ATOM     16  C   UNL     1       7.369   5.057  19.960  0.00  0.00    +0.000 C 
ENDBRANCH   1  15
BRANCH   3  17
ATOM     17  C   UNL     1       2.923   6.492  17.563  0.00  0.00    +0.000 C 
BRANCH  17  18
ATOM     18  C   UNL     1       2.517   6.520  19.036  0.00  0.00    +0.000 C 
BRANCH  18  19
ATOM     19  C   UNL     1       2.112   5.144  19.512  0.00  0.00    +0.000 A 
ATOM     20  C   UNL     1       1.621   4.203  18.599  0.00  0.00    +0.000 A 
ATOM     21  C   UNL     1       1.174   2.955  19.038  0.00  0.00    +0.000 A 
ATOM     22  C   UNL     1       1.217   2.635  20.394  0.00  0.00    +0.000 A 
ATOM     23  C   UNL     1       1.734   3.550  21.310  0.00  0.00    +0.000 A 
ATOM     24  C   UNL     1       2.190   4.793  20.869  0.00  0.00    +0.000 A 
ENDBRANCH  18  19
ENDBRANCH  17  18
ENDBRANCH   3  17
TORSDOF 4
ENDMDL
MODEL 5
REMARK VINA RESULT:      -6.9      3.772      7.926
REMARK  Name = 
REMARK  8 active torsions:
REMARK  status: ('A' for Active; 'I' for Inactive)
REMARK    1  A    between atoms: C_1  and  C_2
REMARK    2  A    between atoms: C_2  and  C_3
REMARK    3  A    between atoms: C_2  and  C_4
REMARK    4  A    between atoms: C_6  and  C_7
REMARK    5  A    between atoms: C_7  and  C_8
REMARK    6  A    between atoms: C_8  and  C_9
REMARK    7  A    between atoms: C_21  and  C_22
REMARK    8  A    between atoms: C_21  and  C_23
REMARK                            x       y       z     vdW  Elec       q    Type
REMARK                         _______ _______ _______ _____ _____    ______ ____
ROOT
ATOM      1  C   UNL     1       2.831   4.957  19.594  0.00  0.00    +0.000 C 
ATOM      2  O   UNL     1       2.537   6.328  19.991  0.00  0.00    +0.000 OA
ATOM      3  C   UNL     1       2.757   7.401  19.068  0.00  0.00    +0.000 C 
ATOM      4  C   UNL     1       4.127   7.307  18.400  0.00  0.00    +0.000 C 
ATOM      5  C   UNL     1       4.336   5.946  17.826  0.00  0.00    +0.000 C 
ATOM      6  C   UNL     1       3.764   4.884  18.397  0.00  0.00    +0.000 C 
ATOM      7  C   UNL     1       4.289   3.586  17.956  0.00  0.00    +0.000 C 
ATOM      8  O   UNL     1       4.347   2.604  18.683  0.00  0.00    +0.000 OA
ATOM      9  O   UNL     1       4.651   3.553  16.661  0.00  0.00    +0.000 OA
ATOM     10  C   UNL     1       5.508   4.612  16.249  0.00  0.00    +0.000 C 
ATOM     11  C   UNL     1       6.945   4.283  16.663  0.00  0.00    +0.000 C 
ATOM     12  C   UNL     1       5.404   4.683  14.726  0.00  0.00    +0.000 C 
ATOM     13  O   UNL     1       5.193   5.914  16.756  0.00  0.00    +0.000 OA
ENDROOT
BRANCH   1  15
ATOM     14  C   UNL     1       1.084   3.533  18.229  0.00  0.00    +0.000 C 
ATOM     15  C   UNL     1       1.465   4.181  19.566  0.00  0.00    +0.000 C 
ATOM     16  C   UNL     1       1.451   3.052  20.619  0.00  0.00    +0.000 C 
ENDBRANCH   1  15
BRANCH   3  17
ATOM     17  C   UNL     1       1.654   7.564  18.015  0.00  0.00    +0.000 C 
BRANCH  17  18
ATOM     18  C   UNL     1       1.517   9.001  17.512  0.00  0.00    +0.000 C 
BRANCH  18  19
ATOM     19  C   UNL     1       0.472   9.754  18.303  0.00  0.00    +0.000 A 
ATOM     20  C   UNL     1      -0.806   9.949  17.767  0.00  0.00    +0.000 A 
ATOM     21  C   UNL     1      -1.756  10.706  18.457  0.00  0.00    +0.000 A 
ATOM     22  C   UNL     1      -1.438  11.271  19.690  0.00  0.00    +0.000 A 
ATOM     23  C   UNL     1      -0.180  11.057  20.250  0.00  0.00    +0.000 A 
ATOM     24  C   UNL     1       0.766  10.292  19.566  0.00  0.00    +0.000 A 
ENDBRANCH  18  19
ENDBRANCH  17  18
ENDBRANCH   3  17
TORSDOF 4
ENDMDL
MODEL 6
REMARK VINA RESULT:      -6.8      2.014      3.419
REMARK  Name = 
REMARK  8 active torsions:
REMARK  status: ('A' for Active; 'I' for Inactive)
REMARK    1  A    between atoms: C_1  and  C_2
REMARK    2  A    between atoms: C_2  and  C_3
REMARK    3  A    between atoms: C_2  and  C_4
REMARK    4  A    between atoms: C_6  and  C_7
REMARK    5  A    between atoms: C_7  and  C_8
REMARK    6  A    between atoms: C_8  and  C_9
REMARK    7  A    between atoms: C_21  and  C_22
REMARK    8  A    between atoms: C_21  and  C_23
REMARK                            x       y       z     vdW  Elec       q    Type
REMARK                         _______ _______ _______ _____ _____    ______ ____
ROOT
ATOM      1  C   UNL     1       3.935   6.563  19.044  0.00  0.00    +0.000 C 
ATOM      2  O   UNL     1       5.035   7.112  18.263  0.00  0.00    +0.000 OA
ATOM      3  C   UNL     1       5.779   6.262  17.383  0.00  0.00    +0.000 C 
ATOM      4  C   UNL     1       6.189   4.956  18.061  0.00  0.00    +0.000 C 
ATOM      5  C   UNL     1       5.006   4.305  18.696  0.00  0.00    +0.000 C 
ATOM      6  C   UNL     1       4.003   5.050  19.163  0.00  0.00    +0.000 C 
ATOM      7  C   UNL     1       3.063   4.341  20.042  0.00  0.00    +0.000 C 
ATOM      8  O   UNL     1       2.477   4.881  20.969  0.00  0.00    +0.000 OA
ATOM      9  O   UNL     1       2.858   3.056  19.702  0.00  0.00    +0.000 OA
ATOM     10  C   UNL     1       4.042   2.291  19.505  0.00  0.00    +0.000 C 
ATOM     11  C   UNL     1       4.585   1.849  20.867  0.00  0.00    +0.000 C 
ATOM     12  C   UNL     1       3.634   1.071  18.681  0.00  0.00    +0.000 C 
ATOM     13  O   UNL     1       5.106   2.942  18.799  0.00  0.00    +0.000 OA
ENDROOT
BRANCH   1  15
ATOM     14  C   UNL     1       1.710   7.860  19.601  0.00  0.00    +0.000 C 
ATOM     15  C   UNL     1       2.616   7.245  18.528  0.00  0.00    +0.000 C 
ATOM     16  C   UNL     1       2.937   8.376  17.526  0.00  0.00    +0.000 C 
ENDBRANCH   1  15
BRANCH   3  17
ATOM     17  C   UNL     1       5.088   5.980  16.043  0.00  0.00    +0.000 C 
BRANCH  17  18
ATOM     18  C   UNL     1       5.194   4.517  15.614  0.00  0.00    +0.000 C 
BRANCH  18  19
ATOM     19  C   UNL     1       5.972   4.387  14.324  0.00  0.00    +0.000 A 
ATOM     20  C   UNL     1       7.143   5.129  14.135  0.00  0.00    +0.000 A 
ATOM     21  C   UNL     1       7.829   5.073  12.919  0.00  0.00    +0.000 A 
ATOM     22  C   UNL     1       7.352   4.271  11.884  0.00  0.00    +0.000 A 
ATOM     23  C   UNL     1       6.205   3.502  12.071  0.00  0.00    +0.000 A 
ATOM     24  C   UNL     1       5.526   3.550  13.289  0.00  0.00    +0.000 A 
ENDBRANCH  18  19
ENDBRANCH  17  18
ENDBRANCH   3  17
TORSDOF 4
ENDMDL
MODEL 7
REMARK VINA RESULT:      -6.7      4.050      7.092
REMARK  Name = 
REMARK  8 active torsions:
REMARK  status: ('A' for Active; 'I' for Inactive)
REMARK    1  A    between atoms: C_1  and  C_2
REMARK    2  A    between atoms: C_2  and  C_3
REMARK    3  A    between atoms: C_2  and  C_4
REMARK    4  A    between atoms: C_6  and  C_7
REMARK    5  A    between atoms: C_7  and  C_8
REMARK    6  A    between atoms: C_8  and  C_9
REMARK    7  A    between atoms: C_21  and  C_22
REMARK    8  A    between atoms: C_21  and  C_23
REMARK                            x       y       z     vdW  Elec       q    Type
REMARK                         _______ _______ _______ _____ _____    ______ ____
ROOT
ATOM      1  C   UNL     1       5.063   5.355  17.617  0.00  0.00    +0.000 C 
ATOM      2  O   UNL     1       4.464   6.375  16.765  0.00  0.00    +0.000 OA
ATOM      3  C   UNL     1       3.187   6.928  17.106  0.00  0.00    +0.000 C 
ATOM      4  C   UNL     1       2.171   5.845  17.460  0.00  0.00    +0.000 C 
ATOM      5  C   UNL     1       2.734   4.915  18.482  0.00  0.00    +0.000 C 
ATOM      6  C   UNL     1       4.047   4.681  18.522  0.00  0.00    +0.000 C 
ATOM      7  C   UNL     1       4.445   3.524  19.336  0.00  0.00    +0.000 C 
ATOM      8  O   UNL     1       5.412   2.823  19.076  0.00  0.00    +0.000 OA
ATOM      9  O   UNL     1       3.684   3.337  20.429  0.00  0.00    +0.000 OA
ATOM     10  C   UNL     1       2.281   3.329  20.191  0.00  0.00    +0.000 C 
ATOM     11  C   UNL     1       1.870   1.952  19.664  0.00  0.00    +0.000 C 
ATOM     12  C   UNL     1       1.613   3.595  21.539  0.00  0.00    +0.000 C 
ATOM     13  O   UNL     1       1.790   4.314  19.274  0.00  0.00    +0.000 OA
ENDROOT
BRANCH   1  15
ATOM     14  C   UNL     1       7.601   5.070  18.263  0.00  0.00    +0.000 C 
ATOM     15  C   UNL     1       6.366   5.978  18.235  0.00  0.00    +0.000 C 
ATOM     16  C   UNL     1       6.781   7.257  17.475  0.00  0.00    +0.000 C 
ENDBRANCH   1  15
BRANCH   3  17
ATOM     17  C   UNL     1       3.237   8.000  18.202  0.00  0.00    +0.000 C 
BRANCH  17  18
ATOM     18  C   UNL     1       2.117   9.033  18.076  0.00  0.00    +0.000 C 
BRANCH  18  19
ATOM     19  C   UNL     1       1.306   9.108  19.349  0.00  0.00    +0.000 A 
ATOM     20  C   UNL     1       0.315  10.086  19.492  0.00  0.00    +0.000 A 
ATOM     21  C   UNL     1      -0.390  10.213  20.691  0.00  0.00    +0.000 A 
ATOM     22  C   UNL     1      -0.112   9.359  21.758  0.00  0.00    +0.000 A 
ATOM     23  C   UNL     1       0.849   8.359  21.618  0.00  0.00    +0.000 A 
ATOM     24  C   UNL     1       1.545   8.227  20.416  0.00  0.00    +0.000 A 
ENDBRANCH  18  19
ENDBRANCH  17  18
ENDBRANCH   3  17
TORSDOF 4
ENDMDL
MODEL 8
REMARK VINA RESULT:      -6.6      2.054      3.594
REMARK  Name = 
REMARK  8 active torsions:
REMARK  status: ('A' for Active; 'I' for Inactive)
REMARK    1  A    between atoms: C_1  and  C_2
REMARK    2  A    between atoms: C_2  and  C_3
REMARK    3  A    between atoms: C_2  and  C_4
REMARK    4  A    between atoms: C_6  and  C_7
REMARK    5  A    between atoms: C_7  and  C_8
REMARK    6  A    between atoms: C_8  and  C_9
REMARK    7  A    between atoms: C_21  and  C_22
REMARK    8  A    between atoms: C_21  and  C_23
REMARK                            x       y       z     vdW  Elec       q    Type
REMARK                         _______ _______ _______ _____ _____    ______ ____
ROOT
ATOM      1  C   UNL     1       3.613   6.834  18.892  0.00  0.00    +0.000 C 
ATOM      2  O   UNL     1       4.920   6.842  18.249  0.00  0.00    +0.000 OA
ATOM      3  C   UNL     1       5.452   5.630  17.701  0.00  0.00    +0.000 C 
ATOM      4  C   UNL     1       5.328   4.460  18.675  0.00  0.00    +0.000 C 
ATOM      5  C   UNL     1       3.929   4.348  19.180  0.00  0.00    +0.000 C 
ATOM      6  C   UNL     1       3.171   5.440  19.300  0.00  0.00    +0.000 C 
ATOM      7  C   UNL     1       1.951   5.261  20.098  0.00  0.00    +0.000 C 
ATOM      8  O   UNL     1       1.461   6.150  20.780  0.00  0.00    +0.000 OA
ATOM      9  O   UNL     1       1.385   4.048  19.969  0.00  0.00    +0.000 OA
ATOM     10  C   UNL     1       2.272   2.949  20.149  0.00  0.00    +0.000 C 
ATOM     11  C   UNL     1       2.468   2.703  21.647  0.00  0.00    +0.000 C 
ATOM     12  C   UNL     1       1.596   1.741  19.502  0.00  0.00    +0.000 C 
ATOM     13  O   UNL     1       3.568   3.078  19.552  0.00  0.00    +0.000 OA
ENDROOT
BRANCH   1  15
ATOM     14  C   UNL     1       1.450   7.019  17.397  0.00  0.00    +0.000 C 
ATOM     15  C   UNL     1       2.662   7.727  18.016  0.00  0.00    +0.000 C 
ATOM     16  C   UNL     1       2.104   8.910  18.838  0.00  0.00    +0.000 C 
ENDBRANCH   1  15
BRANCH   3  17
ATOM     17  C   UNL     1       4.879   5.253  16.330  0.00  0.00    +0.000 C 
BRANCH  17  18
ATOM     18  C   UNL     1       5.417   3.922  15.804  0.00  0.00    +0.000 C 
BRANCH  18  19
ATOM     19  C   UNL     1       6.107   4.106  14.472  0.00  0.00    +0.000 A 
ATOM     20  C   UNL     1       7.197   4.976  14.362  0.00  0.00    +0.000 A 
ATOM     21  C   UNL     1       7.796   5.211  13.121  0.00  0.00    +0.000 A 
ATOM     22  C   UNL     1       7.311   4.573  11.981  0.00  0.00    +0.000 A 
ATOM     23  C   UNL     1       6.247   3.679  12.082  0.00  0.00    +0.000 A 
ATOM     24  C   UNL     1       5.656   3.437  13.323  0.00  0.00    +0.000 A 
ENDBRANCH  18  19
ENDBRANCH  17  18
ENDBRANCH   3  17
TORSDOF 4
ENDMDL
MODEL 9
REMARK VINA RESULT:      -6.5      3.174      5.814
REMARK  Name = 
REMARK  8 active torsions:
REMARK  status: ('A' for Active; 'I' for Inactive)
REMARK    1  A    between atoms: C_1  and  C_2
REMARK    2  A    between atoms: C_2  and  C_3
REMARK    3  A    between atoms: C_2  and  C_4
REMARK    4  A    between atoms: C_6  and  C_7
REMARK    5  A    between atoms: C_7  and  C_8
REMARK    6  A    between atoms: C_8  and  C_9
REMARK    7  A    between atoms: C_21  and  C_22
REMARK    8  A    between atoms: C_21  and  C_23
REMARK                            x       y       z     vdW  Elec       q    Type
REMARK                         _______ _______ _______ _____ _____    ______ ____
ROOT
ATOM      1  C   UNL     1       1.142   3.986  20.299  0.00  0.00    +0.000 C 
ATOM      2  O   UNL     1       0.826   2.839  19.457  0.00  0.00    +0.000 OA
ATOM      3  C   UNL     1       1.441   2.710  18.170  0.00  0.00    +0.000 C 
ATOM      4  C   UNL     1       1.374   4.009  17.371  0.00  0.00    +0.000 C 
ATOM      5  C   UNL     1       1.884   5.149  18.187  0.00  0.00    +0.000 C 
ATOM      6  C   UNL     1       1.746   5.137  19.514  0.00  0.00    +0.000 C 
ATOM      7  C   UNL     1       1.983   6.429  20.173  0.00  0.00    +0.000 C 
ATOM      8  O   UNL     1       1.399   6.780  21.188  0.00  0.00    +0.000 OA
ATOM      9  O   UNL     1       2.943   7.171  19.593  0.00  0.00    +0.000 OA
ATOM     10  C   UNL     1       2.806   7.338  18.186  0.00  0.00    +0.000 C 
ATOM     11  C   UNL     1       1.782   8.441  17.910  0.00  0.00    +0.000 C 
ATOM     12  C   UNL     1       4.181   7.757  17.666  0.00  0.00    +0.000 C 
ATOM     13  O   UNL     1       2.411   6.177  17.447  0.00  0.00    +0.000 OA
ENDROOT
BRANCH   1  15
ATOM     14  C   UNL     1       1.177   2.307  22.330  0.00  0.00    +0.000 C 
ATOM     15  C   UNL     1       1.885   3.435  21.570  0.00  0.00    +0.000 C 
ATOM     16  C   UNL     1       3.286   2.901  21.201  0.00  0.00    +0.000 C 
ENDBRANCH   1  15
BRANCH   3  17
ATOM     17  C   UNL     1       2.877   2.173  18.208  0.00  0.00    +0.000 C 
BRANCH  17  18
ATOM     18  C   UNL     1       3.649   2.444  16.916  0.00  0.00    +0.000 C 
BRANCH  18  19
ATOM     19  C   UNL     1       4.760   3.442  17.149  0.00  0.00    +0.000 A 
ATOM     20  C   UNL     1       5.519   3.910  16.071  0.00  0.00    +0.000 A 
ATOM     21  C   UNL     1       6.595   4.775  16.284  0.00  0.00    +0.000 A 
ATOM     22  C   UNL     1       6.918   5.183  17.577  0.00  0.00    +0.000 A 
ATOM     23  C   UNL     1       6.150   4.750  18.656  0.00  0.00    +0.000 A 
ATOM     24  C   UNL     1       5.069   3.894  18.442  0.00  0.00    +0.000 A 
ENDBRANCH  18  19
ENDBRANCH  17  18
ENDBRANCH   3  17
TORSDOF 4
ENDMDL
