MODEL 1
REMARK VINA RESULT:      -7.0      0.000      0.000
REMARK  Name = 
REMARK  4 active torsions:
REMARK  status: ('A' for Active; 'I' for Inactive)
REMARK    1  A    between atoms: C_1  and  O_2
REMARK    2  A    between atoms: O_2  and  C_3
REMARK    3  A    between atoms: C_9  and  C_10
REMARK    4  A    between atoms: N_13  and  C_14
REMARK                            x       y       z     vdW  Elec       q    Type
REMARK                         _______ _______ _______ _____ _____    ______ ____
ROOT
ATOM      1  C   UNL     1       5.848   3.435  12.406  0.00  0.00    +0.000 A 
ATOM      2  C   UNL     1       7.068   4.038  12.123  0.00  0.00    +0.000 A 
ATOM      3  C   UNL     1       7.713   4.839  13.071  0.00  0.00    +0.000 A 
ATOM      4  C   UNL     1       7.080   5.032  14.304  0.00  0.00    +0.000 A 
ATOM      5  N   UNL     1       7.459   5.778  15.392  0.00  0.00    +0.000 N 
ATOM      6  C   UNL     1       6.516   5.687  16.381  0.00  0.00    +0.000 A 
ATOM      7  C   UNL     1       5.500   4.860  15.944  0.00  0.00    +0.000 A 
ATOM      8  C   UNL     1       5.854   4.444  14.617  0.00  0.00    +0.000 A 
ATOM      9  C   UNL     1       5.238   3.630  13.646  0.00  0.00    +0.000 A 
ATOM     10  H   UNL     1       8.309   6.322  15.447  0.00  0.00    +0.000 HD
ENDROOT
BRANCH   7  11
ATOM     11  C   UNL     1       4.270   4.481  16.721  0.00  0.00    +0.000 C 
ATOM     12  C   UNL     1       3.788   5.577  17.682  0.00  0.00    +0.000 C 
ATOM     13  C   UNL     1       3.727   4.912  19.052  0.00  0.00    +0.000 C 
ATOM     14  N   UNL     1       3.557   3.492  18.745  0.00  0.00    +0.000 NA
ATOM     15  C   UNL     1       3.880   2.644  19.885  0.00  0.00    +0.000 C 
ATOM     16  C   UNL     1       4.447   3.238  17.603  0.00  0.00    +0.000 C 
ENDBRANCH   7  11
BRANCH   1  18
ATOM     17  C   UNL     1       3.885   3.240  11.109  0.00  0.00    +0.000 C 
ATOM     18  O   UNL     1       5.124   2.676  11.523  0.00  0.00    +0.000 OA
ENDBRANCH   1  18
TORSDOF 2
ENDMDL
MODEL 2
REMARK VINA RESULT:      -6.9      1.805      2.752
REMARK  Name = 
REMARK  4 active torsions:
REMARK  status: ('A' for Active; 'I' for Inactive)
REMARK    1  A    between atoms: C_1  and  O_2
REMARK    2  A    between atoms: O_2  and  C_3
REMARK    3  A    between atoms: C_9  and  C_10
REMARK    4  A    between atoms: N_13  and  C_14
REMARK                            x       y       z     vdW  Elec       q    Type
REMARK                         _______ _______ _______ _____ _____    ______ ____
ROOT
ATOM      1  C   UNL     1       5.793   4.176  14.707  0.00  0.00    +0.000 A 
ATOM      2  C   UNL     1       7.067   4.651  15.003  0.00  0.00    +0.000 A 
ATOM      3  C   UNL     1       7.451   4.906  16.323  0.00  0.00    +0.000 A 
ATOM      4  C   UNL     1       6.507   4.690  17.333  0.00  0.00    +0.000 A 
ATOM      5  N   UNL     1       6.596   4.881  18.690  0.00  0.00    +0.000 N 
ATOM      6  C   UNL     1       5.412   4.551  19.293  0.00  0.00    +0.000 A 
ATOM      7  C   UNL     1       4.527   4.127  18.321  0.00  0.00    +0.000 A 
ATOM      8  C   UNL     1       5.221   4.218  17.069  0.00  0.00    +0.000 A 
ATOM      9  C   UNL     1       4.870   3.956  15.731  0.00  0.00    +0.000 A 
ATOM     10  H   UNL     1       7.417   5.225  19.169  0.00  0.00    +0.000 HD
ENDROOT
BRANCH   7  11
ATOM     11  C   UNL     1       3.115   3.662  18.550  0.00  0.00    +0.000 C 
ATOM     12  C   UNL     1       2.117   4.809  18.758  0.00  0.00    +0.000 C 
ATOM     13  C   UNL     1       1.443   4.518  20.094  0.00  0.00    +0.000 C 
ATOM     14  N   UNL     1       1.585   3.070  20.250  0.00  0.00    +0.000 NA
ATOM     15  C   UNL     1       1.373   2.646  21.628  0.00  0.00    +0.000 C 
ATOM     16  C   UNL     1       2.945   2.766  19.785  0.00  0.00    +0.000 C 
ENDBRANCH   7  11
BRANCH   1  18
ATOM     17  C   UNL     1       6.286   3.515  12.495  0.00  0.00    +0.000 C 
ATOM     18  O   UNL     1       5.316   3.944  13.443  0.00  0.00    +0.000 OA
ENDBRANCH   1  18
TORSDOF 2
ENDMDL
MODEL 3
REMARK VINA RESULT:      -6.7      3.513      6.796
REMARK  Name = 
REMARK  4 active torsions:
REMARK  status: ('A' for Active; 'I' for Inactive)
REMARK    1  A    between atoms: C_1  and  O_2
REMARK    2  A    between atoms: O_2  and  C_3
REMARK    3  A    between atoms: C_9  and  C_10
REMARK    4  A    between atoms: N_13  and  C_14
REMARK                            x       y       z     vdW  Elec       q    Type
REMARK                         _______ _______ _______ _____ _____    ______ ____
ROOT
ATOM      1  C   UNL     1       1.724   5.145  20.371  0.00  0.00    +0.000 A 
ATOM      2  C   UNL     1       1.172   3.952  20.826  0.00  0.00    +0.000 A 
ATOM      3  C   UNL     1       1.485   2.735  20.213  0.00  0.00    +0.000 A 
ATOM      4  C   UNL     1       2.353   2.758  19.115  0.00  0.00    +0.000 A 
ATOM      5  N   UNL     1       2.804   1.738  18.315  0.00  0.00    +0.000 N 
ATOM      6  C   UNL     1       3.632   2.229  17.342  0.00  0.00    +0.000 A 
ATOM      7  C   UNL     1       3.738   3.597  17.505  0.00  0.00    +0.000 A 
ATOM      8  C   UNL     1       2.920   3.938  18.633  0.00  0.00    +0.000 A 
ATOM      9  C   UNL     1       2.597   5.146  19.281  0.00  0.00    +0.000 A 
ATOM     10  H   UNL     1       2.550   0.766  18.427  0.00  0.00    +0.000 HD
ENDROOT
BRANCH   7  11
ATOM     11  C   UNL     1       4.558   4.529  16.656  0.00  0.00    +0.000 C 
ATOM     12  C   UNL     1       5.713   3.836  15.921  0.00  0.00    +0.000 C 
ATOM     13  C   UNL     1       6.966   4.600  16.330  0.00  0.00    +0.000 C 
ATOM     14  N   UNL     1       6.465   5.923  16.701  0.00  0.00    +0.000 NA
ATOM     15  C   UNL     1       7.429   6.671  17.498  0.00  0.00    +0.000 C 
ATOM     16  C   UNL     1       5.222   5.668  17.442  0.00  0.00    +0.000 C 
ENDBRANCH   7  11
BRANCH   1  18
ATOM     17  C   UNL     1       1.961   7.483  20.138  0.00  0.00    +0.000 C 
ATOM     18  O   UNL     1       1.438   6.386  20.878  0.00  0.00    +0.000 OA
ENDBRANCH   1  18
TORSDOF 2
ENDMDL
MODEL 4
REMARK VINA RESULT:      -6.6      1.946      2.947
REMARK  Name = 
REMARK  4 active torsions:
REMARK  status: ('A' for Active; 'I' for Inactive)
REMARK    1  A    between atoms: C_1  and  O_2
REMARK    2  A    between atoms: O_2  and  C_3
REMARK    3  A    between atoms: C_9  and  C_10
REMARK    4  A    between atoms: N_13  and  C_14
REMARK                            x       y       z     vdW  Elec       q    Type
REMARK                         _______ _______ _______ _____ _____    ______ ____
ROOT
ATOM      1  C   UNL     1       5.778   4.341  14.931  0.00  0.00    +0.000 A 
ATOM      2  C   UNL     1       7.118   4.420  15.294  0.00  0.00    +0.000 A 
ATOM      3  C   UNL     1       7.492   4.640  16.624  0.00  0.00    +0.000 A 
ATOM      4  C   UNL     1       6.475   4.799  17.572  0.00  0.00    +0.000 A 
ATOM      5  N   UNL     1       6.546   5.051  18.920  0.00  0.00    +0.000 N 
ATOM      6  C   UNL     1       5.288   5.147  19.451  0.00  0.00    +0.000 A 
ATOM      7  C   UNL     1       4.368   4.947  18.440  0.00  0.00    +0.000 A 
ATOM      8  C   UNL     1       5.122   4.729  17.239  0.00  0.00    +0.000 A 
ATOM      9  C   UNL     1       4.779   4.491  15.894  0.00  0.00    +0.000 A 
ATOM     10  H   UNL     1       7.406   5.159  19.439  0.00  0.00    +0.000 HD
ENDROOT
BRANCH   7  11
ATOM     11  C   UNL     1       2.871   4.958  18.589  0.00  0.00    +0.000 C 
ATOM     12  C   UNL     1       2.399   5.190  20.031  0.00  0.00    +0.000 C 
ATOM     13  C   UNL     1       1.491   4.008  20.351  0.00  0.00    +0.000 C 
ATOM     14  N   UNL     1       1.018   3.564  19.040  0.00  0.00    +0.000 NA
ATOM     15  C   UNL     1       0.471   2.214  19.085  0.00  0.00    +0.000 C 
ATOM     16  C   UNL     1       2.191   3.651  18.160  0.00  0.00    +0.000 C 
ENDBRANCH   7  11
BRANCH   1  18
ATOM     17  C   UNL     1       6.206   3.496  12.769  0.00  0.00    +0.000 C 
ATOM     18  O   UNL     1       5.320   4.177  13.649  0.00  0.00    +0.000 OA
ENDBRANCH   1  18
TORSDOF 2
ENDMDL
MODEL 5
REMARK VINA RESULT:      -6.6      3.172      6.800
REMARK  Name = 
REMARK  4 active torsions:
REMARK  status: ('A' for Active; 'I' for Inactive)
REMARK    1  A    between atoms: C_1  and  O_2
REMARK    2  A    between atoms: O_2  and  C_3
REMARK    3  A    between atoms: C_9  and  C_10
REMARK    4  A    between atoms: N_13  and  C_14
REMARK                            x       y       z     vdW  Elec       q    Type
REMARK                         _______ _______ _______ _____ _____    ______ ____
ROOT
ATOM      1  C   UNL     1       1.691   5.193  20.309  0.00  0.00    +0.000 A 
ATOM      2  C   UNL     1       0.850   4.094  20.444  0.00  0.00    +0.000 A 
ATOM      3  C   UNL     1       1.096   2.909  19.743  0.00  0.00    +0.000 A 
ATOM      4  C   UNL     1       2.203   2.873  18.887  0.00  0.00    +0.000 A 
ATOM      5  N   UNL     1       2.662   1.872  18.068  0.00  0.00    +0.000 N 
ATOM      6  C   UNL     1       3.778   2.287  17.392  0.00  0.00    +0.000 A 
ATOM      7  C   UNL     1       4.069   3.581  17.777  0.00  0.00    +0.000 A 
ATOM      8  C   UNL     1       3.063   3.960  18.727  0.00  0.00    +0.000 A 
ATOM      9  C   UNL     1       2.795   5.134  19.459  0.00  0.00    +0.000 A 
ATOM     10  H   UNL     1       2.229   0.964  17.972  0.00  0.00    +0.000 HD
ENDROOT
BRANCH   7  11
ATOM     11  C   UNL     1       5.220   4.415  17.285  0.00  0.00    +0.000 C 
ATOM     12  C   UNL     1       4.806   5.813  16.807  0.00  0.00    +0.000 C 
ATOM     13  C   UNL     1       5.327   5.922  15.380  0.00  0.00    +0.000 C 
ATOM     14  N   UNL     1       6.440   4.972  15.340  0.00  0.00    +0.000 NA
ATOM     15  C   UNL     1       6.813   4.624  13.975  0.00  0.00    +0.000 C 
ATOM     16  C   UNL     1       5.972   3.802  16.096  0.00  0.00    +0.000 C 
ENDBRANCH   7  11
BRANCH   1  18
ATOM     17  C   UNL     1       1.961   7.536  20.185  0.00  0.00    +0.000 C 
ATOM     18  O   UNL     1       1.499   6.407  20.918  0.00  0.00    +0.000 OA
ENDBRANCH   1  18
TORSDOF 2
ENDMDL
MODEL 6
REMARK VINA RESULT:      -6.5      0.869      1.019
REMARK  Name = 
REMARK  4 active torsions:
REMARK  status: ('A' for Active; 'I' for Inactive)
REMARK    1  A    between atoms: C_1  and  O_2
REMARK    2  A    between atoms: O_2  and  C_3
REMARK    3  A    between atoms: C_9  and  C_10
REMARK    4  A    between atoms: N_13  and  C_14
REMARK                            x       y       z     vdW  Elec       q    Type
REMARK                         _______ _______ _______ _____ _____    ______ ____
ROOT
ATOM      1  C   UNL     1       6.038   3.441  12.543  0.00  0.00    +0.000 A 
ATOM      2  C   UNL     1       7.079   4.290  12.185  0.00  0.00    +0.000 A 
ATOM      3  C   UNL     1       7.691   5.118  13.133  0.00  0.00    +0.000 A 
ATOM      4  C   UNL     1       7.206   5.079  14.445  0.00  0.00    +0.000 A 
ATOM      5  N   UNL     1       7.588   5.790  15.556  0.00  0.00    +0.000 N 
ATOM      6  C   UNL     1       6.819   5.436  16.633  0.00  0.00    +0.000 A 
ATOM      7  C   UNL     1       5.920   4.469  16.230  0.00  0.00    +0.000 A 
ATOM      8  C   UNL     1       6.160   4.242  14.834  0.00  0.00    +0.000 A 
ATOM      9  C   UNL     1       5.576   3.410  13.860  0.00  0.00    +0.000 A 
ATOM     10  H   UNL     1       8.325   6.482  15.570  0.00  0.00    +0.000 HD
ENDROOT
BRANCH   7  11
ATOM     11  C   UNL     1       4.895   3.795  17.101  0.00  0.00    +0.000 C 
ATOM     12  C   UNL     1       3.453   3.978  16.607  0.00  0.00    +0.000 C 
ATOM     13  C   UNL     1       2.699   4.582  17.786  0.00  0.00    +0.000 C 
ATOM     14  N   UNL     1       3.473   4.157  18.952  0.00  0.00    +0.000 NA
ATOM     15  C   UNL     1       3.162   4.952  20.134  0.00  0.00    +0.000 C 
ATOM     16  C   UNL     1       4.879   4.298  18.551  0.00  0.00    +0.000 C 
ENDBRANCH   7  11
BRANCH   1  18
ATOM     17  C   UNL     1       4.103   3.148  11.221  0.00  0.00    +0.000 C 
ATOM     18  O   UNL     1       5.350   2.634  11.674  0.00  0.00    +0.000 OA
ENDBRANCH   1  18
TORSDOF 2
ENDMDL
MODEL 7
REMARK VINA RESULT:      -6.5      2.099      3.400
REMARK  Name = 
REMARK  4 active torsions:
REMARK  status: ('A' for Active; 'I' for Inactive)
REMARK    1  A    between atoms: C_1  and  O_2
REMARK    2  A    between atoms: O_2  and  C_3
REMARK    3  A    between atoms: C_9  and  C_10
REMARK    4  A    between atoms: N_13  and  C_14
REMARK                            x       y       z     vdW  Elec       q    Type
REMARK                         _______ _______ _______ _____ _____    ______ ____
ROOT
ATOM      1  C   UNL     1       5.783   4.434  15.189  0.00  0.00    +0.000 A 
ATOM      2  C   UNL     1       5.966   5.806  15.048  0.00  0.00    +0.000 A 
ATOM      3  C   UNL     1       5.322   6.710  15.899  0.00  0.00    +0.000 A 
ATOM      4  C   UNL     1       4.471   6.191  16.882  0.00  0.00    +0.000 A 
ATOM      5  N   UNL     1       3.700   6.831  17.820  0.00  0.00    +0.000 N 
ATOM      6  C   UNL     1       3.008   5.917  18.569  0.00  0.00    +0.000 A 
ATOM      7  C   UNL     1       3.333   4.650  18.126  0.00  0.00    +0.000 A 
ATOM      8  C   UNL     1       4.263   4.821  17.046  0.00  0.00    +0.000 A 
ATOM      9  C   UNL     1       4.938   3.937  16.183  0.00  0.00    +0.000 A 
ATOM     10  H   UNL     1       3.647   7.834  17.931  0.00  0.00    +0.000 HD
ENDROOT
BRANCH   7  11
ATOM     11  C   UNL     1       2.806   3.355  18.680  0.00  0.00    +0.000 C 
ATOM     12  C   UNL     1       1.317   3.123  18.388  0.00  0.00    +0.000 C 
ATOM     13  C   UNL     1       0.672   2.893  19.749  0.00  0.00    +0.000 C 
ATOM     14  N   UNL     1       1.773   2.408  20.582  0.00  0.00    +0.000 NA
ATOM     15  C   UNL     1       1.471   2.513  22.003  0.00  0.00    +0.000 C 
ATOM     16  C   UNL     1       2.930   3.232  20.205  0.00  0.00    +0.000 C 
ENDBRANCH   7  11
BRANCH   1  18
ATOM     17  C   UNL     1       6.133   3.683  12.979  0.00  0.00    +0.000 C 
ATOM     18  O   UNL     1       6.333   3.481  14.373  0.00  0.00    +0.000 OA
ENDBRANCH   1  18
TORSDOF 2
ENDMDL
MODEL 8
REMARK VINA RESULT:      -6.2      4.181      7.415
REMARK  Name = 
REMARK  4 active torsions:
REMARK  status: ('A' for Active; 'I' for Inactive)
REMARK    1  A    between atoms: C_1  and  O_2
REMARK    2  A    between atoms: O_2  and  C_3
REMARK    3  A    between atoms: C_9  and  C_10
REMARK    4  A    between atoms: N_13  and  C_14
REMARK                            x       y       z     vdW  Elec       q    Type
REMARK                         _______ _______ _______ _____ _____    ______ ____
ROOT
ATOM      1  C   UNL     1       1.348   9.422  19.049  0.00  0.00    +0.000 A 
ATOM      2  C   UNL     1       0.872   9.266  20.347  0.00  0.00    +0.000 A 
ATOM      3  C   UNL     1       1.138   8.103  21.076  0.00  0.00    +0.000 A 
ATOM      4  C   UNL     1       1.879   7.093  20.450  0.00  0.00    +0.000 A 
ATOM      5  N   UNL     1       2.259   5.856  20.907  0.00  0.00    +0.000 N 
ATOM      6  C   UNL     1       2.966   5.190  19.940  0.00  0.00    +0.000 A 
ATOM      7  C   UNL     1       3.063   6.005  18.829  0.00  0.00    +0.000 A 
ATOM      8  C   UNL     1       2.367   7.218  19.149  0.00  0.00    +0.000 A 
ATOM      9  C   UNL     1       2.095   8.408  18.448  0.00  0.00    +0.000 A 
ATOM     10  H   UNL     1       2.038   5.488  21.822  0.00  0.00    +0.000 HD
ENDROOT
BRANCH   7  11
ATOM     11  C   UNL     1       3.766   5.669  17.543  0.00  0.00    +0.000 C 
ATOM     12  C   UNL     1       3.578   4.211  17.102  0.00  0.00    +0.000 C 
ATOM     13  C   UNL     1       4.987   3.656  16.935  0.00  0.00    +0.000 C 
ATOM     14  N   UNL     1       5.802   4.843  16.675  0.00  0.00    +0.000 NA
ATOM     15  C   UNL     1       7.222   4.589  16.887  0.00  0.00    +0.000 C 
ATOM     16  C   UNL     1       5.287   5.870  17.591  0.00  0.00    +0.000 C 
ENDBRANCH   7  11
BRANCH   1  18
ATOM     17  C   UNL     1       1.034  11.759  18.915  0.00  0.00    +0.000 C 
ATOM     18  O   UNL     1       1.095  10.504  18.246  0.00  0.00    +0.000 OA
ENDBRANCH   1  18
TORSDOF 2
ENDMDL
MODEL 9
REMARK VINA RESULT:      -6.2      2.912      6.294
REMARK  Name = 
REMARK  4 active torsions:
REMARK  status: ('A' for Active; 'I' for Inactive)
REMARK    1  A    between atoms: C_1  and  O_2
REMARK    2  A    between atoms: O_2  and  C_3
REMARK    3  A    between atoms: C_9  and  C_10
REMARK    4  A    between atoms: N_13  and  C_14
REMARK                            x       y       z     vdW  Elec       q    Type
REMARK                         _______ _______ _______ _____ _____    ______ ____
ROOT
ATOM      1  C   UNL     1       2.846   4.345  19.997  0.00  0.00    +0.000 A 
ATOM      2  C   UNL     1       2.262   5.574  20.284  0.00  0.00    +0.000 A 
ATOM      3  C   UNL     1       2.532   6.700  19.499  0.00  0.00    +0.000 A 
ATOM      4  C   UNL     1       3.425   6.555  18.432  0.00  0.00    +0.000 A 
ATOM      5  N   UNL     1       3.889   7.478  17.528  0.00  0.00    +0.000 N 
ATOM      6  C   UNL     1       4.771   6.891  16.660  0.00  0.00    +0.000 A 
ATOM      7  C   UNL     1       4.884   5.554  16.988  0.00  0.00    +0.000 A 
ATOM      8  C   UNL     1       4.031   5.337  18.121  0.00  0.00    +0.000 A 
ATOM      9  C   UNL     1       3.726   4.219  18.921  0.00  0.00    +0.000 A 
ATOM     10  H   UNL     1       3.624   8.453  17.516  0.00  0.00    +0.000 HD
ENDROOT
BRANCH   7  11
ATOM     11  C   UNL     1       5.741   4.538  16.283  0.00  0.00    +0.000 C 
ATOM     12  C   UNL     1       7.121   5.073  15.879  0.00  0.00    +0.000 C 
ATOM     13  C   UNL     1       7.223   4.829  14.378  0.00  0.00    +0.000 C 
ATOM     14  N   UNL     1       6.302   3.717  14.140  0.00  0.00    +0.000 NA
ATOM     15  C   UNL     1       5.944   3.594  12.733  0.00  0.00    +0.000 C 
ATOM     16  C   UNL     1       5.131   4.003  14.981  0.00  0.00    +0.000 C 
ENDBRANCH   7  11
BRANCH   1  18
ATOM     17  C   UNL     1       1.345   2.710  20.802  0.00  0.00    +0.000 C 
ATOM     18  O   UNL     1       2.678   3.204  20.738  0.00  0.00    +0.000 OA
ENDBRANCH   1  18
TORSDOF 2
ENDMDL
