MODEL 1
REMARK VINA RESULT:      -7.3      0.000      0.000
REMARK  Name = 
REMARK  10 active torsions:
REMARK  status: ('A' for Active; 'I' for Inactive)
REMARK    1  A    between atoms: C_1  and  C_2
REMARK    2  A    between atoms: C_2  and  C_3
REMARK    3  A    between atoms: C_7  and  C_8
REMARK    4  A    between atoms: C_8  and  C_9
REMARK    5  A    between atoms: C_10  and  N_11
REMARK    6  A    between atoms: C_12  and  S_13
REMARK    7  A    between atoms: N_14  and  C_15
REMARK    8  A    between atoms: C_15  and  C_16
REMARK    9  A    between atoms: C_16  and  C_17
REMARK   10  A    between atoms: C_16  and  N_23
REMARK                            x       y       z     vdW  Elec       q    Type
REMARK                         _______ _______ _______ _____ _____    ______ ____
ROOT
ATOM      1  N   UNL     1       0.437   9.397  19.160  0.00  0.00    +0.000 NA
ATOM      2  C   UNL     1       1.606   9.629  18.637  0.00  0.00    +0.000 C 
ATOM      3  N   UNL     1       2.557   8.646  18.524  0.00  0.00    +0.000 N 
ATOM      4  H   UNL     1       3.416   8.993  18.110  0.00  0.00    +0.000 HD
ENDROOT
BRANCH   1  10
ATOM      5  C   UNL     1      -0.752  11.012  20.603  0.00  0.00    +0.000 A 
ATOM      6  C   UNL     1      -1.743  12.003  20.727  0.00  0.00    +0.000 A 
ATOM      7  C   UNL     1      -2.636  12.263  19.698  0.00  0.00    +0.000 A 
ATOM      8  C   UNL     1      -2.562  11.522  18.525  0.00  0.00    +0.000 A 
ATOM      9  C   UNL     1      -1.540  10.568  18.341  0.00  0.00    +0.000 A 
ATOM     10  C   UNL     1      -0.577  10.350  19.359  0.00  0.00    +0.000 A 
BRANCH   5  12
ATOM     11  C   UNL     1      -0.780  10.350  23.044  0.00  0.00    +0.000 C 
ATOM     12  C   UNL     1       0.071  10.668  21.824  0.00  0.00    +0.000 C 
ENDBRANCH   5  12
BRANCH   9  13
ATOM     13  C   UNL     1      -1.593   9.753  17.060  0.00  0.00    +0.000 C 
ATOM     14  C   UNL     1      -2.909   9.931  16.308  0.00  0.00    +0.000 C 
ENDBRANCH   9  13
ENDBRANCH   1  10
BRANCH   2  15
ATOM     15  S   UNL     1       2.227  11.129  17.965  0.00  0.00    +0.000 S 
ATOM     16  H   UNL     1       1.264  11.360  17.072  0.00  0.00    +0.000 HD
ENDBRANCH   2  15
BRANCH   3  17
ATOM     17  C   UNL     1       2.141   7.352  17.997  0.00  0.00    +0.000 C 
BRANCH  17  18
ATOM     18  C   UNL     1       3.089   6.180  18.420  0.00  0.00    +0.000 C 
BRANCH  18  19
ATOM     19  C   UNL     1       2.380   5.064  19.176  0.00  0.00    +0.000 A 
ATOM     20  C   UNL     1       1.498   4.155  18.577  0.00  0.00    +0.000 A 
ATOM     21  C   UNL     1       0.876   3.168  19.341  0.00  0.00    +0.000 A 
ATOM     22  C   UNL     1       1.145   3.116  20.696  0.00  0.00    +0.000 A 
ATOM     23  N   UNL     1       1.975   3.979  21.322  0.00  0.00    +0.000 NA
ATOM     24  C   UNL     1       2.555   4.930  20.555  0.00  0.00    +0.000 A 
ENDBRANCH  18  19
BRANCH  18  25
ATOM     25  N   UNL     1       3.916   5.784  17.256  0.00  0.00    +0.000 NA
ATOM     26  C   UNL     1       4.636   4.510  17.322  0.00  0.00    +0.000 C 
ATOM     27  C   UNL     1       6.049   4.620  17.911  0.00  0.00    +0.000 C 
ATOM     28  O   UNL     1       6.827   5.577  17.185  0.00  0.00    +0.000 OA
ATOM     29  C   UNL     1       6.202   6.868  17.232  0.00  0.00    +0.000 C 
ATOM     30  C   UNL     1       4.770   6.823  16.666  0.00  0.00    +0.000 C 
ENDBRANCH  18  25
ENDBRANCH  17  18
ENDBRANCH   3  17
TORSDOF 8
ENDMDL
MODEL 2
REMARK VINA RESULT:      -7.2      1.028      1.514
REMARK  Name = 
REMARK  10 active torsions:
REMARK  status: ('A' for Active; 'I' for Inactive)
REMARK    1  A    between atoms: C_1  and  C_2
REMARK    2  A    between atoms: C_2  and  C_3
REMARK    3  A    between atoms: C_7  and  C_8
REMARK    4  A    between atoms: C_8  and  C_9
REMARK    5  A    between atoms: C_10  and  N_11
REMARK    6  A    between atoms: C_12  and  S_13
REMARK    7  A    between atoms: N_14  and  C_15
REMARK    8  A    between atoms: C_15  and  C_16
REMARK    9  A    between atoms: C_16  and  C_17
REMARK   10  A    between atoms: C_16  and  N_23
REMARK                            x       y       z     vdW  Elec       q    Type
REMARK                         _______ _______ _______ _____ _____    ______ ____
ROOT
ATOM      1  N   UNL     1       0.415   9.595  19.273  0.00  0.00    +0.000 NA
ATOM      2  C   UNL     1       1.548   9.850  18.687  0.00  0.00    +0.000 C 
ATOM      3  N   UNL     1       2.547   8.912  18.604  0.00  0.00    +0.000 N 
ATOM      4  H   UNL     1       3.370   9.273  18.132  0.00  0.00    +0.000 HD
ENDROOT
BRANCH   1  10
ATOM      5  C   UNL     1      -0.842  11.200  20.669  0.00  0.00    +0.000 A 
ATOM      6  C   UNL     1      -1.879  12.147  20.765  0.00  0.00    +0.000 A 
ATOM      7  C   UNL     1      -2.789  12.329  19.734  0.00  0.00    +0.000 A 
ATOM      8  C   UNL     1      -2.686  11.552  18.587  0.00  0.00    +0.000 A 
ATOM      9  C   UNL     1      -1.621  10.642  18.428  0.00  0.00    +0.000 A 
ATOM     10  C   UNL     1      -0.643  10.505  19.446  0.00  0.00    +0.000 A 
BRANCH   5  12
ATOM     11  C   UNL     1      -0.507   9.775  22.730  0.00  0.00    +0.000 C 
ATOM     12  C   UNL     1       0.002  10.939  21.894  0.00  0.00    +0.000 C 
ENDBRANCH   5  12
BRANCH   9  13
ATOM     13  C   UNL     1      -1.642   9.781  17.177  0.00  0.00    +0.000 C 
ATOM     14  C   UNL     1      -2.854  10.064  16.292  0.00  0.00    +0.000 C 
ENDBRANCH   9  13
ENDBRANCH   1  10
BRANCH   2  15
ATOM     15  S   UNL     1       2.059  11.328  17.887  0.00  0.00    +0.000 S 
ATOM     16  H   UNL     1       0.855  11.831  17.612  0.00  0.00    +0.000 HD
ENDBRANCH   2  15
BRANCH   3  17
ATOM     17  C   UNL     1       2.184   7.564  18.188  0.00  0.00    +0.000 C 
BRANCH  17  18
ATOM     18  C   UNL     1       2.884   6.447  19.033  0.00  0.00    +0.000 C 
BRANCH  18  19
ATOM     19  C   UNL     1       2.107   5.138  19.077  0.00  0.00    +0.000 A 
ATOM     20  C   UNL     1       1.768   4.472  20.263  0.00  0.00    +0.000 A 
ATOM     21  C   UNL     1       1.065   3.268  20.220  0.00  0.00    +0.000 A 
ATOM     22  C   UNL     1       0.722   2.749  18.985  0.00  0.00    +0.000 A 
ATOM     23  N   UNL     1       1.039   3.346  17.815  0.00  0.00    +0.000 NA
ATOM     24  C   UNL     1       1.728   4.506  17.891  0.00  0.00    +0.000 A 
ENDBRANCH  18  19
BRANCH  18  25
ATOM     25  N   UNL     1       4.311   6.370  18.645  0.00  0.00    +0.000 NA
ATOM     26  C   UNL     1       4.644   6.444  17.220  0.00  0.00    +0.000 C 
ATOM     27  C   UNL     1       4.688   5.081  16.517  0.00  0.00    +0.000 C 
ATOM     28  O   UNL     1       5.598   4.198  17.181  0.00  0.00    +0.000 OA
ATOM     29  C   UNL     1       5.201   4.004  18.545  0.00  0.00    +0.000 C 
ATOM     30  C   UNL     1       5.124   5.341  19.307  0.00  0.00    +0.000 C 
ENDBRANCH  18  25
ENDBRANCH  17  18
ENDBRANCH   3  17
TORSDOF 8
ENDMDL
MODEL 3
REMARK VINA RESULT:      -7.0      0.283      2.534
REMARK  Name = 
REMARK  10 active torsions:
REMARK  status: ('A' for Active; 'I' for Inactive)
REMARK    1  A    between atoms: C_1  and  C_2
REMARK    2  A    between atoms: C_2  and  C_3
REMARK    3  A    between atoms: C_7  and  C_8
REMARK    4  A    between atoms: C_8  and  C_9
REMARK    5  A    between atoms: C_10  and  N_11
REMARK    6  A    between atoms: C_12  and  S_13
REMARK    7  A    between atoms: N_14  and  C_15
REMARK    8  A    between atoms: C_15  and  C_16
REMARK    9  A    between atoms: C_16  and  C_17
REMARK   10  A    between atoms: C_16  and  N_23
REMARK                            x       y       z     vdW  Elec       q    Type
REMARK                         _______ _______ _______ _____ _____    ______ ____
ROOT
ATOM      1  N   UNL     1       0.239   9.304  19.148  0.00  0.00    +0.000 NA
ATOM      2  C   UNL     1       1.436   9.535  18.694  0.00  0.00    +0.000 C 
ATOM      3  N   UNL     1       2.397   8.555  18.654  0.00  0.00    +0.000 N 
ATOM      4  H   UNL     1       3.279   8.901  18.289  0.00  0.00    +0.000 HD
ENDROOT
BRANCH   1  10
ATOM      5  C   UNL     1      -1.718  10.493  18.221  0.00  0.00    +0.000 A 
ATOM      6  C   UNL     1      -2.767  11.410  18.421  0.00  0.00    +0.000 A 
ATOM      7  C   UNL     1      -2.845  12.177  19.574  0.00  0.00    +0.000 A 
ATOM      8  C   UNL     1      -1.862  12.050  20.547  0.00  0.00    +0.000 A 
ATOM      9  C   UNL     1      -0.834  11.095  20.410  0.00  0.00    +0.000 A 
ATOM     10  C   UNL     1      -0.790  10.253  19.269  0.00  0.00    +0.000 A 
BRANCH   5  12
ATOM     11  C   UNL     1      -2.695  10.249  15.901  0.00  0.00    +0.000 C 
ATOM     12  C   UNL     1      -1.605   9.821  16.872  0.00  0.00    +0.000 C 
ENDBRANCH   5  12
BRANCH   9  13
ATOM     13  C   UNL     1       0.238  11.090  21.486  0.00  0.00    +0.000 C 
ATOM     14  C   UNL     1      -0.108  10.166  22.652  0.00  0.00    +0.000 C 
ENDBRANCH   9  13
ENDBRANCH   1  10
BRANCH   2  15
ATOM     15  S   UNL     1       2.090  11.028  18.040  0.00  0.00    +0.000 S 
ATOM     16  H   UNL     1       1.764  10.844  16.760  0.00  0.00    +0.000 HD
ENDBRANCH   2  15
BRANCH   3  17
ATOM     17  C   UNL     1       2.020   7.252  18.122  0.00  0.00    +0.000 C 
BRANCH  17  18
ATOM     18  C   UNL     1       3.006   6.108  18.535  0.00  0.00    +0.000 C 
BRANCH  18  19
ATOM     19  C   UNL     1       2.342   4.982  19.317  0.00  0.00    +0.000 A 
ATOM     20  C   UNL     1       1.437   4.072  18.754  0.00  0.00    +0.000 A 
ATOM     21  C   UNL     1       0.858   3.074  19.539  0.00  0.00    +0.000 A 
ATOM     22  C   UNL     1       1.194   3.014  20.879  0.00  0.00    +0.000 A 
ATOM     23  N   UNL     1       2.049   3.877  21.470  0.00  0.00    +0.000 NA
ATOM     24  C   UNL     1       2.584   4.838  20.684  0.00  0.00    +0.000 A 
ENDBRANCH  18  19
BRANCH  18  25
ATOM     25  N   UNL     1       3.819   5.722  17.358  0.00  0.00    +0.000 NA
ATOM     26  C   UNL     1       4.553   4.455  17.412  0.00  0.00    +0.000 C 
ATOM     27  C   UNL     1       5.974   4.579  17.978  0.00  0.00    +0.000 C 
ATOM     28  O   UNL     1       6.730   5.546  17.240  0.00  0.00    +0.000 OA
ATOM     29  C   UNL     1       6.093   6.829  17.299  0.00  0.00    +0.000 C 
ATOM     30  C   UNL     1       4.652   6.771  16.756  0.00  0.00    +0.000 C 
ENDBRANCH  18  25
ENDBRANCH  17  18
ENDBRANCH   3  17
TORSDOF 8
ENDMDL
MODEL 4
REMARK VINA RESULT:      -7.0      1.060      2.945
REMARK  Name = 
REMARK  10 active torsions:
REMARK  status: ('A' for Active; 'I' for Inactive)
REMARK    1  A    between atoms: C_1  and  C_2
REMARK    2  A    between atoms: C_2  and  C_3
REMARK    3  A    between atoms: C_7  and  C_8
REMARK    4  A    between atoms: C_8  and  C_9
REMARK    5  A    between atoms: C_10  and  N_11
REMARK    6  A    between atoms: C_12  and  S_13
REMARK    7  A    between atoms: N_14  and  C_15
REMARK    8  A    between atoms: C_15  and  C_16
REMARK    9  A    between atoms: C_16  and  C_17
REMARK   10  A    between atoms: C_16  and  N_23
REMARK                            x       y       z     vdW  Elec       q    Type
REMARK                         _______ _______ _______ _____ _____    ______ ____
ROOT
ATOM      1  N   UNL     1       0.191   9.493  19.214  0.00  0.00    +0.000 NA
ATOM      2  C   UNL     1       1.375   9.764  18.747  0.00  0.00    +0.000 C 
ATOM      3  N   UNL     1       2.388   8.837  18.759  0.00  0.00    +0.000 N 
ATOM      4  H   UNL     1       3.250   9.210  18.374  0.00  0.00    +0.000 HD
ENDROOT
BRANCH   1  10
ATOM      5  C   UNL     1      -1.806  10.547  18.213  0.00  0.00    +0.000 A 
ATOM      6  C   UNL     1      -2.905  11.412  18.364  0.00  0.00    +0.000 A 
ATOM      7  C   UNL     1      -3.046  12.211  19.490  0.00  0.00    +0.000 A 
ATOM      8  C   UNL     1      -2.077  12.167  20.484  0.00  0.00    +0.000 A 
ATOM      9  C   UNL     1      -0.999  11.264  20.398  0.00  0.00    +0.000 A 
ATOM     10  C   UNL     1      -0.888  10.390  19.286  0.00  0.00    +0.000 A 
BRANCH   5  12
ATOM     11  C   UNL     1      -2.872   9.904  16.012  0.00  0.00    +0.000 C 
ATOM     12  C   UNL     1      -1.632   9.839  16.890  0.00  0.00    +0.000 C 
ENDBRANCH   5  12
BRANCH   9  13
ATOM     13  C   UNL     1       0.051  11.350  21.493  0.00  0.00    +0.000 C 
ATOM     14  C   UNL     1      -0.244  10.410  22.660  0.00  0.00    +0.000 C 
ENDBRANCH   9  13
ENDBRANCH   1  10
BRANCH   2  15
ATOM     15  S   UNL     1       1.947  11.253  18.012  0.00  0.00    +0.000 S 
ATOM     16  H   UNL     1       1.769  12.068  19.051  0.00  0.00    +0.000 HD
ENDBRANCH   2  15
BRANCH   3  17
ATOM     17  C   UNL     1       2.083   7.488  18.299  0.00  0.00    +0.000 C 
BRANCH  17  18
ATOM     18  C   UNL     1       2.813   6.375  19.124  0.00  0.00    +0.000 C 
BRANCH  18  19
ATOM     19  C   UNL     1       2.073   5.044  19.141  0.00  0.00    +0.000 A 
ATOM     20  C   UNL     1       1.764   4.340  20.313  0.00  0.00    +0.000 A 
ATOM     21  C   UNL     1       1.094   3.118  20.245  0.00  0.00    +0.000 A 
ATOM     22  C   UNL     1       0.755   2.621  19.000  0.00  0.00    +0.000 A 
ATOM     23  N   UNL     1       1.045   3.255  17.843  0.00  0.00    +0.000 NA
ATOM     24  C   UNL     1       1.702   4.432  17.942  0.00  0.00    +0.000 A 
ENDBRANCH  18  19
BRANCH  18  25
ATOM     25  N   UNL     1       4.243   6.346  18.737  0.00  0.00    +0.000 NA
ATOM     26  C   UNL     1       4.576   6.474  17.316  0.00  0.00    +0.000 C 
ATOM     27  C   UNL     1       4.655   5.135  16.570  0.00  0.00    +0.000 C 
ATOM     28  O   UNL     1       5.586   4.254  17.208  0.00  0.00    +0.000 OA
ATOM     29  C   UNL     1       5.191   4.007  18.565  0.00  0.00    +0.000 C 
ATOM     30  C   UNL     1       5.079   5.317  19.368  0.00  0.00    +0.000 C 
ENDBRANCH  18  25
ENDBRANCH  17  18
ENDBRANCH   3  17
TORSDOF 8
ENDMDL
MODEL 5
REMARK VINA RESULT:      -6.9      1.888      2.896
REMARK  Name = 
REMARK  10 active torsions:
REMARK  status: ('A' for Active; 'I' for Inactive)
REMARK    1  A    between atoms: C_1  and  C_2
REMARK    2  A    between atoms: C_2  and  C_3
REMARK    3  A    between atoms: C_7  and  C_8
REMARK    4  A    between atoms: C_8  and  C_9
REMARK    5  A    between atoms: C_10  and  N_11
REMARK    6  A    between atoms: C_12  and  S_13
REMARK    7  A    between atoms: N_14  and  C_15
REMARK    8  A    between atoms: C_15  and  C_16
REMARK    9  A    between atoms: C_16  and  C_17
REMARK   10  A    between atoms: C_16  and  N_23
REMARK                            x       y       z     vdW  Elec       q    Type
REMARK                         _______ _______ _______ _____ _____    ______ ____
ROOT
ATOM      1  N   UNL     1       0.999   9.718  18.223  0.00  0.00    +0.000 NA
ATOM      2  C   UNL     1       1.375   8.858  19.125  0.00  0.00    +0.000 C 
ATOM      3  N   UNL     1       1.991   7.678  18.788  0.00  0.00    +0.000 N 
ATOM      4  H   UNL     1       2.205   7.114  19.604  0.00  0.00    +0.000 HD
ENDROOT
BRANCH   1  10
ATOM      5  C   UNL     1      -1.096  11.002  18.478  0.00  0.00    +0.000 A 
ATOM      6  C   UNL     1      -1.721  12.223  18.795  0.00  0.00    +0.000 A 
ATOM      7  C   UNL     1      -0.985  13.384  18.982  0.00  0.00    +0.000 A 
ATOM      8  C   UNL     1       0.397  13.347  18.839  0.00  0.00    +0.000 A 
ATOM      9  C   UNL     1       1.061  12.130  18.588  0.00  0.00    +0.000 A 
ATOM     10  C   UNL     1       0.322  10.925  18.472  0.00  0.00    +0.000 A 
BRANCH   5  12
ATOM     11  C   UNL     1      -2.636   9.965  16.761  0.00  0.00    +0.000 C 
ATOM     12  C   UNL     1      -1.972   9.823  18.122  0.00  0.00    +0.000 C 
ENDBRANCH   5  12
BRANCH   9  13
ATOM     13  C   UNL     1       2.563  12.207  18.368  0.00  0.00    +0.000 C 
ATOM     14  C   UNL     1       3.072  13.645  18.309  0.00  0.00    +0.000 C 
ENDBRANCH   9  13
ENDBRANCH   1  10
BRANCH   2  15
ATOM     15  S   UNL     1       1.234   8.972  20.872  0.00  0.00    +0.000 S 
ATOM     16  H   UNL     1       0.539   7.855  21.088  0.00  0.00    +0.000 HD
ENDBRANCH   2  15
BRANCH   3  17
ATOM     17  C   UNL     1       3.076   7.729  17.816  0.00  0.00    +0.000 C 
BRANCH  17  18
ATOM     18  C   UNL     1       4.149   6.609  18.031  0.00  0.00    +0.000 C 
BRANCH  18  19
ATOM     19  C   UNL     1       3.550   5.238  18.320  0.00  0.00    +0.000 A 
ATOM     20  C   UNL     1       2.426   4.724  17.659  0.00  0.00    +0.000 A 
ATOM     21  C   UNL     1       1.928   3.464  17.990  0.00  0.00    +0.000 A 
ATOM     22  C   UNL     1       2.565   2.744  18.984  0.00  0.00    +0.000 A 
ATOM     23  N   UNL     1       3.642   3.203  19.659  0.00  0.00    +0.000 NA
ATOM     24  C   UNL     1       4.093   4.432  19.322  0.00  0.00    +0.000 A 
ENDBRANCH  18  19
BRANCH  18  25
ATOM     25  N   UNL     1       5.155   6.689  16.947  0.00  0.00    +0.000 NA
ATOM     26  C   UNL     1       5.205   5.599  15.969  0.00  0.00    +0.000 C 
ATOM     27  C   UNL     1       6.153   4.456  16.357  0.00  0.00    +0.000 C 
ATOM     28  O   UNL     1       7.474   4.953  16.597  0.00  0.00    +0.000 OA
ATOM     29  C   UNL     1       7.459   5.923  17.653  0.00  0.00    +0.000 C 
ATOM     30  C   UNL     1       6.513   7.095  17.331  0.00  0.00    +0.000 C 
ENDBRANCH  18  25
ENDBRANCH  17  18
ENDBRANCH   3  17
TORSDOF 8
ENDMDL
MODEL 6
REMARK VINA RESULT:      -6.9      1.789      2.842
REMARK  Name = 
REMARK  10 active torsions:
REMARK  status: ('A' for Active; 'I' for Inactive)
REMARK    1  A    between atoms: C_1  and  C_2
REMARK    2  A    between atoms: C_2  and  C_3
REMARK    3  A    between atoms: C_7  and  C_8
REMARK    4  A    between atoms: C_8  and  C_9
REMARK    5  A    between atoms: C_10  and  N_11
REMARK    6  A    between atoms: C_12  and  S_13
REMARK    7  A    between atoms: N_14  and  C_15
REMARK    8  A    between atoms: C_15  and  C_16
REMARK    9  A    between atoms: C_16  and  C_17
REMARK   10  A    between atoms: C_16  and  N_23
REMARK                            x       y       z     vdW  Elec       q    Type
REMARK                         _______ _______ _______ _____ _____    ______ ____
ROOT
ATOM      1  N   UNL     1       0.955   9.575  18.417  0.00  0.00    +0.000 NA
ATOM      2  C   UNL     1       1.317   8.839  19.428  0.00  0.00    +0.000 C 
ATOM      3  N   UNL     1       1.909   7.613  19.256  0.00  0.00    +0.000 N 
ATOM      4  H   UNL     1       2.114   7.162  20.141  0.00  0.00    +0.000 HD
ENDROOT
BRANCH   1  10
ATOM      5  C   UNL     1      -1.113  10.925  18.450  0.00  0.00    +0.000 A 
ATOM      6  C   UNL     1      -1.716  12.188  18.599  0.00  0.00    +0.000 A 
ATOM      7  C   UNL     1      -0.957  13.347  18.668  0.00  0.00    +0.000 A 
ATOM      8  C   UNL     1       0.426  13.264  18.575  0.00  0.00    +0.000 A 
ATOM      9  C   UNL     1       1.067  12.011  18.492  0.00  0.00    +0.000 A 
ATOM     10  C   UNL     1       0.302  10.817  18.497  0.00  0.00    +0.000 A 
BRANCH   5  12
ATOM     11  C   UNL     1      -2.974   9.933  17.053  0.00  0.00    +0.000 C 
ATOM     12  C   UNL     1      -2.008   9.731  18.210  0.00  0.00    +0.000 C 
ENDBRANCH   5  12
BRANCH   9  13
ATOM     13  C   UNL     1       2.576  12.029  18.311  0.00  0.00    +0.000 C 
ATOM     14  C   UNL     1       3.138  13.446  18.233  0.00  0.00    +0.000 C 
ENDBRANCH   9  13
ENDBRANCH   1  10
BRANCH   2  15
ATOM     15  S   UNL     1       1.181   9.193  21.143  0.00  0.00    +0.000 S 
ATOM     16  H   UNL     1       2.465   9.061  21.475  0.00  0.00    +0.000 HD
ENDBRANCH   2  15
BRANCH   3  17
ATOM     17  C   UNL     1       2.993   7.510  18.287  0.00  0.00    +0.000 C 
BRANCH  17  18
ATOM     18  C   UNL     1       3.735   6.132  18.336  0.00  0.00    +0.000 C 
BRANCH  18  19
ATOM     19  C   UNL     1       2.824   4.961  18.680  0.00  0.00    +0.000 A 
ATOM     20  C   UNL     1       2.873   4.268  19.898  0.00  0.00    +0.000 A 
ATOM     21  C   UNL     1       2.013   3.195  20.134  0.00  0.00    +0.000 A 
ATOM     22  C   UNL     1       1.125   2.832  19.138  0.00  0.00    +0.000 A 
ATOM     23  N   UNL     1       1.051   3.458  17.944  0.00  0.00    +0.000 NA
ATOM     24  C   UNL     1       1.904   4.487  17.743  0.00  0.00    +0.000 A 
ENDBRANCH  18  19
BRANCH  18  25
ATOM     25  N   UNL     1       4.580   5.995  17.127  0.00  0.00    +0.000 NA
ATOM     26  C   UNL     1       5.253   4.713  16.896  0.00  0.00    +0.000 C 
ATOM     27  C   UNL     1       6.652   4.621  17.520  0.00  0.00    +0.000 C 
ATOM     28  O   UNL     1       7.482   5.693  17.062  0.00  0.00    +0.000 OA
ATOM     29  C   UNL     1       6.902   6.958  17.408  0.00  0.00    +0.000 C 
ATOM     30  C   UNL     1       5.486   7.110  16.821  0.00  0.00    +0.000 C 
ENDBRANCH  18  25
ENDBRANCH  17  18
ENDBRANCH   3  17
TORSDOF 8
ENDMDL
MODEL 7
REMARK VINA RESULT:      -6.7      1.680      3.415
REMARK  Name = 
REMARK  10 active torsions:
REMARK  status: ('A' for Active; 'I' for Inactive)
REMARK    1  A    between atoms: C_1  and  C_2
REMARK    2  A    between atoms: C_2  and  C_3
REMARK    3  A    between atoms: C_7  and  C_8
REMARK    4  A    between atoms: C_8  and  C_9
REMARK    5  A    between atoms: C_10  and  N_11
REMARK    6  A    between atoms: C_12  and  S_13
REMARK    7  A    between atoms: N_14  and  C_15
REMARK    8  A    between atoms: C_15  and  C_16
REMARK    9  A    between atoms: C_16  and  C_17
REMARK   10  A    between atoms: C_16  and  N_23
REMARK                            x       y       z     vdW  Elec       q    Type
REMARK                         _______ _______ _______ _____ _____    ______ ____
ROOT
ATOM      1  N   UNL     1       0.574   9.199  19.159  0.00  0.00    +0.000 NA
ATOM      2  C   UNL     1       1.713   9.386  18.558  0.00  0.00    +0.000 C 
ATOM      3  N   UNL     1       2.566   8.346  18.283  0.00  0.00    +0.000 N 
ATOM      4  H   UNL     1       3.416   8.661  17.827  0.00  0.00    +0.000 HD
ENDROOT
BRANCH   1  10
ATOM      5  C   UNL     1      -0.369  10.753  20.833  0.00  0.00    +0.000 A 
ATOM      6  C   UNL     1      -1.258  11.803  21.124  0.00  0.00    +0.000 A 
ATOM      7  C   UNL     1      -2.194  12.235  20.195  0.00  0.00    +0.000 A 
ATOM      8  C   UNL     1      -2.265  11.611  18.956  0.00  0.00    +0.000 A 
ATOM      9  C   UNL     1      -1.345  10.601  18.606  0.00  0.00    +0.000 A 
ATOM     10  C   UNL     1      -0.338  10.206  19.522  0.00  0.00    +0.000 A 
BRANCH   5  12
ATOM     11  C   UNL     1      -0.296   9.575  23.070  0.00  0.00    +0.000 C 
ATOM     12  C   UNL     1       0.502  10.225  21.950  0.00  0.00    +0.000 C 
ENDBRANCH   5  12
BRANCH   9  13
ATOM     13  C   UNL     1      -1.557   9.924  17.263  0.00  0.00    +0.000 C 
ATOM     14  C   UNL     1      -3.030   9.851  16.870  0.00  0.00    +0.000 C 
ENDBRANCH   9  13
ENDBRANCH   1  10
BRANCH   2  15
ATOM     15  S   UNL     1       2.404  10.888  17.964  0.00  0.00    +0.000 S 
ATOM     16  H   UNL     1       1.938  10.840  16.715  0.00  0.00    +0.000 HD
ENDBRANCH   2  15
BRANCH   3  17
ATOM     17  C   UNL     1       2.001   7.141  17.688  0.00  0.00    +0.000 C 
BRANCH  17  18
ATOM     18  C   UNL     1       2.803   5.844  18.043  0.00  0.00    +0.000 C 
BRANCH  18  19
ATOM     19  C   UNL     1       4.069   5.664  17.216  0.00  0.00    +0.000 A 
ATOM     20  C   UNL     1       4.436   4.456  16.607  0.00  0.00    +0.000 A 
ATOM     21  C   UNL     1       5.621   4.367  15.875  0.00  0.00    +0.000 A 
ATOM     22  C   UNL     1       6.419   5.491  15.775  0.00  0.00    +0.000 A 
ATOM     23  N   UNL     1       6.115   6.672  16.356  0.00  0.00    +0.000 NA
ATOM     24  C   UNL     1       4.966   6.723  17.066  0.00  0.00    +0.000 A 
ENDBRANCH  18  19
BRANCH  18  25
ATOM     25  N   UNL     1       2.940   5.749  19.515  0.00  0.00    +0.000 NA
ATOM     26  C   UNL     1       3.885   4.769  20.057  0.00  0.00    +0.000 C 
ATOM     27  C   UNL     1       3.269   3.389  20.325  0.00  0.00    +0.000 C 
ATOM     28  O   UNL     1       2.136   3.500  21.192  0.00  0.00    +0.000 OA
ATOM     29  C   UNL     1       1.139   4.348  20.606  0.00  0.00    +0.000 C 
ATOM     30  C   UNL     1       1.698   5.750  20.299  0.00  0.00    +0.000 C 
ENDBRANCH  18  25
ENDBRANCH  17  18
ENDBRANCH   3  17
TORSDOF 8
ENDMDL
MODEL 8
REMARK VINA RESULT:      -6.6      0.868      1.217
REMARK  Name = 
REMARK  10 active torsions:
REMARK  status: ('A' for Active; 'I' for Inactive)
REMARK    1  A    between atoms: C_1  and  C_2
REMARK    2  A    between atoms: C_2  and  C_3
REMARK    3  A    between atoms: C_7  and  C_8
REMARK    4  A    between atoms: C_8  and  C_9
REMARK    5  A    between atoms: C_10  and  N_11
REMARK    6  A    between atoms: C_12  and  S_13
REMARK    7  A    between atoms: N_14  and  C_15
REMARK    8  A    between atoms: C_15  and  C_16
REMARK    9  A    between atoms: C_16  and  C_17
REMARK   10  A    between atoms: C_16  and  N_23
REMARK                            x       y       z     vdW  Elec       q    Type
REMARK                         _______ _______ _______ _____ _____    ______ ____
ROOT
ATOM      1  N   UNL     1       0.368   9.543  19.590  0.00  0.00    +0.000 NA
ATOM      2  C   UNL     1       1.475   9.721  18.930  0.00  0.00    +0.000 C 
ATOM      3  N   UNL     1       2.463   8.768  18.902  0.00  0.00    +0.000 N 
ATOM      4  H   UNL     1       3.265   9.067  18.358  0.00  0.00    +0.000 HD
ENDROOT
BRANCH   1  10
ATOM      5  C   UNL     1      -0.920  11.173  20.928  0.00  0.00    +0.000 A 
ATOM      6  C   UNL     1      -1.935  12.146  20.976  0.00  0.00    +0.000 A 
ATOM      7  C   UNL     1      -2.785  12.356  19.899  0.00  0.00    +0.000 A 
ATOM      8  C   UNL     1      -2.642  11.583  18.754  0.00  0.00    +0.000 A 
ATOM      9  C   UNL     1      -1.593  10.647  18.646  0.00  0.00    +0.000 A 
ATOM     10  C   UNL     1      -0.674  10.479  19.713  0.00  0.00    +0.000 A 
BRANCH   5  12
ATOM     11  C   UNL     1      -0.602   9.609  22.889  0.00  0.00    +0.000 C 
ATOM     12  C   UNL     1      -0.148  10.883  22.194  0.00  0.00    +0.000 C 
ENDBRANCH   5  12
BRANCH   9  13
ATOM     13  C   UNL     1      -1.570   9.794  17.389  0.00  0.00    +0.000 C 
ATOM     14  C   UNL     1      -2.657  10.190  16.393  0.00  0.00    +0.000 C 
ENDBRANCH   9  13
ENDBRANCH   1  10
BRANCH   2  15
ATOM     15  S   UNL     1       1.960  11.101  17.957  0.00  0.00    +0.000 S 
ATOM     16  H   UNL     1       3.278  11.027  18.150  0.00  0.00    +0.000 HD
ENDBRANCH   2  15
BRANCH   3  17
ATOM     17  C   UNL     1       2.070   7.388  18.646  0.00  0.00    +0.000 C 
BRANCH  17  18
ATOM     18  C   UNL     1       2.976   6.343  19.380  0.00  0.00    +0.000 C 
BRANCH  18  19
ATOM     19  C   UNL     1       2.254   5.048  19.729  0.00  0.00    +0.000 A 
ATOM     20  C   UNL     1       1.483   4.316  18.815  0.00  0.00    +0.000 A 
ATOM     21  C   UNL     1       0.839   3.144  19.215  0.00  0.00    +0.000 A 
ATOM     22  C   UNL     1       0.975   2.733  20.528  0.00  0.00    +0.000 A 
ATOM     23  N   UNL     1       1.694   3.413  21.448  0.00  0.00    +0.000 NA
ATOM     24  C   UNL     1       2.297   4.549  21.032  0.00  0.00    +0.000 A 
ENDBRANCH  18  19
BRANCH  18  25
ATOM     25  N   UNL     1       4.261   6.222  18.653  0.00  0.00    +0.000 NA
ATOM     26  C   UNL     1       4.218   6.050  17.199  0.00  0.00    +0.000 C 
ATOM     27  C   UNL     1       4.166   4.585  16.744  0.00  0.00    +0.000 C 
ATOM     28  O   UNL     1       5.267   3.847  17.286  0.00  0.00    +0.000 OA
ATOM     29  C   UNL     1       5.240   3.890  18.720  0.00  0.00    +0.000 C 
ATOM     30  C   UNL     1       5.276   5.339  19.243  0.00  0.00    +0.000 C 
ENDBRANCH  18  25
ENDBRANCH  17  18
ENDBRANCH   3  17
TORSDOF 8
ENDMDL
MODEL 9
REMARK VINA RESULT:      -6.6      2.192      4.194
REMARK  Name = 
REMARK  10 active torsions:
REMARK  status: ('A' for Active; 'I' for Inactive)
REMARK    1  A    between atoms: C_1  and  C_2
REMARK    2  A    between atoms: C_2  and  C_3
REMARK    3  A    between atoms: C_7  and  C_8
REMARK    4  A    between atoms: C_8  and  C_9
REMARK    5  A    between atoms: C_10  and  N_11
REMARK    6  A    between atoms: C_12  and  S_13
REMARK    7  A    between atoms: N_14  and  C_15
REMARK    8  A    between atoms: C_15  and  C_16
REMARK    9  A    between atoms: C_16  and  C_17
REMARK   10  A    between atoms: C_16  and  N_23
REMARK                            x       y       z     vdW  Elec       q    Type
REMARK                         _______ _______ _______ _____ _____    ______ ____
ROOT
ATOM      1  N   UNL     1       0.967   9.699  18.413  0.00  0.00    +0.000 NA
ATOM      2  C   UNL     1       1.321   8.920  19.394  0.00  0.00    +0.000 C 
ATOM      3  N   UNL     1       1.871   7.681  19.172  0.00  0.00    +0.000 N 
ATOM      4  H   UNL     1       2.076   7.195  20.039  0.00  0.00    +0.000 HD
ENDROOT
BRANCH   1  10
ATOM      5  C   UNL     1      -1.057  11.105  18.583  0.00  0.00    +0.000 A 
ATOM      6  C   UNL     1      -1.614  12.382  18.780  0.00  0.00    +0.000 A 
ATOM      7  C   UNL     1      -0.820  13.519  18.816  0.00  0.00    +0.000 A 
ATOM      8  C   UNL     1       0.553  13.399  18.639  0.00  0.00    +0.000 A 
ATOM      9  C   UNL     1       1.152  12.130  18.506  0.00  0.00    +0.000 A 
ATOM     10  C   UNL     1       0.355  10.957  18.545  0.00  0.00    +0.000 A 
BRANCH   5  12
ATOM     11  C   UNL     1      -2.541   9.846  16.967  0.00  0.00    +0.000 C 
ATOM     12  C   UNL     1      -1.998   9.939  18.385  0.00  0.00    +0.000 C 
ENDBRANCH   5  12
BRANCH   9  13
ATOM     13  C   UNL     1       2.647  12.108  18.236  0.00  0.00    +0.000 C 
ATOM     14  C   UNL     1       3.259  13.507  18.220  0.00  0.00    +0.000 C 
ENDBRANCH   9  13
ENDBRANCH   1  10
BRANCH   2  15
ATOM     15  S   UNL     1       1.224   9.221  21.121  0.00  0.00    +0.000 S 
ATOM     16  H   UNL     1       2.443   9.729  21.303  0.00  0.00    +0.000 HD
ENDBRANCH   2  15
BRANCH   3  17
ATOM     17  C   UNL     1       2.935   7.576  18.182  0.00  0.00    +0.000 C 
BRANCH  17  18
ATOM     18  C   UNL     1       3.159   6.113  17.670  0.00  0.00    +0.000 C 
BRANCH  18  19
ATOM     19  C   UNL     1       4.516   5.897  17.015  0.00  0.00    +0.000 A 
ATOM     20  C   UNL     1       4.782   4.876  16.092  0.00  0.00    +0.000 A 
ATOM     21  C   UNL     1       6.058   4.734  15.545  0.00  0.00    +0.000 A 
ATOM     22  C   UNL     1       7.046   5.616  15.942  0.00  0.00    +0.000 A 
ATOM     23  N   UNL     1       6.843   6.605  16.839  0.00  0.00    +0.000 NA
ATOM     24  C   UNL     1       5.599   6.710  17.358  0.00  0.00    +0.000 A 
ENDBRANCH  18  19
BRANCH  18  25
ATOM     25  N   UNL     1       2.766   5.163  18.736  0.00  0.00    +0.000 NA
ATOM     26  C   UNL     1       3.814   4.649  19.623  0.00  0.00    +0.000 C 
ATOM     27  C   UNL     1       4.474   3.356  19.126  0.00  0.00    +0.000 C 
ATOM     28  O   UNL     1       3.491   2.340  18.900  0.00  0.00    +0.000 OA
ATOM     29  C   UNL     1       2.536   2.778  17.924  0.00  0.00    +0.000 C 
ATOM     30  C   UNL     1       1.844   4.085  18.357  0.00  0.00    +0.000 C 
ENDBRANCH  18  25
ENDBRANCH  17  18
ENDBRANCH   3  17
TORSDOF 8
ENDMDL
