MODEL 1
REMARK VINA RESULT:      -7.7      0.000      0.000
REMARK  Name = 
REMARK  10 active torsions:
REMARK  status: ('A' for Active; 'I' for Inactive)
REMARK    1  A    between atoms: C_1  and  O_2
REMARK    2  A    between atoms: O_2  and  C_3
REMARK    3  A    between atoms: C_6  and  N_7
REMARK    4  A    between atoms: N_10  and  C_11
REMARK    5  A    between atoms: C_11  and  C_12
REMARK    6  A    between atoms: C_12  and  C_13
REMARK    7  A    between atoms: C_13  and  C_14
REMARK    8  A    between atoms: C_14  and  C_15
REMARK    9  A    between atoms: C_21  and  O_22
REMARK   10  A    between atoms: O_22  and  C_23
REMARK                            x       y       z     vdW  Elec       q    Type
REMARK                         _______ _______ _______ _____ _____    ______ ____
ROOT
ATOM      1  C   UNL     1       1.786   2.681  20.406  0.00  0.00    +0.000 C 
ENDROOT
BRANCH   1   5
ATOM      2  N   UNL     1       4.275   3.652  17.676  0.00  0.00    +0.000 N 
ATOM      3  C   UNL     1       2.846   4.003  17.590  0.00  0.00    +0.000 C 
ATOM      4  C   UNL     1       1.962   2.756  17.930  0.00  0.00    +0.000 C 
ATOM      5  N   UNL     1       2.266   2.028  19.181  0.00  0.00    +0.000 NA
ATOM      6  C   UNL     1       3.740   1.796  19.227  0.00  0.00    +0.000 C 
ATOM      7  C   UNL     1       4.645   3.029  18.957  0.00  0.00    +0.000 C 
BRANCH   2  11
ATOM      8  C   UNL     1       7.110   5.021  14.824  0.00  0.00    +0.000 A 
ATOM      9  C   UNL     1       7.123   5.490  16.126  0.00  0.00    +0.000 A 
ATOM     10  C   UNL     1       6.210   5.023  17.080  0.00  0.00    +0.000 A 
ATOM     11  C   UNL     1       5.222   4.080  16.763  0.00  0.00    +0.000 A 
ATOM     12  C   UNL     1       5.221   3.631  15.429  0.00  0.00    +0.000 A 
ATOM     13  C   UNL     1       6.133   4.097  14.465  0.00  0.00    +0.000 A 
BRANCH   8  15
ATOM     14  C   UNL     1       7.843   5.296  12.594  0.00  0.00    +0.000 C 
ATOM     15  O   UNL     1       8.037   5.560  13.983  0.00  0.00    +0.000 OA
ENDBRANCH   8  15
ENDBRANCH   2  11
ENDBRANCH   1   5
BRANCH   1  16
ATOM     16  C   UNL     1       0.992   3.997  20.242  0.00  0.00    +0.000 C 
BRANCH  16  17
ATOM     17  C   UNL     1       1.476   5.313  20.890  0.00  0.00    +0.000 C 
BRANCH  17  18
ATOM     18  C   UNL     1       2.446   6.167  20.076  0.00  0.00    +0.000 C 
BRANCH  18  19
ATOM     19  C   UNL     1       1.937   7.496  19.524  0.00  0.00    +0.000 A 
ATOM     20  C   UNL     1       1.881   7.697  18.150  0.00  0.00    +0.000 A 
ATOM     21  N   UNL     1       2.124   9.023  17.972  0.00  0.00    +0.000 N 
ATOM     22  C   UNL     1       1.590   9.700  19.031  0.00  0.00    +0.000 A 
ATOM     23  C   UNL     1       1.237  11.047  19.092  0.00  0.00    +0.000 A 
ATOM     24  C   UNL     1       0.660  11.489  20.267  0.00  0.00    +0.000 A 
ATOM     25  C   UNL     1       0.526  10.646  21.371  0.00  0.00    +0.000 A 
ATOM     26  C   UNL     1       0.993   9.305  21.327  0.00  0.00    +0.000 A 
ATOM     27  C   UNL     1       1.482   8.777  20.085  0.00  0.00    +0.000 A 
ATOM     28  H   UNL     1       2.510   9.452  17.143  0.00  0.00    +0.000 HD
BRANCH  25  29
ATOM     29  O   UNL     1      -0.202  11.275  22.341  0.00  0.00    +0.000 OA
ATOM     30  C   UNL     1      -1.103  10.587  23.178  0.00  0.00    +0.000 C 
ENDBRANCH  25  29
ENDBRANCH  18  19
ENDBRANCH  17  18
ENDBRANCH  16  17
ENDBRANCH   1  16
TORSDOF 8
ENDMDL
MODEL 2
REMARK VINA RESULT:      -7.4      3.162     10.334
REMARK  Name = 
REMARK  10 active torsions:
REMARK  status: ('A' for Active; 'I' for Inactive)
REMARK    1  A    between atoms: C_1  and  O_2
REMARK    2  A    between atoms: O_2  and  C_3
REMARK    3  A    between atoms: C_6  and  N_7
REMARK    4  A    between atoms: N_10  and  C_11
REMARK    5  A    between atoms: C_11  and  C_12
REMARK    6  A    between atoms: C_12  and  C_13
REMARK    7  A    between atoms: C_13  and  C_14
REMARK    8  A    between atoms: C_14  and  C_15
REMARK    9  A    between atoms: C_21  and  O_22
REMARK   10  A    between atoms: O_22  and  C_23
REMARK                            x       y       z     vdW  Elec       q    Type
REMARK                         _______ _______ _______ _____ _____    ______ ____
ROOT
ATOM      1  C   UNL     1       1.348   8.681  20.401  0.00  0.00    +0.000 C 
ENDROOT
BRANCH   1   5
ATOM      2  N   UNL     1      -0.833  11.222  22.240  0.00  0.00    +0.000 N 
ATOM      3  C   UNL     1      -0.288  10.028  22.913  0.00  0.00    +0.000 C 
ATOM      4  C   UNL     1      -0.524   8.756  22.030  0.00  0.00    +0.000 C 
ATOM      5  N   UNL     1      -0.098   8.821  20.616  0.00  0.00    +0.000 NA
ATOM      6  C   UNL     1      -0.614  10.099  20.042  0.00  0.00    +0.000 C 
ATOM      7  C   UNL     1      -0.339  11.389  20.863  0.00  0.00    +0.000 C 
BRANCH   2  11
ATOM      8  C   UNL     1      -2.972  14.222  24.352  0.00  0.00    +0.000 A 
ATOM      9  C   UNL     1      -1.679  14.443  23.910  0.00  0.00    +0.000 A 
ATOM     10  C   UNL     1      -0.976  13.471  23.189  0.00  0.00    +0.000 A 
ATOM     11  C   UNL     1      -1.532  12.216  22.899  0.00  0.00    +0.000 A 
ATOM     12  C   UNL     1      -2.842  12.011  23.372  0.00  0.00    +0.000 A 
ATOM     13  C   UNL     1      -3.552  12.984  24.098  0.00  0.00    +0.000 A 
BRANCH   8  15
ATOM     14  C   UNL     1      -4.233  16.220  24.279  0.00  0.00    +0.000 C 
ATOM     15  O   UNL     1      -3.548  15.238  25.056  0.00  0.00    +0.000 OA
ENDBRANCH   8  15
ENDBRANCH   2  11
ENDBRANCH   1   5
BRANCH   1  16
ATOM     16  C   UNL     1       1.917   9.188  19.056  0.00  0.00    +0.000 C 
BRANCH  16  17
ATOM     17  C   UNL     1       2.052   8.250  17.837  0.00  0.00    +0.000 C 
BRANCH  17  18
ATOM     18  C   UNL     1       3.450   7.718  17.526  0.00  0.00    +0.000 C 
BRANCH  18  19
ATOM     19  C   UNL     1       3.676   6.211  17.614  0.00  0.00    +0.000 A 
ATOM     20  C   UNL     1       4.792   5.644  17.010  0.00  0.00    +0.000 A 
ATOM     21  N   UNL     1       4.392   4.408  16.607  0.00  0.00    +0.000 N 
ATOM     22  C   UNL     1       3.489   3.936  17.516  0.00  0.00    +0.000 A 
ATOM     23  C   UNL     1       3.125   2.611  17.748  0.00  0.00    +0.000 A 
ATOM     24  C   UNL     1       2.221   2.379  18.767  0.00  0.00    +0.000 A 
ATOM     25  C   UNL     1       1.630   3.433  19.464  0.00  0.00    +0.000 A 
ATOM     26  C   UNL     1       1.929   4.784  19.139  0.00  0.00    +0.000 A 
ATOM     27  C   UNL     1       2.955   5.058  18.173  0.00  0.00    +0.000 A 
ATOM     28  H   UNL     1       4.788   3.872  15.848  0.00  0.00    +0.000 HD
BRANCH  25  29
ATOM     29  O   UNL     1       0.897   2.939  20.506  0.00  0.00    +0.000 OA
ATOM     30  C   UNL     1       1.482   2.556  21.729  0.00  0.00    +0.000 C 
ENDBRANCH  25  29
ENDBRANCH  18  19
ENDBRANCH  17  18
ENDBRANCH  16  17
ENDBRANCH   1  16
TORSDOF 8
ENDMDL
MODEL 3
REMARK VINA RESULT:      -7.3      1.769      2.513
REMARK  Name = 
REMARK  10 active torsions:
REMARK  status: ('A' for Active; 'I' for Inactive)
REMARK    1  A    between atoms: C_1  and  O_2
REMARK    2  A    between atoms: O_2  and  C_3
REMARK    3  A    between atoms: C_6  and  N_7
REMARK    4  A    between atoms: N_10  and  C_11
REMARK    5  A    between atoms: C_11  and  C_12
REMARK    6  A    between atoms: C_12  and  C_13
REMARK    7  A    between atoms: C_13  and  C_14
REMARK    8  A    between atoms: C_14  and  C_15
REMARK    9  A    between atoms: C_21  and  O_22
REMARK   10  A    between atoms: O_22  and  C_23
REMARK                            x       y       z     vdW  Elec       q    Type
REMARK                         _______ _______ _______ _____ _____    ______ ____
ROOT
ATOM      1  C   UNL     1       1.182   3.360  20.484  0.00  0.00    +0.000 C 
ENDROOT
BRANCH   1   5
ATOM      2  N   UNL     1       3.942   4.018  17.928  0.00  0.00    +0.000 N 
ATOM      3  C   UNL     1       2.536   3.824  17.526  0.00  0.00    +0.000 C 
ATOM      4  C   UNL     1       1.936   2.574  18.253  0.00  0.00    +0.000 C 
ATOM      5  N   UNL     1       2.094   2.499  19.721  0.00  0.00    +0.000 NA
ATOM      6  C   UNL     1       3.521   2.797  20.042  0.00  0.00    +0.000 C 
ATOM      7  C   UNL     1       4.129   4.068  19.387  0.00  0.00    +0.000 C 
BRANCH   2  11
ATOM      8  C   UNL     1       7.069   4.993  15.224  0.00  0.00    +0.000 A 
ATOM      9  C   UNL     1       5.778   4.779  14.775  0.00  0.00    +0.000 A 
ATOM     10  C   UNL     1       4.735   4.484  15.662  0.00  0.00    +0.000 A 
ATOM     11  C   UNL     1       4.946   4.366  17.043  0.00  0.00    +0.000 A 
ATOM     12  C   UNL     1       6.271   4.575  17.472  0.00  0.00    +0.000 A 
ATOM     13  C   UNL     1       7.323   4.869  16.586  0.00  0.00    +0.000 A 
BRANCH   8  15
ATOM     14  C   UNL     1       7.589   5.029  12.918  0.00  0.00    +0.000 C 
ATOM     15  O   UNL     1       8.002   5.258  14.265  0.00  0.00    +0.000 OA
ENDBRANCH   8  15
ENDBRANCH   2  11
ENDBRANCH   1   5
BRANCH   1  16
ATOM     16  C   UNL     1       1.716   4.739  20.931  0.00  0.00    +0.000 C 
BRANCH  16  17
ATOM     17  C   UNL     1       0.981   6.045  20.557  0.00  0.00    +0.000 C 
BRANCH  17  18
ATOM     18  C   UNL     1       1.819   7.321  20.512  0.00  0.00    +0.000 C 
BRANCH  18  19
ATOM     19  C   UNL     1       1.202   8.601  21.073  0.00  0.00    +0.000 A 
ATOM     20  C   UNL     1       1.509   9.006  22.366  0.00  0.00    +0.000 A 
ATOM     21  N   UNL     1       0.386   9.621  22.825  0.00  0.00    +0.000 N 
ATOM     22  C   UNL     1      -0.213  10.253  21.773  0.00  0.00    +0.000 A 
ATOM     23  C   UNL     1      -1.120  11.310  21.816  0.00  0.00    +0.000 A 
ATOM     24  C   UNL     1      -1.548  11.818  20.605  0.00  0.00    +0.000 A 
ATOM     25  C   UNL     1      -1.160  11.234  19.398  0.00  0.00    +0.000 A 
ATOM     26  C   UNL     1      -0.321  10.088  19.376  0.00  0.00    +0.000 A 
ATOM     27  C   UNL     1       0.241   9.611  20.607  0.00  0.00    +0.000 A 
ATOM     28  H   UNL     1       0.110   9.714  23.792  0.00  0.00    +0.000 HD
BRANCH  25  29
ATOM     29  O   UNL     1      -1.593  12.007  18.357  0.00  0.00    +0.000 OA
ATOM     30  C   UNL     1      -2.223  11.463  17.220  0.00  0.00    +0.000 C 
ENDBRANCH  25  29
ENDBRANCH  18  19
ENDBRANCH  17  18
ENDBRANCH  16  17
ENDBRANCH   1  16
TORSDOF 8
ENDMDL
MODEL 4
REMARK VINA RESULT:      -7.3      1.794      9.825
REMARK  Name = 
REMARK  10 active torsions:
REMARK  status: ('A' for Active; 'I' for Inactive)
REMARK    1  A    between atoms: C_1  and  O_2
REMARK    2  A    between atoms: O_2  and  C_3
REMARK    3  A    between atoms: C_6  and  N_7
REMARK    4  A    between atoms: N_10  and  C_11
REMARK    5  A    between atoms: C_11  and  C_12
REMARK    6  A    between atoms: C_12  and  C_13
REMARK    7  A    between atoms: C_13  and  C_14
REMARK    8  A    between atoms: C_14  and  C_15
REMARK    9  A    between atoms: C_21  and  O_22
REMARK   10  A    between atoms: O_22  and  C_23
REMARK                            x       y       z     vdW  Elec       q    Type
REMARK                         _______ _______ _______ _____ _____    ______ ____
ROOT
ATOM      1  C   UNL     1       1.789   7.352  17.882  0.00  0.00    +0.000 C 
ENDROOT
BRANCH   1   5
ATOM      2  N   UNL     1       0.018  10.005  19.983  0.00  0.00    +0.000 N 
ATOM      3  C   UNL     1       0.268  10.190  18.542  0.00  0.00    +0.000 C 
ATOM      4  C   UNL     1       1.749   9.815  18.199  0.00  0.00    +0.000 C 
ATOM      5  N   UNL     1       2.246   8.504  18.671  0.00  0.00    +0.000 NA
ATOM      6  C   UNL     1       1.870   8.365  20.109  0.00  0.00    +0.000 C 
ATOM      7  C   UNL     1       0.391   8.668  20.472  0.00  0.00    +0.000 C 
BRANCH   2  11
ATOM      8  C   UNL     1      -2.145  12.779  22.363  0.00  0.00    +0.000 A 
ATOM      9  C   UNL     1      -2.217  12.814  20.981  0.00  0.00    +0.000 A 
ATOM     10  C   UNL     1      -1.530  11.887  20.190  0.00  0.00    +0.000 A 
ATOM     11  C   UNL     1      -0.715  10.892  20.750  0.00  0.00    +0.000 A 
ATOM     12  C   UNL     1      -0.647  10.888  22.156  0.00  0.00    +0.000 A 
ATOM     13  C   UNL     1      -1.334  11.818  22.957  0.00  0.00    +0.000 A 
BRANCH   8  15
ATOM     14  C   UNL     1      -2.160  14.379  24.103  0.00  0.00    +0.000 C 
ATOM     15  O   UNL     1      -2.847  13.743  23.026  0.00  0.00    +0.000 OA
ENDBRANCH   8  15
ENDBRANCH   2  11
ENDBRANCH   1   5
BRANCH   1  16
ATOM     16  C   UNL     1       2.318   5.959  18.292  0.00  0.00    +0.000 C 
BRANCH  16  17
ATOM     17  C   UNL     1       1.579   4.667  17.879  0.00  0.00    +0.000 C 
BRANCH  17  18
ATOM     18  C   UNL     1       2.397   3.378  17.864  0.00  0.00    +0.000 C 
BRANCH  18  19
ATOM     19  C   UNL     1       3.920   3.498  17.867  0.00  0.00    +0.000 A 
ATOM     20  C   UNL     1       4.634   3.194  19.019  0.00  0.00    +0.000 A 
ATOM     21  N   UNL     1       5.710   4.027  19.003  0.00  0.00    +0.000 N 
ATOM     22  C   UNL     1       6.082   4.216  17.704  0.00  0.00    +0.000 A 
ATOM     23  C   UNL     1       7.321   4.637  17.224  0.00  0.00    +0.000 A 
ATOM     24  C   UNL     1       7.472   4.702  15.852  0.00  0.00    +0.000 A 
ATOM     25  C   UNL     1       6.401   4.450  14.993  0.00  0.00    +0.000 A 
ATOM     26  C   UNL     1       5.114   4.131  15.504  0.00  0.00    +0.000 A 
ATOM     27  C   UNL     1       4.953   3.932  16.916  0.00  0.00    +0.000 A 
ATOM     28  H   UNL     1       6.229   4.343  19.809  0.00  0.00    +0.000 HD
BRANCH  25  29
ATOM     29  O   UNL     1       6.845   4.434  13.701  0.00  0.00    +0.000 OA
ATOM     30  C   UNL     1       6.220   3.672  12.694  0.00  0.00    +0.000 C 
ENDBRANCH  25  29
ENDBRANCH  18  19
ENDBRANCH  17  18
ENDBRANCH  16  17
ENDBRANCH   1  16
TORSDOF 8
ENDMDL
MODEL 5
REMARK VINA RESULT:      -7.2      4.441      7.682
REMARK  Name = 
REMARK  10 active torsions:
REMARK  status: ('A' for Active; 'I' for Inactive)
REMARK    1  A    between atoms: C_1  and  O_2
REMARK    2  A    between atoms: O_2  and  C_3
REMARK    3  A    between atoms: C_6  and  N_7
REMARK    4  A    between atoms: N_10  and  C_11
REMARK    5  A    between atoms: C_11  and  C_12
REMARK    6  A    between atoms: C_12  and  C_13
REMARK    7  A    between atoms: C_13  and  C_14
REMARK    8  A    between atoms: C_14  and  C_15
REMARK    9  A    between atoms: C_21  and  O_22
REMARK   10  A    between atoms: O_22  and  C_23
REMARK                            x       y       z     vdW  Elec       q    Type
REMARK                         _______ _______ _______ _____ _____    ______ ____
ROOT
ATOM      1  C   UNL     1      -1.062  11.513  21.728  0.00  0.00    +0.000 C 
ENDROOT
BRANCH   1   5
ATOM      2  N   UNL     1       1.248   8.952  20.086  0.00  0.00    +0.000 N 
ATOM      3  C   UNL     1       0.705   8.757  21.443  0.00  0.00    +0.000 C 
ATOM      4  C   UNL     1       0.876  10.066  22.286  0.00  0.00    +0.000 C 
ATOM      5  N   UNL     1       0.394  11.329  21.686  0.00  0.00    +0.000 NA
ATOM      6  C   UNL     1       0.914  11.399  20.289  0.00  0.00    +0.000 C 
ATOM      7  C   UNL     1       0.702  10.138  19.407  0.00  0.00    +0.000 C 
BRANCH   2  11
ATOM      8  C   UNL     1       3.456   5.975  18.013  0.00  0.00    +0.000 A 
ATOM      9  C   UNL     1       3.337   7.258  17.508  0.00  0.00    +0.000 A 
ATOM     10  C   UNL     1       2.635   8.253  18.198  0.00  0.00    +0.000 A 
ATOM     11  C   UNL     1       1.995   7.999  19.420  0.00  0.00    +0.000 A 
ATOM     12  C   UNL     1       2.119   6.683  19.904  0.00  0.00    +0.000 A 
ATOM     13  C   UNL     1       2.821   5.678  19.215  0.00  0.00    +0.000 A 
BRANCH   8  15
ATOM     14  C   UNL     1       5.050   5.663  16.296  0.00  0.00    +0.000 C 
ATOM     15  O   UNL     1       4.152   5.089  17.245  0.00  0.00    +0.000 OA
ENDBRANCH   8  15
ENDBRANCH   2  11
ENDBRANCH   1   5
BRANCH   1  16
ATOM     16  C   UNL     1      -1.751  11.410  23.108  0.00  0.00    +0.000 C 
BRANCH  16  17
ATOM     17  C   UNL     1      -2.935  12.328  23.484  0.00  0.00    +0.000 C 
BRANCH  17  18
ATOM     18  C   UNL     1      -3.462  13.258  22.393  0.00  0.00    +0.000 C 
BRANCH  18  19
ATOM     19  C   UNL     1      -4.738  12.849  21.661  0.00  0.00    +0.000 A 
ATOM     20  C   UNL     1      -5.965  12.942  22.308  0.00  0.00    +0.000 A 
ATOM     21  N   UNL     1      -6.712  11.921  21.807  0.00  0.00    +0.000 N 
ATOM     22  C   UNL     1      -6.364  11.741  20.499  0.00  0.00    +0.000 A 
ATOM     23  C   UNL     1      -7.107  11.121  19.496  0.00  0.00    +0.000 A 
ATOM     24  C   UNL     1      -6.559  11.110  18.228  0.00  0.00    +0.000 A 
ATOM     25  C   UNL     1      -5.279  11.612  17.987  0.00  0.00    +0.000 A 
ATOM     26  C   UNL     1      -4.491  12.141  19.044  0.00  0.00    +0.000 A 
ATOM     27  C   UNL     1      -5.075  12.282  20.347  0.00  0.00    +0.000 A 
ATOM     28  H   UNL     1      -7.483  11.464  22.271  0.00  0.00    +0.000 HD
BRANCH  25  29
ATOM     29  O   UNL     1      -5.036  11.620  16.642  0.00  0.00    +0.000 OA
ATOM     30  C   UNL     1      -3.928  10.966  16.068  0.00  0.00    +0.000 C 
ENDBRANCH  25  29
ENDBRANCH  18  19
ENDBRANCH  17  18
ENDBRANCH  16  17
ENDBRANCH   1  16
TORSDOF 8
ENDMDL
MODEL 6
REMARK VINA RESULT:      -7.2      3.244     10.627
REMARK  Name = 
REMARK  10 active torsions:
REMARK  status: ('A' for Active; 'I' for Inactive)
REMARK    1  A    between atoms: C_1  and  O_2
REMARK    2  A    between atoms: O_2  and  C_3
REMARK    3  A    between atoms: C_6  and  N_7
REMARK    4  A    between atoms: N_10  and  C_11
REMARK    5  A    between atoms: C_11  and  C_12
REMARK    6  A    between atoms: C_12  and  C_13
REMARK    7  A    between atoms: C_13  and  C_14
REMARK    8  A    between atoms: C_14  and  C_15
REMARK    9  A    between atoms: C_21  and  O_22
REMARK   10  A    between atoms: O_22  and  C_23
REMARK                            x       y       z     vdW  Elec       q    Type
REMARK                         _______ _______ _______ _____ _____    ______ ____
ROOT
ATOM      1  C   UNL     1       0.494   9.786  18.780  0.00  0.00    +0.000 C 
ENDROOT
BRANCH   1   5
ATOM      2  N   UNL     1      -0.890  12.111  21.477  0.00  0.00    +0.000 N 
ATOM      3  C   UNL     1      -0.877  12.489  20.051  0.00  0.00    +0.000 C 
ATOM      4  C   UNL     1       0.525  12.183  19.425  0.00  0.00    +0.000 C 
ATOM      5  N   UNL     1       1.081  10.829  19.630  0.00  0.00    +0.000 NA
ATOM      6  C   UNL     1       0.945  10.494  21.079  0.00  0.00    +0.000 C 
ATOM      7  C   UNL     1      -0.454  10.725  21.715  0.00  0.00    +0.000 C 
BRANCH   2  11
ATOM      8  C   UNL     1      -2.714  14.546  24.441  0.00  0.00    +0.000 A 
ATOM      9  C   UNL     1      -3.392  13.480  23.874  0.00  0.00    +0.000 A 
ATOM     10  C   UNL     1      -2.790  12.656  22.917  0.00  0.00    +0.000 A 
ATOM     11  C   UNL     1      -1.481  12.878  22.463  0.00  0.00    +0.000 A 
ATOM     12  C   UNL     1      -0.819  13.975  23.044  0.00  0.00    +0.000 A 
ATOM     13  C   UNL     1      -1.419  14.809  24.005  0.00  0.00    +0.000 A 
BRANCH   8  15
ATOM     14  C   UNL     1      -4.100  16.420  24.829  0.00  0.00    +0.000 C 
ATOM     15  O   UNL     1      -3.410  15.285  25.351  0.00  0.00    +0.000 OA
ENDBRANCH   8  15
ENDBRANCH   2  11
ENDBRANCH   1   5
BRANCH   1  16
ATOM     16  C   UNL     1       1.447   9.025  17.831  0.00  0.00    +0.000 C 
BRANCH  16  17
ATOM     17  C   UNL     1       2.610   8.168  18.379  0.00  0.00    +0.000 C 
BRANCH  17  18
ATOM     18  C   UNL     1       3.518   7.498  17.350  0.00  0.00    +0.000 C 
BRANCH  18  19
ATOM     19  C   UNL     1       3.724   5.989  17.455  0.00  0.00    +0.000 A 
ATOM     20  C   UNL     1       4.831   5.400  16.857  0.00  0.00    +0.000 A 
ATOM     21  N   UNL     1       4.413   4.164  16.469  0.00  0.00    +0.000 N 
ATOM     22  C   UNL     1       3.505   3.715  17.385  0.00  0.00    +0.000 A 
ATOM     23  C   UNL     1       3.123   2.398  17.633  0.00  0.00    +0.000 A 
ATOM     24  C   UNL     1       2.218   2.192  18.656  0.00  0.00    +0.000 A 
ATOM     25  C   UNL     1       1.642   3.262  19.341  0.00  0.00    +0.000 A 
ATOM     26  C   UNL     1       1.960   4.604  19.000  0.00  0.00    +0.000 A 
ATOM     27  C   UNL     1       2.988   4.853  18.030  0.00  0.00    +0.000 A 
ATOM     28  H   UNL     1       4.800   3.614  15.717  0.00  0.00    +0.000 HD
BRANCH  25  29
ATOM     29  O   UNL     1       0.905   2.791  20.391  0.00  0.00    +0.000 OA
ATOM     30  C   UNL     1       1.429   2.671  21.693  0.00  0.00    +0.000 C 
ENDBRANCH  25  29
ENDBRANCH  18  19
ENDBRANCH  17  18
ENDBRANCH  16  17
ENDBRANCH   1  16
TORSDOF 8
ENDMDL
MODEL 7
REMARK VINA RESULT:      -7.2      3.272     10.601
REMARK  Name = 
REMARK  10 active torsions:
REMARK  status: ('A' for Active; 'I' for Inactive)
REMARK    1  A    between atoms: C_1  and  O_2
REMARK    2  A    between atoms: O_2  and  C_3
REMARK    3  A    between atoms: C_6  and  N_7
REMARK    4  A    between atoms: N_10  and  C_11
REMARK    5  A    between atoms: C_11  and  C_12
REMARK    6  A    between atoms: C_12  and  C_13
REMARK    7  A    between atoms: C_13  and  C_14
REMARK    8  A    between atoms: C_14  and  C_15
REMARK    9  A    between atoms: C_21  and  O_22
REMARK   10  A    between atoms: O_22  and  C_23
REMARK                            x       y       z     vdW  Elec       q    Type
REMARK                         _______ _______ _______ _____ _____    ______ ____
ROOT
ATOM      1  C   UNL     1       1.050  10.349  18.239  0.00  0.00    +0.000 C 
ENDROOT
BRANCH   1   5
ATOM      2  N   UNL     1      -1.476  11.900  20.648  0.00  0.00    +0.000 N 
ATOM      3  C   UNL     1      -1.229  12.462  19.308  0.00  0.00    +0.000 C 
ATOM      4  C   UNL     1       0.311  12.577  19.046  0.00  0.00    +0.000 C 
ATOM      5  N   UNL     1       1.134  11.373  19.288  0.00  0.00    +0.000 NA
ATOM      6  C   UNL     1       0.755  10.821  20.622  0.00  0.00    +0.000 C 
ATOM      7  C   UNL     1      -0.765  10.633  20.888  0.00  0.00    +0.000 C 
BRANCH   2  11
ATOM      8  C   UNL     1      -4.556  13.259  23.238  0.00  0.00    +0.000 A 
ATOM      9  C   UNL     1      -3.423  12.640  23.738  0.00  0.00    +0.000 A 
ATOM     10  C   UNL     1      -2.390  12.214  22.894  0.00  0.00    +0.000 A 
ATOM     11  C   UNL     1      -2.458  12.367  21.502  0.00  0.00    +0.000 A 
ATOM     12  C   UNL     1      -3.626  12.986  21.018  0.00  0.00    +0.000 A 
ATOM     13  C   UNL     1      -4.668  13.414  21.860  0.00  0.00    +0.000 A 
BRANCH   8  15
ATOM     14  C   UNL     1      -6.609  14.356  23.647  0.00  0.00    +0.000 C 
ATOM     15  O   UNL     1      -5.499  13.617  24.155  0.00  0.00    +0.000 OA
ENDBRANCH   8  15
ENDBRANCH   2  11
ENDBRANCH   1   5
BRANCH   1  16
ATOM     16  C   UNL     1       2.350   9.593  17.881  0.00  0.00    +0.000 C 
BRANCH  16  17
ATOM     17  C   UNL     1       2.439   8.054  17.987  0.00  0.00    +0.000 C 
BRANCH  17  18
ATOM     18  C   UNL     1       3.735   7.403  17.508  0.00  0.00    +0.000 C 
BRANCH  18  19
ATOM     19  C   UNL     1       3.828   5.880  17.557  0.00  0.00    +0.000 A 
ATOM     20  C   UNL     1       4.863   5.230  16.895  0.00  0.00    +0.000 A 
ATOM     21  N   UNL     1       4.338   4.044  16.486  0.00  0.00    +0.000 N 
ATOM     22  C   UNL     1       3.434   3.633  17.423  0.00  0.00    +0.000 A 
ATOM     23  C   UNL     1       2.963   2.340  17.645  0.00  0.00    +0.000 A 
ATOM     24  C   UNL     1       2.084   2.167  18.697  0.00  0.00    +0.000 A 
ATOM     25  C   UNL     1       1.619   3.253  19.439  0.00  0.00    +0.000 A 
ATOM     26  C   UNL     1       2.025   4.579  19.128  0.00  0.00    +0.000 A 
ATOM     27  C   UNL     1       3.030   4.783  18.124  0.00  0.00    +0.000 A 
ATOM     28  H   UNL     1       4.652   3.493  15.701  0.00  0.00    +0.000 HD
BRANCH  25  29
ATOM     29  O   UNL     1       0.889   2.802  20.502  0.00  0.00    +0.000 OA
ATOM     30  C   UNL     1       1.444   2.629  21.785  0.00  0.00    +0.000 C 
ENDBRANCH  25  29
ENDBRANCH  18  19
ENDBRANCH  17  18
ENDBRANCH  16  17
ENDBRANCH   1  16
TORSDOF 8
ENDMDL
MODEL 8
REMARK VINA RESULT:      -7.2      1.534      2.323
REMARK  Name = 
REMARK  10 active torsions:
REMARK  status: ('A' for Active; 'I' for Inactive)
REMARK    1  A    between atoms: C_1  and  O_2
REMARK    2  A    between atoms: O_2  and  C_3
REMARK    3  A    between atoms: C_6  and  N_7
REMARK    4  A    between atoms: N_10  and  C_11
REMARK    5  A    between atoms: C_11  and  C_12
REMARK    6  A    between atoms: C_12  and  C_13
REMARK    7  A    between atoms: C_13  and  C_14
REMARK    8  A    between atoms: C_14  and  C_15
REMARK    9  A    between atoms: C_21  and  O_22
REMARK   10  A    between atoms: O_22  and  C_23
REMARK                            x       y       z     vdW  Elec       q    Type
REMARK                         _______ _______ _______ _____ _____    ______ ____
ROOT
ATOM      1  C   UNL     1       1.281   3.209  20.368  0.00  0.00    +0.000 C 
ENDROOT
BRANCH   1   5
ATOM      2  N   UNL     1       3.935   4.059  17.756  0.00  0.00    +0.000 N 
ATOM      3  C   UNL     1       2.571   4.616  17.693  0.00  0.00    +0.000 C 
ATOM      4  C   UNL     1       1.514   3.482  17.911  0.00  0.00    +0.000 C 
ATOM      5  N   UNL     1       1.688   2.608  19.092  0.00  0.00    +0.000 NA
ATOM      6  C   UNL     1       3.113   2.165  19.126  0.00  0.00    +0.000 C 
ATOM      7  C   UNL     1       4.188   3.277  18.977  0.00  0.00    +0.000 C 
BRANCH   2  11
ATOM      8  C   UNL     1       7.120   5.140  15.162  0.00  0.00    +0.000 A 
ATOM      9  C   UNL     1       6.127   4.268  14.750  0.00  0.00    +0.000 A 
ATOM     10  C   UNL     1       5.058   3.928  15.588  0.00  0.00    +0.000 A 
ATOM     11  C   UNL     1       4.950   4.429  16.893  0.00  0.00    +0.000 A 
ATOM     12  C   UNL     1       5.980   5.302  17.293  0.00  0.00    +0.000 A 
ATOM     13  C   UNL     1       7.057   5.646  16.457  0.00  0.00    +0.000 A 
BRANCH   8  15
ATOM     14  C   UNL     1       7.768   5.209  12.890  0.00  0.00    +0.000 C 
ATOM     15  O   UNL     1       8.116   5.384  14.263  0.00  0.00    +0.000 OA
ENDBRANCH   8  15
ENDBRANCH   2  11
ENDBRANCH   1   5
BRANCH   1  16
ATOM     16  C   UNL     1       0.929   4.714  20.363  0.00  0.00    +0.000 C 
BRANCH  16  17
ATOM     17  C   UNL     1       1.954   5.780  20.810  0.00  0.00    +0.000 C 
BRANCH  17  18
ATOM     18  C   UNL     1       1.963   7.096  20.036  0.00  0.00    +0.000 C 
BRANCH  18  19
ATOM     19  C   UNL     1       1.251   8.295  20.657  0.00  0.00    +0.000 A 
ATOM     20  C   UNL     1       0.864   8.253  21.991  0.00  0.00    +0.000 A 
ATOM     21  N   UNL     1      -0.278   8.990  22.056  0.00  0.00    +0.000 N 
ATOM     22  C   UNL     1      -0.180  10.007  21.151  0.00  0.00    +0.000 A 
ATOM     23  C   UNL     1      -0.885  11.209  21.138  0.00  0.00    +0.000 A 
ATOM     24  C   UNL     1      -0.568  12.110  20.140  0.00  0.00    +0.000 A 
ATOM     25  C   UNL     1       0.347  11.787  19.137  0.00  0.00    +0.000 A 
ATOM     26  C   UNL     1       0.975  10.513  19.103  0.00  0.00    +0.000 A 
ATOM     27  C   UNL     1       0.764   9.602  20.191  0.00  0.00    +0.000 A 
ATOM     28  H   UNL     1      -1.012   8.891  22.742  0.00  0.00    +0.000 HD
BRANCH  25  29
ATOM     29  O   UNL     1       0.592  12.890  18.368  0.00  0.00    +0.000 OA
ATOM     30  C   UNL     1      -0.111  14.100  18.532  0.00  0.00    +0.000 C 
ENDBRANCH  25  29
ENDBRANCH  18  19
ENDBRANCH  17  18
ENDBRANCH  16  17
ENDBRANCH   1  16
TORSDOF 8
ENDMDL
MODEL 9
REMARK VINA RESULT:      -7.1      2.682      9.680
REMARK  Name = 
REMARK  10 active torsions:
REMARK  status: ('A' for Active; 'I' for Inactive)
REMARK    1  A    between atoms: C_1  and  O_2
REMARK    2  A    between atoms: O_2  and  C_3
REMARK    3  A    between atoms: C_6  and  N_7
REMARK    4  A    between atoms: N_10  and  C_11
REMARK    5  A    between atoms: C_11  and  C_12
REMARK    6  A    between atoms: C_12  and  C_13
REMARK    7  A    between atoms: C_13  and  C_14
REMARK    8  A    between atoms: C_14  and  C_15
REMARK    9  A    between atoms: C_21  and  O_22
REMARK   10  A    between atoms: O_22  and  C_23
REMARK                            x       y       z     vdW  Elec       q    Type
REMARK                         _______ _______ _______ _____ _____    ______ ____
ROOT
ATOM      1  C   UNL     1       1.147   6.975  21.062  0.00  0.00    +0.000 C 
ENDROOT
BRANCH   1   5
ATOM      2  N   UNL     1      -0.488  10.387  21.581  0.00  0.00    +0.000 N 
ATOM      3  C   UNL     1      -0.424   9.746  20.255  0.00  0.00    +0.000 C 
ATOM      4  C   UNL     1       1.021   9.208  19.984  0.00  0.00    +0.000 C 
ATOM      5  N   UNL     1       1.637   8.358  21.027  0.00  0.00    +0.000 NA
ATOM      6  C   UNL     1       1.446   9.039  22.341  0.00  0.00    +0.000 C 
ATOM      7  C   UNL     1       0.008   9.527  22.667  0.00  0.00    +0.000 C 
BRANCH   2  11
ATOM      8  C   UNL     1      -2.653  13.975  22.276  0.00  0.00    +0.000 A 
ATOM      9  C   UNL     1      -2.437  13.062  23.294  0.00  0.00    +0.000 A 
ATOM     10  C   UNL     1      -1.701  11.890  23.081  0.00  0.00    +0.000 A 
ATOM     11  C   UNL     1      -1.167  11.567  21.825  0.00  0.00    +0.000 A 
ATOM     12  C   UNL     1      -1.413  12.505  20.804  0.00  0.00    +0.000 A 
ATOM     13  C   UNL     1      -2.153  13.683  21.011  0.00  0.00    +0.000 A 
BRANCH   8  15
ATOM     14  C   UNL     1      -2.683  16.305  22.672  0.00  0.00    +0.000 C 
ATOM     15  O   UNL     1      -3.396  15.071  22.601  0.00  0.00    +0.000 OA
ENDBRANCH   8  15
ENDBRANCH   2  11
ENDBRANCH   1   5
BRANCH   1  16
ATOM     16  C   UNL     1       2.020   5.897  20.380  0.00  0.00    +0.000 C 
BRANCH  16  17
ATOM     17  C   UNL     1       1.440   4.964  19.294  0.00  0.00    +0.000 C 
BRANCH  17  18
ATOM     18  C   UNL     1       2.158   4.942  17.946  0.00  0.00    +0.000 C 
BRANCH  18  19
ATOM     19  C   UNL     1       3.652   4.627  17.939  0.00  0.00    +0.000 A 
ATOM     20  C   UNL     1       4.080   3.309  18.036  0.00  0.00    +0.000 A 
ATOM     21  N   UNL     1       5.258   3.364  18.714  0.00  0.00    +0.000 N 
ATOM     22  C   UNL     1       5.894   4.522  18.369  0.00  0.00    +0.000 A 
ATOM     23  C   UNL     1       7.252   4.816  18.478  0.00  0.00    +0.000 A 
ATOM     24  C   UNL     1       7.666   6.047  18.008  0.00  0.00    +0.000 A 
ATOM     25  C   UNL     1       6.749   6.988  17.537  0.00  0.00    +0.000 A 
ATOM     26  C   UNL     1       5.355   6.713  17.536  0.00  0.00    +0.000 A 
ATOM     27  C   UNL     1       4.902   5.401  17.899  0.00  0.00    +0.000 A 
ATOM     28  H   UNL     1       5.661   2.623  19.270  0.00  0.00    +0.000 HD
BRANCH  25  29
ATOM     29  O   UNL     1       7.419   8.050  16.999  0.00  0.00    +0.000 OA
ATOM     30  C   UNL     1       8.024   9.045  17.791  0.00  0.00    +0.000 C 
ENDBRANCH  25  29
ENDBRANCH  18  19
ENDBRANCH  17  18
ENDBRANCH  16  17
ENDBRANCH   1  16
TORSDOF 8
ENDMDL
