MODEL 1
REMARK VINA RESULT:      -9.2      0.000      0.000
REMARK  Name = 
REMARK  7 active torsions:
REMARK  status: ('A' for Active; 'I' for Inactive)
REMARK    1  A    between atoms: N_1  and  S_2
REMARK    2  A    between atoms: S_2  and  C_5
REMARK    3  A    between atoms: C_8  and  C_9
REMARK    4  A    between atoms: C_9  and  C_10
REMARK    5  A    between atoms: C_10  and  N_11
REMARK    6  A    between atoms: C_12  and  C_14
REMARK    7  A    between atoms: C_14  and  C_15
REMARK                            x       y       z     vdW  Elec       q    Type
REMARK                         _______ _______ _______ _____ _____    ______ ____
ROOT
ATOM      1  N   UNL     1       8.633   8.231  18.779  0.00  0.00    +0.000 N 
ATOM      2  C   UNL     1       7.784   7.498  17.968  0.00  0.00    +0.000 C 
ATOM      3  O   UNL     1       7.158   8.004  17.045  0.00  0.00    +0.000 OA
ATOM      4  H   UNL     1       8.947   7.827  19.656  0.00  0.00    +0.000 HD
ENDROOT
BRANCH   1   5
ATOM      5  C   UNL     1       8.745   9.665  18.573  0.00  0.00    +0.000 C 
BRANCH   5   6
ATOM      6  C   UNL     1       9.610  10.378  19.612  0.00  0.00    +0.000 C 
BRANCH   6  10
ATOM      7  C   UNL     1      10.584  14.375  18.322  0.00  0.00    +0.000 A 
ATOM      8  C   UNL     1      11.065  13.914  19.548  0.00  0.00    +0.000 A 
ATOM      9  C   UNL     1      10.762  12.612  19.958  0.00  0.00    +0.000 A 
ATOM     10  C   UNL     1       9.975  11.772  19.153  0.00  0.00    +0.000 A 
ATOM     11  C   UNL     1       9.481  12.262  17.935  0.00  0.00    +0.000 A 
ATOM     12  C   UNL     1       9.781  13.560  17.520  0.00  0.00    +0.000 A 
BRANCH   7  13
ATOM     13  S   UNL     1      10.942  16.017  17.777  0.00  0.00    +0.000 S 
ATOM     14  O   UNL     1      12.312  16.345  18.107  0.00  0.00    +0.000 OA
ATOM     15  O   UNL     1       9.841  16.884  18.111  0.00  0.00    +0.000 OA
BRANCH  13  16
ATOM     16  N   UNL     1      10.896  15.837  16.108  0.00  0.00    +0.000 NA
ATOM     17  H   UNL     1      10.671  14.869  15.874  0.00  0.00    +0.000 HD
ATOM     18  H   UNL     1      11.761  16.174  15.689  0.00  0.00    +0.000 HD
ENDBRANCH  13  16
ENDBRANCH   7  13
ENDBRANCH   6  10
ENDBRANCH   5   6
ENDBRANCH   1   5
BRANCH   2  19
ATOM     19  C   UNL     1       7.732   6.013  18.252  0.00  0.00    +0.000 C 
BRANCH  19  20
ATOM     20  C   UNL     1       6.894   5.255  17.275  0.00  0.00    +0.000 A 
ATOM     21  C   UNL     1       7.255   4.726  16.052  0.00  0.00    +0.000 A 
ATOM     22  S   UNL     1       5.940   3.853  15.376  0.00  0.00    +0.000 S 
ATOM     23  C   UNL     1       4.994   4.182  16.783  0.00  0.00    +0.000 A 
ATOM     24  N   UNL     1       3.767   3.636  16.931  0.00  0.00    +0.000 N 
ATOM     25  C   UNL     1       3.093   3.457  18.142  0.00  0.00    +0.000 A 
ATOM     26  C   UNL     1       3.321   4.242  19.274  0.00  0.00    +0.000 A 
ATOM     27  C   UNL     1       2.682   3.949  20.478  0.00  0.00    +0.000 A 
ATOM     28  C   UNL     1       1.795   2.890  20.521  0.00  0.00    +0.000 A 
ATOM     29 CL   UNL     1       1.002   2.476  21.983  0.00  0.00    +0.000 Cl
ATOM     30  C   UNL     1       1.575   2.182  19.352  0.00  0.00    +0.000 A 
ATOM     31  N   UNL     1       2.198   2.444  18.172  0.00  0.00    +0.000 NA
ATOM     32  N   UNL     1       5.600   4.956  17.655  0.00  0.00    +0.000 NA
ATOM     33  H   UNL     1       3.467   2.932  16.267  0.00  0.00    +0.000 HD
ENDBRANCH  19  20
ENDBRANCH   2  19
TORSDOF 7
ENDMDL
MODEL 2
REMARK VINA RESULT:      -8.3      8.240     11.389
REMARK  Name = 
REMARK  7 active torsions:
REMARK  status: ('A' for Active; 'I' for Inactive)
REMARK    1  A    between atoms: N_1  and  S_2
REMARK    2  A    between atoms: S_2  and  C_5
REMARK    3  A    between atoms: C_8  and  C_9
REMARK    4  A    between atoms: C_9  and  C_10
REMARK    5  A    between atoms: C_10  and  N_11
REMARK    6  A    between atoms: C_12  and  C_14
REMARK    7  A    between atoms: C_14  and  C_15
REMARK                            x       y       z     vdW  Elec       q    Type
REMARK                         _______ _______ _______ _____ _____    ______ ____
ROOT
ATOM      1  N   UNL     1       0.907  10.500  19.722  0.00  0.00    +0.000 N 
ATOM      2  C   UNL     1       0.949  11.046  20.993  0.00  0.00    +0.000 C 
ATOM      3  O   UNL     1       1.211  10.380  21.986  0.00  0.00    +0.000 OA
ATOM      4  H   UNL     1       0.468  11.028  18.973  0.00  0.00    +0.000 HD
ENDROOT
BRANCH   1   5
ATOM      5  C   UNL     1       1.121   9.073  19.558  0.00  0.00    +0.000 C 
BRANCH   5   6
ATOM      6  C   UNL     1       2.186   8.717  18.521  0.00  0.00    +0.000 C 
BRANCH   6  10
ATOM      7  C   UNL     1       3.274   4.556  18.827  0.00  0.00    +0.000 A 
ATOM      8  C   UNL     1       3.582   5.262  17.663  0.00  0.00    +0.000 A 
ATOM      9  C   UNL     1       3.243   6.615  17.571  0.00  0.00    +0.000 A 
ATOM     10  C   UNL     1       2.591   7.264  18.633  0.00  0.00    +0.000 A 
ATOM     11  C   UNL     1       2.269   6.531  19.785  0.00  0.00    +0.000 A 
ATOM     12  C   UNL     1       2.605   5.181  19.883  0.00  0.00    +0.000 A 
BRANCH   7  13
ATOM     13  S   UNL     1       3.682   2.843  18.973  0.00  0.00    +0.000 S 
ATOM     14  O   UNL     1       3.750   2.251  17.655  0.00  0.00    +0.000 OA
ATOM     15  O   UNL     1       2.914   2.256  20.042  0.00  0.00    +0.000 OA
BRANCH  13  16
ATOM     16  N   UNL     1       5.263   2.918  19.531  0.00  0.00    +0.000 NA
ATOM     17  H   UNL     1       5.388   3.760  20.096  0.00  0.00    +0.000 HD
ATOM     18  H   UNL     1       5.919   2.839  18.757  0.00  0.00    +0.000 HD
ENDBRANCH  13  16
ENDBRANCH   7  13
ENDBRANCH   6  10
ENDBRANCH   5   6
ENDBRANCH   1   5
BRANCH   2  19
ATOM     19  C   UNL     1       0.717  12.540  21.068  0.00  0.00    +0.000 C 
BRANCH  19  20
ATOM     20  C   UNL     1      -0.727  12.916  21.010  0.00  0.00    +0.000 A 
ATOM     21  C   UNL     1      -1.383  13.936  21.671  0.00  0.00    +0.000 A 
ATOM     22  S   UNL     1      -3.024  14.003  21.169  0.00  0.00    +0.000 S 
ATOM     23  C   UNL     1      -2.741  12.710  20.059  0.00  0.00    +0.000 A 
ATOM     24  N   UNL     1      -3.709  12.312  19.204  0.00  0.00    +0.000 N 
ATOM     25  C   UNL     1      -3.508  11.616  18.009  0.00  0.00    +0.000 A 
ATOM     26  C   UNL     1      -2.400  10.800  17.769  0.00  0.00    +0.000 A 
ATOM     27  C   UNL     1      -2.215  10.211  16.519  0.00  0.00    +0.000 A 
ATOM     28  C   UNL     1      -3.161  10.422  15.535  0.00  0.00    +0.000 A 
ATOM     29 CL   UNL     1      -2.966   9.737  13.976  0.00  0.00    +0.000 Cl
ATOM     30  C   UNL     1      -4.261  11.201  15.851  0.00  0.00    +0.000 A 
ATOM     31  N   UNL     1      -4.454  11.795  17.059  0.00  0.00    +0.000 NA
ATOM     32  N   UNL     1      -1.524  12.220  20.123  0.00  0.00    +0.000 NA
ATOM     33  H   UNL     1      -4.554  12.866  19.138  0.00  0.00    +0.000 HD
ENDBRANCH  19  20
ENDBRANCH   2  19
TORSDOF 7
ENDMDL
MODEL 3
REMARK VINA RESULT:      -8.3      7.971     11.174
REMARK  Name = 
REMARK  7 active torsions:
REMARK  status: ('A' for Active; 'I' for Inactive)
REMARK    1  A    between atoms: N_1  and  S_2
REMARK    2  A    between atoms: S_2  and  C_5
REMARK    3  A    between atoms: C_8  and  C_9
REMARK    4  A    between atoms: C_9  and  C_10
REMARK    5  A    between atoms: C_10  and  N_11
REMARK    6  A    between atoms: C_12  and  C_14
REMARK    7  A    between atoms: C_14  and  C_15
REMARK                            x       y       z     vdW  Elec       q    Type
REMARK                         _______ _______ _______ _____ _____    ______ ____
ROOT
ATOM      1  N   UNL     1       1.049  10.328  19.027  0.00  0.00    +0.000 N 
ATOM      2  C   UNL     1       0.870  10.285  20.399  0.00  0.00    +0.000 C 
ATOM      3  O   UNL     1       0.877   9.236  21.030  0.00  0.00    +0.000 OA
ATOM      4  H   UNL     1       0.810  11.178  18.525  0.00  0.00    +0.000 HD
ENDROOT
BRANCH   1   5
ATOM      5  C   UNL     1       1.190   9.082  18.293  0.00  0.00    +0.000 C 
BRANCH   5   6
ATOM      6  C   UNL     1       2.636   8.723  17.948  0.00  0.00    +0.000 C 
BRANCH   6  10
ATOM      7  C   UNL     1       3.503   4.583  18.784  0.00  0.00    +0.000 A 
ATOM      8  C   UNL     1       2.739   5.320  19.690  0.00  0.00    +0.000 A 
ATOM      9  C   UNL     1       2.446   6.658  19.410  0.00  0.00    +0.000 A 
ATOM     10  C   UNL     1       2.917   7.264  18.233  0.00  0.00    +0.000 A 
ATOM     11  C   UNL     1       3.703   6.513  17.347  0.00  0.00    +0.000 A 
ATOM     12  C   UNL     1       3.998   5.178  17.620  0.00  0.00    +0.000 A 
BRANCH   7  13
ATOM     13  S   UNL     1       3.899   2.892  19.111  0.00  0.00    +0.000 S 
ATOM     14  O   UNL     1       5.099   2.826  19.915  0.00  0.00    +0.000 OA
ATOM     15  O   UNL     1       3.735   2.120  17.905  0.00  0.00    +0.000 OA
BRANCH  13  16
ATOM     16  N   UNL     1       2.637   2.438  20.121  0.00  0.00    +0.000 NA
ATOM     17  H   UNL     1       2.906   2.588  21.094  0.00  0.00    +0.000 HD
ATOM     18  H   UNL     1       2.340   1.486  19.916  0.00  0.00    +0.000 HD
ENDBRANCH  13  16
ENDBRANCH   7  13
ENDBRANCH   6  10
ENDBRANCH   5   6
ENDBRANCH   1   5
BRANCH   2  19
ATOM     19  C   UNL     1       0.735  11.630  21.081  0.00  0.00    +0.000 C 
BRANCH  19  20
ATOM     20  C   UNL     1      -0.642  12.201  20.987  0.00  0.00    +0.000 A 
ATOM     21  C   UNL     1      -1.183  13.271  21.671  0.00  0.00    +0.000 A 
ATOM     22  S   UNL     1      -2.777  13.584  21.112  0.00  0.00    +0.000 S 
ATOM     23  C   UNL     1      -2.621  12.314  19.950  0.00  0.00    +0.000 A 
ATOM     24  N   UNL     1      -3.595  12.090  19.041  0.00  0.00    +0.000 N 
ATOM     25  C   UNL     1      -3.437  11.426  17.822  0.00  0.00    +0.000 A 
ATOM     26  C   UNL     1      -2.440  10.478  17.584  0.00  0.00    +0.000 A 
ATOM     27  C   UNL     1      -2.280   9.924  16.315  0.00  0.00    +0.000 A 
ATOM     28  C   UNL     1      -3.145  10.305  15.307  0.00  0.00    +0.000 A 
ATOM     29 CL   UNL     1      -2.975   9.669  13.724  0.00  0.00    +0.000 Cl
ATOM     30  C   UNL     1      -4.143  11.212  15.619  0.00  0.00    +0.000 A 
ATOM     31  N   UNL     1      -4.308  11.774  16.847  0.00  0.00    +0.000 NA
ATOM     32  N   UNL     1      -1.485  11.660  20.036  0.00  0.00    +0.000 NA
ATOM     33  H   UNL     1      -4.355  12.756  18.971  0.00  0.00    +0.000 HD
ENDBRANCH  19  20
ENDBRANCH   2  19
TORSDOF 7
ENDMDL
MODEL 4
REMARK VINA RESULT:      -8.2      7.171     10.271
REMARK  Name = 
REMARK  7 active torsions:
REMARK  status: ('A' for Active; 'I' for Inactive)
REMARK    1  A    between atoms: N_1  and  S_2
REMARK    2  A    between atoms: S_2  and  C_5
REMARK    3  A    between atoms: C_8  and  C_9
REMARK    4  A    between atoms: C_9  and  C_10
REMARK    5  A    between atoms: C_10  and  N_11
REMARK    6  A    between atoms: C_12  and  C_14
REMARK    7  A    between atoms: C_14  and  C_15
REMARK                            x       y       z     vdW  Elec       q    Type
REMARK                         _______ _______ _______ _____ _____    ______ ____
ROOT
ATOM      1  N   UNL     1       2.013   7.496  20.407  0.00  0.00    +0.000 N 
ATOM      2  C   UNL     1       1.076   8.430  20.814  0.00  0.00    +0.000 C 
ATOM      3  O   UNL     1       0.146   8.148  21.559  0.00  0.00    +0.000 OA
ATOM      4  H   UNL     1       2.619   7.715  19.622  0.00  0.00    +0.000 HD
ENDROOT
BRANCH   1   5
ATOM      5  C   UNL     1       1.860   6.113  20.825  0.00  0.00    +0.000 C 
BRANCH   5   6
ATOM      6  C   UNL     1       1.792   5.116  19.668  0.00  0.00    +0.000 C 
BRANCH   6  10
ATOM      7  C   UNL     1       5.458   5.019  17.401  0.00  0.00    +0.000 A 
ATOM      8  C   UNL     1       4.478   5.958  17.080  0.00  0.00    +0.000 A 
ATOM      9  C   UNL     1       3.296   5.999  17.826  0.00  0.00    +0.000 A 
ATOM     10  C   UNL     1       3.087   5.102  18.886  0.00  0.00    +0.000 A 
ATOM     11  C   UNL     1       4.074   4.149  19.178  0.00  0.00    +0.000 A 
ATOM     12  C   UNL     1       5.255   4.104  18.438  0.00  0.00    +0.000 A 
BRANCH   7  13
ATOM     13  S   UNL     1       6.960   4.935  16.473  0.00  0.00    +0.000 S 
ATOM     14  O   UNL     1       7.487   6.269  16.291  0.00  0.00    +0.000 OA
ATOM     15  O   UNL     1       6.796   4.014  15.377  0.00  0.00    +0.000 OA
BRANCH  13  16
ATOM     16  N   UNL     1       7.988   4.174  17.562  0.00  0.00    +0.000 NA
ATOM     17  H   UNL     1       8.930   4.557  17.469  0.00  0.00    +0.000 HD
ATOM     18  H   UNL     1       7.940   3.163  17.451  0.00  0.00    +0.000 HD
ENDBRANCH  13  16
ENDBRANCH   7  13
ENDBRANCH   6  10
ENDBRANCH   5   6
ENDBRANCH   1   5
BRANCH   2  19
ATOM     19  C   UNL     1       1.316   9.845  20.333  0.00  0.00    +0.000 C 
BRANCH  19  20
ATOM     20  C   UNL     1       0.129  10.735  20.505  0.00  0.00    +0.000 A 
ATOM     21  C   UNL     1      -0.037  11.798  21.370  0.00  0.00    +0.000 A 
ATOM     22  S   UNL     1      -1.553  12.555  21.090  0.00  0.00    +0.000 S 
ATOM     23  C   UNL     1      -1.864  11.457  19.793  0.00  0.00    +0.000 A 
ATOM     24  N   UNL     1      -2.964  11.598  19.020  0.00  0.00    +0.000 N 
ATOM     25  C   UNL     1      -3.126  11.091  17.729  0.00  0.00    +0.000 A 
ATOM     26  C   UNL     1      -2.439   9.974  17.248  0.00  0.00    +0.000 A 
ATOM     27  C   UNL     1      -2.577   9.578  15.918  0.00  0.00    +0.000 A 
ATOM     28  C   UNL     1      -3.430  10.290  15.096  0.00  0.00    +0.000 A 
ATOM     29 CL   UNL     1      -3.616   9.856  13.448  0.00  0.00    +0.000 Cl
ATOM     30  C   UNL     1      -4.120  11.356  15.646  0.00  0.00    +0.000 A 
ATOM     31  N   UNL     1      -3.989  11.766  16.936  0.00  0.00    +0.000 NA
ATOM     32  N   UNL     1      -0.931  10.546  19.640  0.00  0.00    +0.000 NA
ATOM     33  H   UNL     1      -3.532  12.429  19.133  0.00  0.00    +0.000 HD
ENDBRANCH  19  20
ENDBRANCH   2  19
TORSDOF 7
ENDMDL
MODEL 5
REMARK VINA RESULT:      -8.1      6.505      8.460
REMARK  Name = 
REMARK  7 active torsions:
REMARK  status: ('A' for Active; 'I' for Inactive)
REMARK    1  A    between atoms: N_1  and  S_2
REMARK    2  A    between atoms: S_2  and  C_5
REMARK    3  A    between atoms: C_8  and  C_9
REMARK    4  A    between atoms: C_9  and  C_10
REMARK    5  A    between atoms: C_10  and  N_11
REMARK    6  A    between atoms: C_12  and  C_14
REMARK    7  A    between atoms: C_14  and  C_15
REMARK                            x       y       z     vdW  Elec       q    Type
REMARK                         _______ _______ _______ _____ _____    ______ ____
ROOT
ATOM      1  N   UNL     1       3.362   6.116  18.652  0.00  0.00    +0.000 N 
ATOM      2  C   UNL     1       3.357   4.889  19.293  0.00  0.00    +0.000 C 
ATOM      3  O   UNL     1       2.321   4.311  19.598  0.00  0.00    +0.000 OA
ATOM      4  H   UNL     1       4.223   6.654  18.626  0.00  0.00    +0.000 HD
ENDROOT
BRANCH   1   5
ATOM      5  C   UNL     1       2.097   6.778  18.383  0.00  0.00    +0.000 C 
BRANCH   5   6
ATOM      6  C   UNL     1       2.240   8.227  17.915  0.00  0.00    +0.000 C 
BRANCH   6  10
ATOM      7  C   UNL     1       0.300  10.938  20.649  0.00  0.00    +0.000 A 
ATOM      8  C   UNL     1       0.486   9.606  21.020  0.00  0.00    +0.000 A 
ATOM      9  C   UNL     1       1.129   8.732  20.139  0.00  0.00    +0.000 A 
ATOM     10  C   UNL     1       1.581   9.180  18.887  0.00  0.00    +0.000 A 
ATOM     11  C   UNL     1       1.364  10.517  18.523  0.00  0.00    +0.000 A 
ATOM     12  C   UNL     1       0.724  11.394  19.398  0.00  0.00    +0.000 A 
BRANCH   7  13
ATOM     13  S   UNL     1      -0.516  12.068  21.735  0.00  0.00    +0.000 S 
ATOM     14  O   UNL     1      -1.873  12.278  21.280  0.00  0.00    +0.000 OA
ATOM     15  O   UNL     1       0.371  13.161  22.045  0.00  0.00    +0.000 OA
BRANCH  13  16
ATOM     16  N   UNL     1      -0.634  11.159  23.142  0.00  0.00    +0.000 NA
ATOM     17  H   UNL     1      -1.421  10.514  23.069  0.00  0.00    +0.000 HD
ATOM     18  H   UNL     1      -0.673  11.768  23.958  0.00  0.00    +0.000 HD
ENDBRANCH  13  16
ENDBRANCH   7  13
ENDBRANCH   6  10
ENDBRANCH   5   6
ENDBRANCH   1   5
BRANCH   2  19
ATOM     19  C   UNL     1       4.718   4.272  19.530  0.00  0.00    +0.000 C 
BRANCH  19  20
ATOM     20  C   UNL     1       5.836   5.070  18.944  0.00  0.00    +0.000 A 
ATOM     21  C   UNL     1       6.908   5.660  19.586  0.00  0.00    +0.000 A 
ATOM     22  S   UNL     1       7.966   6.370  18.435  0.00  0.00    +0.000 S 
ATOM     23  C   UNL     1       6.963   5.793  17.152  0.00  0.00    +0.000 A 
ATOM     24  N   UNL     1       7.335   5.952  15.863  0.00  0.00    +0.000 N 
ATOM     25  C   UNL     1       6.878   5.195  14.781  0.00  0.00    +0.000 A 
ATOM     26  C   UNL     1       5.644   4.541  14.765  0.00  0.00    +0.000 A 
ATOM     27  C   UNL     1       5.291   3.724  13.691  0.00  0.00    +0.000 A 
ATOM     28  C   UNL     1       6.169   3.600  12.631  0.00  0.00    +0.000 A 
ATOM     29 CL   UNL     1       5.791   2.591  11.299  0.00  0.00    +0.000 Cl
ATOM     30  C   UNL     1       7.354   4.314  12.686  0.00  0.00    +0.000 A 
ATOM     31  N   UNL     1       7.723   5.104  13.729  0.00  0.00    +0.000 NA
ATOM     32  N   UNL     1       5.877   5.182  17.568  0.00  0.00    +0.000 NA
ATOM     33  H   UNL     1       8.266   6.299  15.666  0.00  0.00    +0.000 HD
ENDBRANCH  19  20
ENDBRANCH   2  19
TORSDOF 7
ENDMDL
MODEL 6
REMARK VINA RESULT:      -8.1      6.770      8.605
REMARK  Name = 
REMARK  7 active torsions:
REMARK  status: ('A' for Active; 'I' for Inactive)
REMARK    1  A    between atoms: N_1  and  S_2
REMARK    2  A    between atoms: S_2  and  C_5
REMARK    3  A    between atoms: C_8  and  C_9
REMARK    4  A    between atoms: C_9  and  C_10
REMARK    5  A    between atoms: C_10  and  N_11
REMARK    6  A    between atoms: C_12  and  C_14
REMARK    7  A    between atoms: C_14  and  C_15
REMARK                            x       y       z     vdW  Elec       q    Type
REMARK                         _______ _______ _______ _____ _____    ______ ____
ROOT
ATOM      1  N   UNL     1       3.400   5.670  19.151  0.00  0.00    +0.000 N 
ATOM      2  C   UNL     1       3.586   4.381  19.619  0.00  0.00    +0.000 C 
ATOM      3  O   UNL     1       2.684   3.732  20.133  0.00  0.00    +0.000 OA
ATOM      4  H   UNL     1       4.213   6.243  18.948  0.00  0.00    +0.000 HD
ENDROOT
BRANCH   1   5
ATOM      5  C   UNL     1       2.105   6.306  19.325  0.00  0.00    +0.000 C 
BRANCH   5   6
ATOM      6  C   UNL     1       2.078   7.373  20.419  0.00  0.00    +0.000 C 
BRANCH   6  10
ATOM      7  C   UNL     1      -0.301  10.742  19.162  0.00  0.00    +0.000 A 
ATOM      8  C   UNL     1      -0.438  10.253  20.462  0.00  0.00    +0.000 A 
ATOM      9  C   UNL     1       0.346   9.171  20.873  0.00  0.00    +0.000 A 
ATOM     10  C   UNL     1       1.259   8.571  19.990  0.00  0.00    +0.000 A 
ATOM     11  C   UNL     1       1.365   9.062  18.681  0.00  0.00    +0.000 A 
ATOM     12  C   UNL     1       0.586  10.142  18.265  0.00  0.00    +0.000 A 
BRANCH   7  13
ATOM     13  S   UNL     1      -1.281  12.104  18.607  0.00  0.00    +0.000 S 
ATOM     14  O   UNL     1      -1.845  12.787  19.751  0.00  0.00    +0.000 OA
ATOM     15  O   UNL     1      -2.083  11.691  17.483  0.00  0.00    +0.000 OA
BRANCH  13  16
ATOM     16  N   UNL     1      -0.109  13.132  17.983  0.00  0.00    +0.000 NA
ATOM     17  H   UNL     1       0.485  13.473  18.739  0.00  0.00    +0.000 HD
ATOM     18  H   UNL     1      -0.541  13.871  17.431  0.00  0.00    +0.000 HD
ENDBRANCH  13  16
ENDBRANCH   7  13
ENDBRANCH   6  10
ENDBRANCH   5   6
ENDBRANCH   1   5
BRANCH   2  19
ATOM     19  C   UNL     1       4.964   3.798  19.392  0.00  0.00    +0.000 C 
BRANCH  19  20
ATOM     20  C   UNL     1       5.939   4.787  18.842  0.00  0.00    +0.000 A 
ATOM     21  C   UNL     1       6.903   5.516  19.510  0.00  0.00    +0.000 A 
ATOM     22  S   UNL     1       7.831   6.430  18.391  0.00  0.00    +0.000 S 
ATOM     23  C   UNL     1       6.931   5.749  17.083  0.00  0.00    +0.000 A 
ATOM     24  N   UNL     1       7.269   6.015  15.802  0.00  0.00    +0.000 N 
ATOM     25  C   UNL     1       6.937   5.236  14.691  0.00  0.00    +0.000 A 
ATOM     26  C   UNL     1       5.824   4.394  14.645  0.00  0.00    +0.000 A 
ATOM     27  C   UNL     1       5.605   3.573  13.540  0.00  0.00    +0.000 A 
ATOM     28  C   UNL     1       6.489   3.632  12.479  0.00  0.00    +0.000 A 
ATOM     29 CL   UNL     1       6.274   2.626  11.108  0.00  0.00    +0.000 Cl
ATOM     30  C   UNL     1       7.544   4.524  12.565  0.00  0.00    +0.000 A 
ATOM     31  N   UNL     1       7.783   5.323  13.639  0.00  0.00    +0.000 NA
ATOM     32  N   UNL     1       5.958   4.956  17.471  0.00  0.00    +0.000 NA
ATOM     33  H   UNL     1       8.132   6.514  15.623  0.00  0.00    +0.000 HD
ENDBRANCH  19  20
ENDBRANCH   2  19
TORSDOF 7
ENDMDL
MODEL 7
REMARK VINA RESULT:      -8.1      8.080     10.659
REMARK  Name = 
REMARK  7 active torsions:
REMARK  status: ('A' for Active; 'I' for Inactive)
REMARK    1  A    between atoms: N_1  and  S_2
REMARK    2  A    between atoms: S_2  and  C_5
REMARK    3  A    between atoms: C_8  and  C_9
REMARK    4  A    between atoms: C_9  and  C_10
REMARK    5  A    between atoms: C_10  and  N_11
REMARK    6  A    between atoms: C_12  and  C_14
REMARK    7  A    between atoms: C_14  and  C_15
REMARK                            x       y       z     vdW  Elec       q    Type
REMARK                         _______ _______ _______ _____ _____    ______ ____
ROOT
ATOM      1  N   UNL     1       1.669  10.845  19.444  0.00  0.00    +0.000 N 
ATOM      2  C   UNL     1       1.548  12.222  19.511  0.00  0.00    +0.000 C 
ATOM      3  O   UNL     1       1.682  12.942  18.530  0.00  0.00    +0.000 OA
ATOM      4  H   UNL     1       1.777  10.317  20.305  0.00  0.00    +0.000 HD
ENDROOT
BRANCH   1   5
ATOM      5  C   UNL     1       2.027  10.227  18.179  0.00  0.00    +0.000 C 
BRANCH   5   6
ATOM      6  C   UNL     1       1.418   8.841  17.967  0.00  0.00    +0.000 C 
BRANCH   6  10
ATOM      7  C   UNL     1       4.396   5.793  18.625  0.00  0.00    +0.000 A 
ATOM      8  C   UNL     1       3.309   5.889  19.494  0.00  0.00    +0.000 A 
ATOM      9  C   UNL     1       2.335   6.868  19.271  0.00  0.00    +0.000 A 
ATOM     10  C   UNL     1       2.447   7.755  18.187  0.00  0.00    +0.000 A 
ATOM     11  C   UNL     1       3.560   7.658  17.339  0.00  0.00    +0.000 A 
ATOM     12  C   UNL     1       4.533   6.683  17.556  0.00  0.00    +0.000 A 
BRANCH   7  13
ATOM     13  S   UNL     1       5.648   4.573  18.883  0.00  0.00    +0.000 S 
ATOM     14  O   UNL     1       5.067   3.419  19.533  0.00  0.00    +0.000 OA
ATOM     15  O   UNL     1       6.845   5.210  19.369  0.00  0.00    +0.000 OA
BRANCH  13  16
ATOM     16  N   UNL     1       5.987   4.098  17.308  0.00  0.00    +0.000 NA
ATOM     17  H   UNL     1       5.766   3.108  17.194  0.00  0.00    +0.000 HD
ATOM     18  H   UNL     1       6.944   4.339  17.062  0.00  0.00    +0.000 HD
ENDBRANCH  13  16
ENDBRANCH   7  13
ENDBRANCH   6  10
ENDBRANCH   5   6
ENDBRANCH   1   5
BRANCH   2  19
ATOM     19  C   UNL     1       1.170  12.778  20.867  0.00  0.00    +0.000 C 
BRANCH  19  20
ATOM     20  C   UNL     1      -0.296  13.024  21.014  0.00  0.00    +0.000 A 
ATOM     21  C   UNL     1      -0.943  13.947  21.812  0.00  0.00    +0.000 A 
ATOM     22  S   UNL     1      -2.635  13.891  21.526  0.00  0.00    +0.000 S 
ATOM     23  C   UNL     1      -2.393  12.685  20.313  0.00  0.00    +0.000 A 
ATOM     24  N   UNL     1      -3.428  12.244  19.564  0.00  0.00    +0.000 N 
ATOM     25  C   UNL     1      -3.328  11.629  18.313  0.00  0.00    +0.000 A 
ATOM     26  C   UNL     1      -2.197  10.928  17.888  0.00  0.00    +0.000 A 
ATOM     27  C   UNL     1      -2.128  10.420  16.591  0.00  0.00    +0.000 A 
ATOM     28  C   UNL     1      -3.209  10.594  15.748  0.00  0.00    +0.000 A 
ATOM     29 CL   UNL     1      -3.163  10.007  14.139  0.00  0.00    +0.000 Cl
ATOM     30  C   UNL     1      -4.319  11.254  16.247  0.00  0.00    +0.000 A 
ATOM     31  N   UNL     1      -4.401  11.769  17.503  0.00  0.00    +0.000 NA
ATOM     32  N   UNL     1      -1.141  12.304  20.193  0.00  0.00    +0.000 NA
ATOM     33  H   UNL     1      -4.318  12.722  19.639  0.00  0.00    +0.000 HD
ENDBRANCH  19  20
ENDBRANCH   2  19
TORSDOF 7
ENDMDL
MODEL 8
REMARK VINA RESULT:      -8.1      3.579      4.194
REMARK  Name = 
REMARK  7 active torsions:
REMARK  status: ('A' for Active; 'I' for Inactive)
REMARK    1  A    between atoms: N_1  and  S_2
REMARK    2  A    between atoms: S_2  and  C_5
REMARK    3  A    between atoms: C_8  and  C_9
REMARK    4  A    between atoms: C_9  and  C_10
REMARK    5  A    between atoms: C_10  and  N_11
REMARK    6  A    between atoms: C_12  and  C_14
REMARK    7  A    between atoms: C_14  and  C_15
REMARK                            x       y       z     vdW  Elec       q    Type
REMARK                         _______ _______ _______ _____ _____    ______ ____
ROOT
ATOM      1  N   UNL     1       6.666   6.992  16.989  0.00  0.00    +0.000 N 
ATOM      2  C   UNL     1       6.621   6.037  15.988  0.00  0.00    +0.000 C 
ATOM      3  O   UNL     1       7.568   5.821  15.243  0.00  0.00    +0.000 OA
ATOM      4  H   UNL     1       5.798   7.291  17.423  0.00  0.00    +0.000 HD
ENDROOT
BRANCH   1   5
ATOM      5  C   UNL     1       7.854   7.815  17.128  0.00  0.00    +0.000 C 
BRANCH   5   6
ATOM      6  C   UNL     1       8.162   8.228  18.567  0.00  0.00    +0.000 C 
BRANCH   6  10
ATOM      7  C   UNL     1       9.461  12.334  18.773  0.00  0.00    +0.000 A 
ATOM      8  C   UNL     1       9.798  11.456  19.804  0.00  0.00    +0.000 A 
ATOM      9  C   UNL     1       9.390  10.120  19.728  0.00  0.00    +0.000 A 
ATOM     10  C   UNL     1       8.641   9.661  18.632  0.00  0.00    +0.000 A 
ATOM     11  C   UNL     1       8.292  10.565  17.618  0.00  0.00    +0.000 A 
ATOM     12  C   UNL     1       8.697  11.898  17.688  0.00  0.00    +0.000 A 
BRANCH   7  13
ATOM     13  S   UNL     1       9.955  14.029  18.841  0.00  0.00    +0.000 S 
ATOM     14  O   UNL     1      11.286  14.164  18.292  0.00  0.00    +0.000 OA
ATOM     15  O   UNL     1       9.587  14.585  20.119  0.00  0.00    +0.000 OA
BRANCH  13  16
ATOM     16  N   UNL     1       8.917  14.729  17.721  0.00  0.00    +0.000 NA
ATOM     17  H   UNL     1       8.272  14.022  17.364  0.00  0.00    +0.000 HD
ATOM     18  H   UNL     1       9.446  15.209  16.996  0.00  0.00    +0.000 HD
ENDBRANCH  13  16
ENDBRANCH   7  13
ENDBRANCH   6  10
ENDBRANCH   5   6
ENDBRANCH   1   5
BRANCH   2  19
ATOM     19  C   UNL     1       5.346   5.224  15.920  0.00  0.00    +0.000 C 
BRANCH  19  20
ATOM     20  C   UNL     1       4.738   4.968  17.259  0.00  0.00    +0.000 A 
ATOM     21  C   UNL     1       5.117   4.052  18.221  0.00  0.00    +0.000 A 
ATOM     22  S   UNL     1       4.151   4.240  19.628  0.00  0.00    +0.000 S 
ATOM     23  C   UNL     1       3.331   5.570  18.891  0.00  0.00    +0.000 A 
ATOM     24  N   UNL     1       2.426   6.293  19.587  0.00  0.00    +0.000 N 
ATOM     25  C   UNL     1       2.022   7.598  19.294  0.00  0.00    +0.000 A 
ATOM     26  C   UNL     1       2.079   8.152  18.014  0.00  0.00    +0.000 A 
ATOM     27  C   UNL     1       1.749   9.492  17.809  0.00  0.00    +0.000 A 
ATOM     28  C   UNL     1       1.335  10.249  18.888  0.00  0.00    +0.000 A 
ATOM     29 CL   UNL     1       0.941  11.905  18.691  0.00  0.00    +0.000 Cl
ATOM     30  C   UNL     1       1.253   9.627  20.122  0.00  0.00    +0.000 A 
ATOM     31  N   UNL     1       1.582   8.326  20.345  0.00  0.00    +0.000 NA
ATOM     32  N   UNL     1       3.707   5.799  17.653  0.00  0.00    +0.000 NA
ATOM     33  H   UNL     1       2.331   6.122  20.581  0.00  0.00    +0.000 HD
ENDBRANCH  19  20
ENDBRANCH   2  19
TORSDOF 7
ENDMDL
MODEL 9
REMARK VINA RESULT:      -8.0      2.314      2.533
REMARK  Name = 
REMARK  7 active torsions:
REMARK  status: ('A' for Active; 'I' for Inactive)
REMARK    1  A    between atoms: N_1  and  S_2
REMARK    2  A    between atoms: S_2  and  C_5
REMARK    3  A    between atoms: C_8  and  C_9
REMARK    4  A    between atoms: C_9  and  C_10
REMARK    5  A    between atoms: C_10  and  N_11
REMARK    6  A    between atoms: C_12  and  C_14
REMARK    7  A    between atoms: C_14  and  C_15
REMARK                            x       y       z     vdW  Elec       q    Type
REMARK                         _______ _______ _______ _____ _____    ______ ____
ROOT
ATOM      1  N   UNL     1       8.578   8.394  18.675  0.00  0.00    +0.000 N 
ATOM      2  C   UNL     1       7.736   7.641  17.875  0.00  0.00    +0.000 C 
ATOM      3  O   UNL     1       7.093   8.129  16.955  0.00  0.00    +0.000 OA
ATOM      4  H   UNL     1       8.906   8.001  19.552  0.00  0.00    +0.000 HD
ENDROOT
BRANCH   1   5
ATOM      5  C   UNL     1       8.661   9.828  18.460  0.00  0.00    +0.000 C 
BRANCH   5   6
ATOM      6  C   UNL     1      10.002  10.442  18.862  0.00  0.00    +0.000 C 
BRANCH   6  10
ATOM      7  C   UNL     1       9.503  13.718  21.621  0.00  0.00    +0.000 A 
ATOM      8  C   UNL     1      10.104  13.949  20.383  0.00  0.00    +0.000 A 
ATOM      9  C   UNL     1      10.251  12.889  19.483  0.00  0.00    +0.000 A 
ATOM     10  C   UNL     1       9.807  11.599  19.817  0.00  0.00    +0.000 A 
ATOM     11  C   UNL     1       9.228  11.382  21.075  0.00  0.00    +0.000 A 
ATOM     12  C   UNL     1       9.078  12.435  21.977  0.00  0.00    +0.000 A 
BRANCH   7  13
ATOM     13  S   UNL     1       9.309  15.033  22.785  0.00  0.00    +0.000 S 
ATOM     14  O   UNL     1      10.555  15.759  22.902  0.00  0.00    +0.000 OA
ATOM     15  O   UNL     1       8.586  14.552  23.935  0.00  0.00    +0.000 OA
BRANCH  13  16
ATOM     16  N   UNL     1       8.251  16.052  21.971  0.00  0.00    +0.000 NA
ATOM     17  H   UNL     1       8.740  16.907  21.700  0.00  0.00    +0.000 HD
ATOM     18  H   UNL     1       7.413  16.213  22.525  0.00  0.00    +0.000 HD
ENDBRANCH  13  16
ENDBRANCH   7  13
ENDBRANCH   6  10
ENDBRANCH   5   6
ENDBRANCH   1   5
BRANCH   2  19
ATOM     19  C   UNL     1       7.715   6.156  18.168  0.00  0.00    +0.000 C 
BRANCH  19  20
ATOM     20  C   UNL     1       6.886   5.376  17.202  0.00  0.00    +0.000 A 
ATOM     21  C   UNL     1       7.248   4.852  15.976  0.00  0.00    +0.000 A 
ATOM     22  S   UNL     1       5.946   3.948  15.315  0.00  0.00    +0.000 S 
ATOM     23  C   UNL     1       5.006   4.259  16.730  0.00  0.00    +0.000 A 
ATOM     24  N   UNL     1       3.794   3.685  16.892  0.00  0.00    +0.000 N 
ATOM     25  C   UNL     1       3.135   3.495  18.109  0.00  0.00    +0.000 A 
ATOM     26  C   UNL     1       3.357   4.288  19.237  0.00  0.00    +0.000 A 
ATOM     27  C   UNL     1       2.736   3.983  20.448  0.00  0.00    +0.000 A 
ATOM     28  C   UNL     1       1.874   2.905  20.503  0.00  0.00    +0.000 A 
ATOM     29 CL   UNL     1       1.104   2.477  21.973  0.00  0.00    +0.000 Cl
ATOM     30  C   UNL     1       1.659   2.188  19.337  0.00  0.00    +0.000 A 
ATOM     31  N   UNL     1       2.264   2.461  18.151  0.00  0.00    +0.000 NA
ATOM     32  N   UNL     1       5.603   5.049  17.594  0.00  0.00    +0.000 NA
ATOM     33  H   UNL     1       3.503   2.973  16.232  0.00  0.00    +0.000 HD
ENDBRANCH  19  20
ENDBRANCH   2  19
TORSDOF 7
ENDMDL
