MODEL 1
REMARK VINA RESULT:      -6.0      0.000      0.000
REMARK  Name = 
REMARK  5 active torsions:
REMARK  status: ('A' for Active; 'I' for Inactive)
REMARK    1  A    between atoms: N_1  and  C_2
REMARK    2  A    between atoms: N_10  and  C_11
REMARK    3  A    between atoms: C_11  and  C_12
REMARK    4  A    between atoms: C_13  and  C_14
REMARK    5  A    between atoms: C_14  and  O_15
REMARK                            x       y       z     vdW  Elec       q    Type
REMARK                         _______ _______ _______ _____ _____    ______ ____
ROOT
ATOM      1  C   UNL     1       1.630   3.072  19.349  0.00  0.00    +0.000 A 
ATOM      2  N   UNL     1       2.191   1.888  19.042  0.00  0.00    +0.000 NA
ATOM      3  C   UNL     1       3.299   1.889  18.272  0.00  0.00    +0.000 A 
ATOM      4  N   UNL     1       3.955   2.946  17.753  0.00  0.00    +0.000 NA
ATOM      5  C   UNL     1       3.376   4.107  18.102  0.00  0.00    +0.000 A 
ATOM      6  C   UNL     1       2.238   4.249  18.889  0.00  0.00    +0.000 A 
ATOM      7  C   UNL     1       1.980   5.641  19.006  0.00  0.00    +0.000 A 
ATOM      8  C   UNL     1       2.945   6.305  18.284  0.00  0.00    +0.000 A 
ATOM      9  N   UNL     1       3.792   5.366  17.736  0.00  0.00    +0.000 N 
ENDROOT
BRANCH   1  10
ATOM     10  N   UNL     1       0.465   3.058  20.101  0.00  0.00    +0.000 N 
ATOM     11  H   UNL     1       0.442   2.293  20.764  0.00  0.00    +0.000 HD
ATOM     12  H   UNL     1       0.113   3.954  20.405  0.00  0.00    +0.000 HD
ENDBRANCH   1  10
BRANCH   9  13
ATOM     13  C   UNL     1       4.885   5.688  16.830  0.00  0.00    +0.000 C 
BRANCH  13  14
ATOM     14  C   UNL     1       6.233   5.900  17.466  0.00  0.00    +0.000 C 
ATOM     15  C   UNL     1       6.626   5.600  18.715  0.00  0.00    +0.000 C 
BRANCH  15  16
ATOM     16  C   UNL     1       8.016   5.815  19.215  0.00  0.00    +0.000 C 
BRANCH  16  17
ATOM     17  O   UNL     1       8.071   5.445  20.582  0.00  0.00    +0.000 OA
ATOM     18  H   UNL     1       7.837   4.502  20.624  0.00  0.00    +0.000 HD
ENDBRANCH  16  17
ENDBRANCH  15  16
ENDBRANCH  13  14
ENDBRANCH   9  13
TORSDOF 5
ENDMDL
MODEL 2
REMARK VINA RESULT:      -6.0      2.674      5.134
REMARK  Name = 
REMARK  5 active torsions:
REMARK  status: ('A' for Active; 'I' for Inactive)
REMARK    1  A    between atoms: N_1  and  C_2
REMARK    2  A    between atoms: N_10  and  C_11
REMARK    3  A    between atoms: C_11  and  C_12
REMARK    4  A    between atoms: C_13  and  C_14
REMARK    5  A    between atoms: C_14  and  O_15
REMARK                            x       y       z     vdW  Elec       q    Type
REMARK                         _______ _______ _______ _____ _____    ______ ____
ROOT
ATOM      1  C   UNL     1       6.669   6.400  16.688  0.00  0.00    +0.000 A 
ATOM      2  N   UNL     1       7.369   5.475  16.005  0.00  0.00    +0.000 NA
ATOM      3  C   UNL     1       6.793   4.275  15.784  0.00  0.00    +0.000 A 
ATOM      4  N   UNL     1       5.567   3.855  16.156  0.00  0.00    +0.000 NA
ATOM      5  C   UNL     1       4.895   4.815  16.813  0.00  0.00    +0.000 A 
ATOM      6  C   UNL     1       5.366   6.090  17.105  0.00  0.00    +0.000 A 
ATOM      7  C   UNL     1       4.333   6.769  17.805  0.00  0.00    +0.000 A 
ATOM      8  C   UNL     1       3.276   5.898  17.935  0.00  0.00    +0.000 A 
ATOM      9  N   UNL     1       3.624   4.710  17.329  0.00  0.00    +0.000 N 
ENDROOT
BRANCH   1  10
ATOM     10  N   UNL     1       7.287   7.613  16.951  0.00  0.00    +0.000 N 
ATOM     11  H   UNL     1       8.048   7.522  17.612  0.00  0.00    +0.000 HD
ATOM     12  H   UNL     1       7.417   8.233  16.166  0.00  0.00    +0.000 HD
ENDBRANCH   1  10
BRANCH   9  13
ATOM     13  C   UNL     1       2.791   3.516  17.344  0.00  0.00    +0.000 C 
BRANCH  13  14
ATOM     14  C   UNL     1       1.910   3.338  18.552  0.00  0.00    +0.000 C 
ATOM     15  C   UNL     1       2.256   2.947  19.790  0.00  0.00    +0.000 C 
BRANCH  15  16
ATOM     16  C   UNL     1       1.289   2.855  20.925  0.00  0.00    +0.000 C 
BRANCH  16  17
ATOM     17  O   UNL     1       2.011   2.910  22.143  0.00  0.00    +0.000 OA
ATOM     18  H   UNL     1       1.571   3.577  22.697  0.00  0.00    +0.000 HD
ENDBRANCH  16  17
ENDBRANCH  15  16
ENDBRANCH  13  14
ENDBRANCH   9  13
TORSDOF 5
ENDMDL
MODEL 3
REMARK VINA RESULT:      -5.8      1.198      1.198
REMARK  Name = 
REMARK  5 active torsions:
REMARK  status: ('A' for Active; 'I' for Inactive)
REMARK    1  A    between atoms: N_1  and  C_2
REMARK    2  A    between atoms: N_10  and  C_11
REMARK    3  A    between atoms: C_11  and  C_12
REMARK    4  A    between atoms: C_13  and  C_14
REMARK    5  A    between atoms: C_14  and  O_15
REMARK                            x       y       z     vdW  Elec       q    Type
REMARK                         _______ _______ _______ _____ _____    ______ ____
ROOT
ATOM      1  C   UNL     1       1.438   3.148  19.653  0.00  0.00    +0.000 A 
ATOM      2  N   UNL     1       1.734   2.165  18.784  0.00  0.00    +0.000 NA
ATOM      3  C   UNL     1       2.574   2.446  17.766  0.00  0.00    +0.000 A 
ATOM      4  N   UNL     1       3.189   3.613  17.487  0.00  0.00    +0.000 NA
ATOM      5  C   UNL     1       2.883   4.559  18.390  0.00  0.00    +0.000 A 
ATOM      6  C   UNL     1       2.039   4.404  19.484  0.00  0.00    +0.000 A 
ATOM      7  C   UNL     1       2.004   5.649  20.168  0.00  0.00    +0.000 A 
ATOM      8  C   UNL     1       2.806   6.527  19.474  0.00  0.00    +0.000 A 
ATOM      9  N   UNL     1       3.339   5.857  18.394  0.00  0.00    +0.000 N 
ENDROOT
BRANCH   1  10
ATOM     10  N   UNL     1       0.538   2.863  20.668  0.00  0.00    +0.000 N 
ATOM     11  H   UNL     1       0.716   1.965  21.101  0.00  0.00    +0.000 HD
ATOM     12  H   UNL     1       0.276   3.631  21.269  0.00  0.00    +0.000 HD
ENDBRANCH   1  10
BRANCH   9  13
ATOM     13  C   UNL     1       4.167   6.488  17.376  0.00  0.00    +0.000 C 
BRANCH  13  14
ATOM     14  C   UNL     1       5.652   6.279  17.506  0.00  0.00    +0.000 C 
ATOM     15  C   UNL     1       6.311   5.435  18.318  0.00  0.00    +0.000 C 
BRANCH  15  16
ATOM     16  C   UNL     1       7.797   5.284  18.318  0.00  0.00    +0.000 C 
BRANCH  16  17
ATOM     17  O   UNL     1       8.132   4.079  17.653  0.00  0.00    +0.000 OA
ATOM     18  H   UNL     1       9.063   4.158  17.386  0.00  0.00    +0.000 HD
ENDBRANCH  16  17
ENDBRANCH  15  16
ENDBRANCH  13  14
ENDBRANCH   9  13
TORSDOF 5
ENDMDL
MODEL 4
REMARK VINA RESULT:      -5.8      1.057      1.107
REMARK  Name = 
REMARK  5 active torsions:
REMARK  status: ('A' for Active; 'I' for Inactive)
REMARK    1  A    between atoms: N_1  and  C_2
REMARK    2  A    between atoms: N_10  and  C_11
REMARK    3  A    between atoms: C_11  and  C_12
REMARK    4  A    between atoms: C_13  and  C_14
REMARK    5  A    between atoms: C_14  and  O_15
REMARK                            x       y       z     vdW  Elec       q    Type
REMARK                         _______ _______ _______ _____ _____    ______ ____
ROOT
ATOM      1  C   UNL     1       1.742   3.256  19.516  0.00  0.00    +0.000 A 
ATOM      2  N   UNL     1       2.144   1.997  19.265  0.00  0.00    +0.000 NA
ATOM      3  C   UNL     1       3.147   1.813  18.381  0.00  0.00    +0.000 A 
ATOM      4  N   UNL     1       3.836   2.744  17.693  0.00  0.00    +0.000 NA
ATOM      5  C   UNL     1       3.419   3.987  17.990  0.00  0.00    +0.000 A 
ATOM      6  C   UNL     1       2.403   4.317  18.880  0.00  0.00    +0.000 A 
ATOM      7  C   UNL     1       2.298   5.733  18.890  0.00  0.00    +0.000 A 
ATOM      8  C   UNL     1       3.230   6.226  18.005  0.00  0.00    +0.000 A 
ATOM      9  N   UNL     1       3.909   5.158  17.461  0.00  0.00    +0.000 N 
ENDROOT
BRANCH   1  10
ATOM     10  N   UNL     1       0.680   3.432  20.390  0.00  0.00    +0.000 N 
ATOM     11  H   UNL     1       0.937   3.971  21.207  0.00  0.00    +0.000 HD
ATOM     12  H   UNL     1      -0.222   3.611  19.973  0.00  0.00    +0.000 HD
ENDBRANCH   1  10
BRANCH   9  13
ATOM     13  C   UNL     1       4.912   5.282  16.413  0.00  0.00    +0.000 C 
BRANCH  13  14
ATOM     14  C   UNL     1       5.926   6.381  16.592  0.00  0.00    +0.000 C 
ATOM     15  C   UNL     1       6.774   6.578  17.615  0.00  0.00    +0.000 C 
BRANCH  15  16
ATOM     16  C   UNL     1       7.774   7.687  17.653  0.00  0.00    +0.000 C 
BRANCH  16  17
ATOM     17  O   UNL     1       8.518   7.587  18.855  0.00  0.00    +0.000 OA
ATOM     18  H   UNL     1       8.576   8.485  19.222  0.00  0.00    +0.000 HD
ENDBRANCH  16  17
ENDBRANCH  15  16
ENDBRANCH  13  14
ENDBRANCH   9  13
TORSDOF 5
ENDMDL
MODEL 5
REMARK VINA RESULT:      -5.8      3.025      5.236
REMARK  Name = 
REMARK  5 active torsions:
REMARK  status: ('A' for Active; 'I' for Inactive)
REMARK    1  A    between atoms: N_1  and  C_2
REMARK    2  A    between atoms: N_10  and  C_11
REMARK    3  A    between atoms: C_11  and  C_12
REMARK    4  A    between atoms: C_13  and  C_14
REMARK    5  A    between atoms: C_14  and  O_15
REMARK                            x       y       z     vdW  Elec       q    Type
REMARK                         _______ _______ _______ _____ _____    ______ ____
ROOT
ATOM      1  C   UNL     1       6.275   4.537  15.671  0.00  0.00    +0.000 A 
ATOM      2  N   UNL     1       7.241   5.443  15.907  0.00  0.00    +0.000 NA
ATOM      3  C   UNL     1       7.092   6.273  16.960  0.00  0.00    +0.000 A 
ATOM      4  N   UNL     1       6.080   6.324  17.849  0.00  0.00    +0.000 NA
ATOM      5  C   UNL     1       5.150   5.390  17.590  0.00  0.00    +0.000 A 
ATOM      6  C   UNL     1       5.180   4.473  16.545  0.00  0.00    +0.000 A 
ATOM      7  C   UNL     1       4.006   3.679  16.650  0.00  0.00    +0.000 A 
ATOM      8  C   UNL     1       3.291   4.135  17.733  0.00  0.00    +0.000 A 
ATOM      9  N   UNL     1       3.992   5.176  18.302  0.00  0.00    +0.000 N 
ENDROOT
BRANCH   1  10
ATOM     10  N   UNL     1       6.413   3.720  14.559  0.00  0.00    +0.000 N 
ATOM     11  H   UNL     1       6.843   2.832  14.784  0.00  0.00    +0.000 HD
ATOM     12  H   UNL     1       5.647   3.718  13.902  0.00  0.00    +0.000 HD
ENDBRANCH   1  10
BRANCH   9  13
ATOM     13  C   UNL     1       3.502   5.971  19.418  0.00  0.00    +0.000 C 
BRANCH  13  14
ATOM     14  C   UNL     1       2.543   7.080  19.072  0.00  0.00    +0.000 C 
ATOM     15  C   UNL     1       2.544   7.880  17.993  0.00  0.00    +0.000 C 
BRANCH  15  16
ATOM     16  C   UNL     1       1.502   8.919  17.737  0.00  0.00    +0.000 C 
BRANCH  16  17
ATOM     17  O   UNL     1       2.145  10.147  17.444  0.00  0.00    +0.000 OA
ATOM     18  H   UNL     1       2.393  10.113  16.504  0.00  0.00    +0.000 HD
ENDBRANCH  16  17
ENDBRANCH  15  16
ENDBRANCH  13  14
ENDBRANCH   9  13
TORSDOF 5
ENDMDL
MODEL 6
REMARK VINA RESULT:      -5.8      1.120      2.297
REMARK  Name = 
REMARK  5 active torsions:
REMARK  status: ('A' for Active; 'I' for Inactive)
REMARK    1  A    between atoms: N_1  and  C_2
REMARK    2  A    between atoms: N_10  and  C_11
REMARK    3  A    between atoms: C_11  and  C_12
REMARK    4  A    between atoms: C_13  and  C_14
REMARK    5  A    between atoms: C_14  and  O_15
REMARK                            x       y       z     vdW  Elec       q    Type
REMARK                         _______ _______ _______ _____ _____    ______ ____
ROOT
ATOM      1  C   UNL     1       1.598   3.971  20.340  0.00  0.00    +0.000 A 
ATOM      2  N   UNL     1       1.370   5.218  20.793  0.00  0.00    +0.000 NA
ATOM      3  C   UNL     1       1.998   6.243  20.181  0.00  0.00    +0.000 A 
ATOM      4  N   UNL     1       2.848   6.199  19.136  0.00  0.00    +0.000 NA
ATOM      5  C   UNL     1       3.030   4.941  18.701  0.00  0.00    +0.000 A 
ATOM      6  C   UNL     1       2.445   3.798  19.235  0.00  0.00    +0.000 A 
ATOM      7  C   UNL     1       2.910   2.694  18.472  0.00  0.00    +0.000 A 
ATOM      8  C   UNL     1       3.768   3.182  17.513  0.00  0.00    +0.000 A 
ATOM      9  N   UNL     1       3.836   4.550  17.657  0.00  0.00    +0.000 N 
ENDROOT
BRANCH   1  10
ATOM     10  N   UNL     1       0.986   2.920  21.005  0.00  0.00    +0.000 N 
ATOM     11  H   UNL     1       0.245   2.498  20.459  0.00  0.00    +0.000 HD
ATOM     12  H   UNL     1       1.590   2.306  21.532  0.00  0.00    +0.000 HD
ENDBRANCH   1  10
BRANCH   9  13
ATOM     13  C   UNL     1       4.717   5.406  16.876  0.00  0.00    +0.000 C 
BRANCH  13  14
ATOM     14  C   UNL     1       5.986   5.849  17.555  0.00  0.00    +0.000 C 
ATOM     15  C   UNL     1       6.553   5.359  18.670  0.00  0.00    +0.000 C 
BRANCH  15  16
ATOM     16  C   UNL     1       7.849   5.856  19.221  0.00  0.00    +0.000 C 
BRANCH  16  17
ATOM     17  O   UNL     1       8.001   5.364  20.540  0.00  0.00    +0.000 OA
ATOM     18  H   UNL     1       8.573   4.580  20.481  0.00  0.00    +0.000 HD
ENDBRANCH  16  17
ENDBRANCH  15  16
ENDBRANCH  13  14
ENDBRANCH   9  13
TORSDOF 5
ENDMDL
MODEL 7
REMARK VINA RESULT:      -5.7      2.979      5.542
REMARK  Name = 
REMARK  5 active torsions:
REMARK  status: ('A' for Active; 'I' for Inactive)
REMARK    1  A    between atoms: N_1  and  C_2
REMARK    2  A    between atoms: N_10  and  C_11
REMARK    3  A    between atoms: C_11  and  C_12
REMARK    4  A    between atoms: C_13  and  C_14
REMARK    5  A    between atoms: C_14  and  O_15
REMARK                            x       y       z     vdW  Elec       q    Type
REMARK                         _______ _______ _______ _____ _____    ______ ____
ROOT
ATOM      1  C   UNL     1       7.369   6.901  17.704  0.00  0.00    +0.000 A 
ATOM      2  N   UNL     1       8.006   6.620  18.856  0.00  0.00    +0.000 NA
ATOM      3  C   UNL     1       7.585   5.559  19.575  0.00  0.00    +0.000 A 
ATOM      4  N   UNL     1       6.585   4.701  19.292  0.00  0.00    +0.000 NA
ATOM      5  C   UNL     1       5.991   5.003  18.125  0.00  0.00    +0.000 A 
ATOM      6  C   UNL     1       6.326   6.061  17.287  0.00  0.00    +0.000 A 
ATOM      7  C   UNL     1       5.449   6.005  16.171  0.00  0.00    +0.000 A 
ATOM      8  C   UNL     1       4.602   4.937  16.359  0.00  0.00    +0.000 A 
ATOM      9  N   UNL     1       4.938   4.331  17.551  0.00  0.00    +0.000 N 
ENDROOT
BRANCH   1  10
ATOM     10  N   UNL     1       7.777   8.021  16.996  0.00  0.00    +0.000 N 
ATOM     11  H   UNL     1       7.352   8.872  17.341  0.00  0.00    +0.000 HD
ATOM     12  H   UNL     1       8.750   8.056  16.730  0.00  0.00    +0.000 HD
ENDBRANCH   1  10
BRANCH   9  13
ATOM     13  C   UNL     1       4.201   3.218  18.131  0.00  0.00    +0.000 C 
BRANCH  13  14
ATOM     14  C   UNL     1       2.876   3.555  18.761  0.00  0.00    +0.000 C 
ATOM     15  C   UNL     1       2.629   3.993  20.007  0.00  0.00    +0.000 C 
BRANCH  15  16
ATOM     16  C   UNL     1       1.264   4.343  20.502  0.00  0.00    +0.000 C 
BRANCH  16  17
ATOM     17  O   UNL     1       0.471   3.169  20.518  0.00  0.00    +0.000 OA
ATOM     18  H   UNL     1       0.837   2.576  19.840  0.00  0.00    +0.000 HD
ENDBRANCH  16  17
ENDBRANCH  15  16
ENDBRANCH  13  14
ENDBRANCH   9  13
TORSDOF 5
ENDMDL
MODEL 8
REMARK VINA RESULT:      -5.7      3.043      5.485
REMARK  Name = 
REMARK  5 active torsions:
REMARK  status: ('A' for Active; 'I' for Inactive)
REMARK    1  A    between atoms: N_1  and  C_2
REMARK    2  A    between atoms: N_10  and  C_11
REMARK    3  A    between atoms: C_11  and  C_12
REMARK    4  A    between atoms: C_13  and  C_14
REMARK    5  A    between atoms: C_14  and  O_15
REMARK                            x       y       z     vdW  Elec       q    Type
REMARK                         _______ _______ _______ _____ _____    ______ ____
ROOT
ATOM      1  C   UNL     1       6.576   4.989  15.574  0.00  0.00    +0.000 A 
ATOM      2  N   UNL     1       7.474   5.902  15.988  0.00  0.00    +0.000 NA
ATOM      3  C   UNL     1       7.299   6.463  17.203  0.00  0.00    +0.000 A 
ATOM      4  N   UNL     1       6.322   6.226  18.100  0.00  0.00    +0.000 NA
ATOM      5  C   UNL     1       5.461   5.293  17.657  0.00  0.00    +0.000 A 
ATOM      6  C   UNL     1       5.525   4.636  16.433  0.00  0.00    +0.000 A 
ATOM      7  C   UNL     1       4.426   3.738  16.381  0.00  0.00    +0.000 A 
ATOM      8  C   UNL     1       3.718   3.878  17.553  0.00  0.00    +0.000 A 
ATOM      9  N   UNL     1       4.354   4.826  18.326  0.00  0.00    +0.000 N 
ENDROOT
BRANCH   1  10
ATOM     10  N   UNL     1       6.738   4.454  14.306  0.00  0.00    +0.000 N 
ATOM     11  H   UNL     1       7.193   5.097  13.670  0.00  0.00    +0.000 HD
ATOM     12  H   UNL     1       7.000   3.480  14.256  0.00  0.00    +0.000 HD
ENDBRANCH   1  10
BRANCH   9  13
ATOM     13  C   UNL     1       3.843   5.309  19.601  0.00  0.00    +0.000 C 
BRANCH  13  14
ATOM     14  C   UNL     1       2.662   4.567  20.166  0.00  0.00    +0.000 C 
ATOM     15  C   UNL     1       2.656   3.485  20.962  0.00  0.00    +0.000 C 
BRANCH  15  16
ATOM     16  C   UNL     1       1.408   2.866  21.501  0.00  0.00    +0.000 C 
BRANCH  16  17
ATOM     17  O   UNL     1       0.388   2.973  20.524  0.00  0.00    +0.000 OA
ATOM     18  H   UNL     1       0.833   3.098  19.669  0.00  0.00    +0.000 HD
ENDBRANCH  16  17
ENDBRANCH  15  16
ENDBRANCH  13  14
ENDBRANCH   9  13
TORSDOF 5
ENDMDL
MODEL 9
REMARK VINA RESULT:      -5.7      2.995      5.432
REMARK  Name = 
REMARK  5 active torsions:
REMARK  status: ('A' for Active; 'I' for Inactive)
REMARK    1  A    between atoms: N_1  and  C_2
REMARK    2  A    between atoms: N_10  and  C_11
REMARK    3  A    between atoms: C_11  and  C_12
REMARK    4  A    between atoms: C_13  and  C_14
REMARK    5  A    between atoms: C_14  and  O_15
REMARK                            x       y       z     vdW  Elec       q    Type
REMARK                         _______ _______ _______ _____ _____    ______ ____
ROOT
ATOM      1  C   UNL     1       7.008   6.039  16.580  0.00  0.00    +0.000 A 
ATOM      2  N   UNL     1       7.251   5.408  15.416  0.00  0.00    +0.000 NA
ATOM      3  C   UNL     1       6.581   4.265  15.159  0.00  0.00    +0.000 A 
ATOM      4  N   UNL     1       5.663   3.644  15.926  0.00  0.00    +0.000 NA
ATOM      5  C   UNL     1       5.435   4.317  17.066  0.00  0.00    +0.000 A 
ATOM      6  C   UNL     1       6.050   5.503  17.453  0.00  0.00    +0.000 A 
ATOM      7  C   UNL     1       5.513   5.861  18.718  0.00  0.00    +0.000 A 
ATOM      8  C   UNL     1       4.606   4.890  19.075  0.00  0.00    +0.000 A 
ATOM      9  N   UNL     1       4.563   3.953  18.065  0.00  0.00    +0.000 N 
ENDROOT
BRANCH   1  10
ATOM     10  N   UNL     1       7.735   7.187  16.856  0.00  0.00    +0.000 N 
ATOM     11  H   UNL     1       7.549   7.548  17.783  0.00  0.00    +0.000 HD
ATOM     12  H   UNL     1       8.689   7.207  16.527  0.00  0.00    +0.000 HD
ENDBRANCH   1  10
BRANCH   9  13
ATOM     13  C   UNL     1       3.781   2.726  18.129  0.00  0.00    +0.000 C 
BRANCH  13  14
ATOM     14  C   UNL     1       2.616   2.731  19.082  0.00  0.00    +0.000 C 
ATOM     15  C   UNL     1       2.625   2.572  20.416  0.00  0.00    +0.000 C 
BRANCH  15  16
ATOM     16  C   UNL     1       1.396   2.646  21.262  0.00  0.00    +0.000 C 
BRANCH  16  17
ATOM     17  O   UNL     1       0.336   3.167  20.481  0.00  0.00    +0.000 OA
ATOM     18  H   UNL     1       0.536   4.107  20.331  0.00  0.00    +0.000 HD
ENDBRANCH  16  17
ENDBRANCH  15  16
ENDBRANCH  13  14
ENDBRANCH   9  13
TORSDOF 5
ENDMDL
