MODEL 1
REMARK VINA RESULT:      -7.4      0.000      0.000
REMARK  Name = 
REMARK  7 active torsions:
REMARK  status: ('A' for Active; 'I' for Inactive)
REMARK    1  A    between atoms: C_1  and  O_2
REMARK    2  A    between atoms: O_2  and  C_3
REMARK    3  A    between atoms: C_6  and  C_7
REMARK    4  A    between atoms: C_10  and  S_11
REMARK    5  A    between atoms: S_11  and  C_12
REMARK    6  A    between atoms: C_12  and  C_13
REMARK    7  A    between atoms: C_13  and  C_15
REMARK                            x       y       z     vdW  Elec       q    Type
REMARK                         _______ _______ _______ _____ _____    ______ ____
ROOT
ATOM      1  C   UNL     1       8.390   9.068  18.277  0.00  0.00    +0.000 A 
ATOM      2  N   UNL     1       7.495   9.045  17.309  0.00  0.00    +0.000 NA
ATOM      3  N   UNL     1       7.095   7.737  17.169  0.00  0.00    +0.000 NA
ATOM      4  C   UNL     1       7.763   7.041  18.067  0.00  0.00    +0.000 A 
ATOM      5  O   UNL     1       8.603   7.824  18.820  0.00  0.00    +0.000 OA
ENDROOT
BRANCH   1   9
ATOM      6  C   UNL     1      10.709  12.385  19.697  0.00  0.00    +0.000 A 
ATOM      7  C   UNL     1      10.580  12.121  18.335  0.00  0.00    +0.000 A 
ATOM      8  C   UNL     1       9.802  11.050  17.892  0.00  0.00    +0.000 A 
ATOM      9  C   UNL     1       9.147  10.202  18.799  0.00  0.00    +0.000 A 
ATOM     10  C   UNL     1       9.284  10.474  20.169  0.00  0.00    +0.000 A 
ATOM     11  C   UNL     1      10.064  11.557  20.615  0.00  0.00    +0.000 A 
BRANCH   6  13
ATOM     12  C   UNL     1      10.885  14.697  20.168  0.00  0.00    +0.000 C 
ATOM     13  O   UNL     1      11.525  13.438  20.005  0.00  0.00    +0.000 OA
ENDBRANCH   6  13
ENDBRANCH   1   9
BRANCH   4  14
ATOM     14  S   UNL     1       7.577   5.327  18.290  0.00  0.00    +0.000 S 
BRANCH  14  15
ATOM     15  C   UNL     1       5.864   5.111  17.687  0.00  0.00    +0.000 C 
BRANCH  15  16
ATOM     16  C   UNL     1       5.061   4.186  18.591  0.00  0.00    +0.000 C 
ATOM     17  O   UNL     1       5.566   3.637  19.575  0.00  0.00    +0.000 OA
BRANCH  16  18
ATOM     18  C   UNL     1       3.642   4.015  18.319  0.00  0.00    +0.000 A 
ATOM     19  C   UNL     1       2.656   4.893  17.900  0.00  0.00    +0.000 A 
ATOM     20  C   UNL     1       1.440   4.168  17.797  0.00  0.00    +0.000 A 
ATOM     21  C   UNL     1       1.706   2.868  18.159  0.00  0.00    +0.000 A 
ATOM     22  N   UNL     1       3.036   2.783  18.464  0.00  0.00    +0.000 N 
ATOM     23  H   UNL     1       3.529   1.949  18.755  0.00  0.00    +0.000 HD
ENDBRANCH  16  18
ENDBRANCH  15  16
ENDBRANCH  14  15
ENDBRANCH   4  14
TORSDOF 6
ENDMDL
MODEL 2
REMARK VINA RESULT:      -7.2      1.506      1.625
REMARK  Name = 
REMARK  7 active torsions:
REMARK  status: ('A' for Active; 'I' for Inactive)
REMARK    1  A    between atoms: C_1  and  O_2
REMARK    2  A    between atoms: O_2  and  C_3
REMARK    3  A    between atoms: C_6  and  C_7
REMARK    4  A    between atoms: C_10  and  S_11
REMARK    5  A    between atoms: S_11  and  C_12
REMARK    6  A    between atoms: C_12  and  C_13
REMARK    7  A    between atoms: C_13  and  C_15
REMARK                            x       y       z     vdW  Elec       q    Type
REMARK                         _______ _______ _______ _____ _____    ______ ____
ROOT
ATOM      1  C   UNL     1       8.101   8.700  18.059  0.00  0.00    +0.000 A 
ATOM      2  N   UNL     1       7.266   8.481  17.061  0.00  0.00    +0.000 NA
ATOM      3  N   UNL     1       7.024   7.128  17.036  0.00  0.00    +0.000 NA
ATOM      4  C   UNL     1       7.718   6.603  18.026  0.00  0.00    +0.000 A 
ATOM      5  O   UNL     1       8.424   7.548  18.731  0.00  0.00    +0.000 OA
ENDROOT
BRANCH   1   9
ATOM      6  C   UNL     1       9.875  12.435  19.199  0.00  0.00    +0.000 A 
ATOM      7  C   UNL     1       9.141  12.312  18.022  0.00  0.00    +0.000 A 
ATOM      8  C   UNL     1       8.551  11.092  17.679  0.00  0.00    +0.000 A 
ATOM      9  C   UNL     1       8.696   9.960  18.495  0.00  0.00    +0.000 A 
ATOM     10  C   UNL     1       9.439  10.093  19.679  0.00  0.00    +0.000 A 
ATOM     11  C   UNL     1      10.028  11.323  20.026  0.00  0.00    +0.000 A 
BRANCH   6  13
ATOM     12  C   UNL     1      10.717  14.426  18.236  0.00  0.00    +0.000 C 
ATOM     13  O   UNL     1      10.430  13.668  19.405  0.00  0.00    +0.000 OA
ENDBRANCH   6  13
ENDBRANCH   1   9
BRANCH   4  14
ATOM     14  S   UNL     1       7.716   4.908  18.411  0.00  0.00    +0.000 S 
BRANCH  14  15
ATOM     15  C   UNL     1       6.106   4.420  17.693  0.00  0.00    +0.000 C 
BRANCH  15  16
ATOM     16  C   UNL     1       5.015   4.349  18.752  0.00  0.00    +0.000 C 
ATOM     17  O   UNL     1       4.995   3.458  19.607  0.00  0.00    +0.000 OA
BRANCH  16  18
ATOM     18  C   UNL     1       4.019   5.408  18.791  0.00  0.00    +0.000 A 
ATOM     19  C   UNL     1       3.546   6.285  17.829  0.00  0.00    +0.000 A 
ATOM     20  C   UNL     1       2.562   7.110  18.435  0.00  0.00    +0.000 A 
ATOM     21  C   UNL     1       2.458   6.725  19.751  0.00  0.00    +0.000 A 
ATOM     22  N   UNL     1       3.334   5.694  19.955  0.00  0.00    +0.000 N 
ATOM     23  H   UNL     1       3.477   5.196  20.825  0.00  0.00    +0.000 HD
ENDBRANCH  16  18
ENDBRANCH  15  16
ENDBRANCH  14  15
ENDBRANCH   4  14
TORSDOF 6
ENDMDL
MODEL 3
REMARK VINA RESULT:      -7.2      4.177      7.329
REMARK  Name = 
REMARK  7 active torsions:
REMARK  status: ('A' for Active; 'I' for Inactive)
REMARK    1  A    between atoms: C_1  and  O_2
REMARK    2  A    between atoms: O_2  and  C_3
REMARK    3  A    between atoms: C_6  and  C_7
REMARK    4  A    between atoms: C_10  and  S_11
REMARK    5  A    between atoms: S_11  and  C_12
REMARK    6  A    between atoms: C_12  and  C_13
REMARK    7  A    between atoms: C_13  and  C_15
REMARK                            x       y       z     vdW  Elec       q    Type
REMARK                         _______ _______ _______ _____ _____    ______ ____
ROOT
ATOM      1  C   UNL     1       2.873   6.317  19.079  0.00  0.00    +0.000 A 
ATOM      2  N   UNL     1       3.116   5.428  20.022  0.00  0.00    +0.000 NA
ATOM      3  N   UNL     1       3.742   4.366  19.413  0.00  0.00    +0.000 NA
ATOM      4  C   UNL     1       3.851   4.674  18.136  0.00  0.00    +0.000 A 
ATOM      5  O   UNL     1       3.326   5.911  17.848  0.00  0.00    +0.000 OA
ENDROOT
BRANCH   1   9
ATOM      6  C   UNL     1       0.801  10.049  19.501  0.00  0.00    +0.000 A 
ATOM      7  C   UNL     1       0.937   9.171  20.574  0.00  0.00    +0.000 A 
ATOM      8  C   UNL     1       1.635   7.970  20.422  0.00  0.00    +0.000 A 
ATOM      9  C   UNL     1       2.200   7.608  19.189  0.00  0.00    +0.000 A 
ATOM     10  C   UNL     1       2.055   8.498  18.113  0.00  0.00    +0.000 A 
ATOM     11  C   UNL     1       1.357   9.710  18.268  0.00  0.00    +0.000 A 
BRANCH   6  13
ATOM     12  C   UNL     1      -0.352  11.341  21.114  0.00  0.00    +0.000 C 
ATOM     13  O   UNL     1       0.067  11.172  19.765  0.00  0.00    +0.000 OA
ENDBRANCH   6  13
ENDBRANCH   1   9
BRANCH   4  14
ATOM     14  S   UNL     1       4.601   3.642  16.956  0.00  0.00    +0.000 S 
BRANCH  14  15
ATOM     15  C   UNL     1       5.170   4.895  15.752  0.00  0.00    +0.000 C 
BRANCH  15  16
ATOM     16  C   UNL     1       6.674   5.114  15.833  0.00  0.00    +0.000 C 
ATOM     17  O   UNL     1       7.443   4.675  14.973  0.00  0.00    +0.000 OA
BRANCH  16  18
ATOM     18  C   UNL     1       7.196   5.929  16.919  0.00  0.00    +0.000 A 
ATOM     19  C   UNL     1       7.598   5.625  18.209  0.00  0.00    +0.000 A 
ATOM     20  C   UNL     1       8.026   6.828  18.829  0.00  0.00    +0.000 A 
ATOM     21  C   UNL     1       7.874   7.840  17.910  0.00  0.00    +0.000 A 
ATOM     22  N   UNL     1       7.381   7.288  16.760  0.00  0.00    +0.000 N 
ATOM     23  H   UNL     1       7.174   7.783  15.901  0.00  0.00    +0.000 HD
ENDBRANCH  16  18
ENDBRANCH  15  16
ENDBRANCH  14  15
ENDBRANCH   4  14
TORSDOF 6
ENDMDL
MODEL 4
REMARK VINA RESULT:      -7.2      1.113      1.195
REMARK  Name = 
REMARK  7 active torsions:
REMARK  status: ('A' for Active; 'I' for Inactive)
REMARK    1  A    between atoms: C_1  and  O_2
REMARK    2  A    between atoms: O_2  and  C_3
REMARK    3  A    between atoms: C_6  and  C_7
REMARK    4  A    between atoms: C_10  and  S_11
REMARK    5  A    between atoms: S_11  and  C_12
REMARK    6  A    between atoms: C_12  and  C_13
REMARK    7  A    between atoms: C_13  and  C_15
REMARK                            x       y       z     vdW  Elec       q    Type
REMARK                         _______ _______ _______ _____ _____    ______ ____
ROOT
ATOM      1  C   UNL     1       8.260   9.088  18.170  0.00  0.00    +0.000 A 
ATOM      2  N   UNL     1       7.445   8.917  17.148  0.00  0.00    +0.000 NA
ATOM      3  N   UNL     1       7.136   7.578  17.106  0.00  0.00    +0.000 NA
ATOM      4  C   UNL     1       7.773   7.013  18.112  0.00  0.00    +0.000 A 
ATOM      5  O   UNL     1       8.505   7.916  18.844  0.00  0.00    +0.000 OA
ENDROOT
BRANCH   1   9
ATOM      6  C   UNL     1      10.192  12.719  19.389  0.00  0.00    +0.000 A 
ATOM      7  C   UNL     1       9.538  12.622  18.162  0.00  0.00    +0.000 A 
ATOM      8  C   UNL     1       8.895  11.438  17.793  0.00  0.00    +0.000 A 
ATOM      9  C   UNL     1       8.905  10.313  18.633  0.00  0.00    +0.000 A 
ATOM     10  C   UNL     1       9.568  10.419  19.866  0.00  0.00    +0.000 A 
ATOM     11  C   UNL     1      10.210  11.613  20.239  0.00  0.00    +0.000 A 
BRANCH   6  13
ATOM     12  C   UNL     1      10.549  14.524  20.876  0.00  0.00    +0.000 C 
ATOM     13  O   UNL     1      10.812  13.915  19.618  0.00  0.00    +0.000 OA
ENDBRANCH   6  13
ENDBRANCH   1   9
BRANCH   4  14
ATOM     14  S   UNL     1       7.675   5.318  18.485  0.00  0.00    +0.000 S 
BRANCH  14  15
ATOM     15  C   UNL     1       5.866   5.141  18.688  0.00  0.00    +0.000 C 
BRANCH  15  16
ATOM     16  C   UNL     1       5.231   4.436  17.499  0.00  0.00    +0.000 C 
ATOM     17  O   UNL     1       5.657   4.586  16.349  0.00  0.00    +0.000 OA
BRANCH  16  18
ATOM     18  C   UNL     1       4.142   3.504  17.748  0.00  0.00    +0.000 A 
ATOM     19  C   UNL     1       2.800   3.519  17.407  0.00  0.00    +0.000 A 
ATOM     20  C   UNL     1       2.206   2.334  17.916  0.00  0.00    +0.000 A 
ATOM     21  C   UNL     1       3.193   1.624  18.560  0.00  0.00    +0.000 A 
ATOM     22  N   UNL     1       4.357   2.333  18.447  0.00  0.00    +0.000 N 
ATOM     23  H   UNL     1       5.260   2.059  18.813  0.00  0.00    +0.000 HD
ENDBRANCH  16  18
ENDBRANCH  15  16
ENDBRANCH  14  15
ENDBRANCH   4  14
TORSDOF 6
ENDMDL
MODEL 5
REMARK VINA RESULT:      -7.2      6.007      6.822
REMARK  Name = 
REMARK  7 active torsions:
REMARK  status: ('A' for Active; 'I' for Inactive)
REMARK    1  A    between atoms: C_1  and  O_2
REMARK    2  A    between atoms: O_2  and  C_3
REMARK    3  A    between atoms: C_6  and  C_7
REMARK    4  A    between atoms: C_10  and  S_11
REMARK    5  A    between atoms: S_11  and  C_12
REMARK    6  A    between atoms: C_12  and  C_13
REMARK    7  A    between atoms: C_13  and  C_15
REMARK                            x       y       z     vdW  Elec       q    Type
REMARK                         _______ _______ _______ _____ _____    ______ ____
ROOT
ATOM      1  C   UNL     1       2.756   7.568  18.434  0.00  0.00    +0.000 A 
ATOM      2  N   UNL     1       3.401   8.031  17.381  0.00  0.00    +0.000 NA
ATOM      3  N   UNL     1       4.169   6.997  16.900  0.00  0.00    +0.000 NA
ATOM      4  C   UNL     1       3.940   5.962  17.683  0.00  0.00    +0.000 A 
ATOM      5  O   UNL     1       3.040   6.247  18.681  0.00  0.00    +0.000 OA
ENDROOT
BRANCH   1   9
ATOM      6  C   UNL     1       0.097   9.753  20.995  0.00  0.00    +0.000 A 
ATOM      7  C   UNL     1       0.397  10.201  19.711  0.00  0.00    +0.000 A 
ATOM      8  C   UNL     1       1.247   9.463  18.883  0.00  0.00    +0.000 A 
ATOM      9  C   UNL     1       1.835   8.267  19.326  0.00  0.00    +0.000 A 
ATOM     10  C   UNL     1       1.529   7.825  20.622  0.00  0.00    +0.000 A 
ATOM     11  C   UNL     1       0.669   8.565  21.453  0.00  0.00    +0.000 A 
BRANCH   6  13
ATOM     12  C   UNL     1      -0.856  10.268  23.099  0.00  0.00    +0.000 C 
ATOM     13  O   UNL     1      -0.717  10.580  21.719  0.00  0.00    +0.000 OA
ENDBRANCH   6  13
ENDBRANCH   1   9
BRANCH   4  14
ATOM     14  S   UNL     1       4.674   4.403  17.458  0.00  0.00    +0.000 S 
BRANCH  14  15
ATOM     15  C   UNL     1       5.210   4.052  19.171  0.00  0.00    +0.000 C 
BRANCH  15  16
ATOM     16  C   UNL     1       4.426   2.899  19.782  0.00  0.00    +0.000 C 
ATOM     17  O   UNL     1       4.985   1.882  20.202  0.00  0.00    +0.000 OA
BRANCH  16  18
ATOM     18  C   UNL     1       2.987   3.048  19.939  0.00  0.00    +0.000 A 
ATOM     19  C   UNL     1       1.915   2.279  19.517  0.00  0.00    +0.000 A 
ATOM     20  C   UNL     1       0.723   2.910  19.962  0.00  0.00    +0.000 A 
ATOM     21  C   UNL     1       1.090   4.050  20.639  0.00  0.00    +0.000 A 
ATOM     22  N   UNL     1       2.456   4.121  20.627  0.00  0.00    +0.000 N 
ATOM     23  H   UNL     1       3.020   4.845  21.054  0.00  0.00    +0.000 HD
ENDBRANCH  16  18
ENDBRANCH  15  16
ENDBRANCH  14  15
ENDBRANCH   4  14
TORSDOF 6
ENDMDL
MODEL 6
REMARK VINA RESULT:      -7.2      3.967      7.266
REMARK  Name = 
REMARK  7 active torsions:
REMARK  status: ('A' for Active; 'I' for Inactive)
REMARK    1  A    between atoms: C_1  and  O_2
REMARK    2  A    between atoms: O_2  and  C_3
REMARK    3  A    between atoms: C_6  and  C_7
REMARK    4  A    between atoms: C_10  and  S_11
REMARK    5  A    between atoms: S_11  and  C_12
REMARK    6  A    between atoms: C_12  and  C_13
REMARK    7  A    between atoms: C_13  and  C_15
REMARK                            x       y       z     vdW  Elec       q    Type
REMARK                         _______ _______ _______ _____ _____    ______ ____
ROOT
ATOM      1  C   UNL     1       3.148   6.232  18.900  0.00  0.00    +0.000 A 
ATOM      2  N   UNL     1       3.845   5.541  19.782  0.00  0.00    +0.000 NA
ATOM      3  N   UNL     1       4.422   4.496  19.100  0.00  0.00    +0.000 NA
ATOM      4  C   UNL     1       4.051   4.616  17.842  0.00  0.00    +0.000 A 
ATOM      5  O   UNL     1       3.243   5.708  17.634  0.00  0.00    +0.000 OA
ENDROOT
BRANCH   1   9
ATOM      6  C   UNL     1       0.802   9.786  19.415  0.00  0.00    +0.000 A 
ATOM      7  C   UNL     1       1.318   9.432  18.170  0.00  0.00    +0.000 A 
ATOM      8  C   UNL     1       2.060   8.259  18.018  0.00  0.00    +0.000 A 
ATOM      9  C   UNL     1       2.323   7.417  19.111  0.00  0.00    +0.000 A 
ATOM     10  C   UNL     1       1.801   7.783  20.362  0.00  0.00    +0.000 A 
ATOM     11  C   UNL     1       1.049   8.962  20.513  0.00  0.00    +0.000 A 
BRANCH   6  13
ATOM     12  C   UNL     1      -0.406  11.361  20.703  0.00  0.00    +0.000 C 
ATOM     13  O   UNL     1       0.125  10.973  19.442  0.00  0.00    +0.000 OA
ENDBRANCH   6  13
ENDBRANCH   1   9
BRANCH   4  14
ATOM     14  S   UNL     1       4.552   3.530  16.581  0.00  0.00    +0.000 S 
BRANCH  14  15
ATOM     15  C   UNL     1       6.263   4.117  16.315  0.00  0.00    +0.000 C 
BRANCH  15  16
ATOM     16  C   UNL     1       6.321   5.629  16.150  0.00  0.00    +0.000 C 
ATOM     17  O   UNL     1       5.694   6.212  15.259  0.00  0.00    +0.000 OA
BRANCH  16  18
ATOM     18  C   UNL     1       7.078   6.402  17.122  0.00  0.00    +0.000 A 
ATOM     19  C   UNL     1       7.612   6.085  18.360  0.00  0.00    +0.000 A 
ATOM     20  C   UNL     1       8.260   7.243  18.866  0.00  0.00    +0.000 A 
ATOM     21  C   UNL     1       8.106   8.241  17.932  0.00  0.00    +0.000 A 
ATOM     22  N   UNL     1       7.399   7.724  16.882  0.00  0.00    +0.000 N 
ATOM     23  H   UNL     1       7.137   8.218  16.038  0.00  0.00    +0.000 HD
ENDBRANCH  16  18
ENDBRANCH  15  16
ENDBRANCH  14  15
ENDBRANCH   4  14
TORSDOF 6
ENDMDL
MODEL 7
REMARK VINA RESULT:      -7.1      6.029      7.359
REMARK  Name = 
REMARK  7 active torsions:
REMARK  status: ('A' for Active; 'I' for Inactive)
REMARK    1  A    between atoms: C_1  and  O_2
REMARK    2  A    between atoms: O_2  and  C_3
REMARK    3  A    between atoms: C_6  and  C_7
REMARK    4  A    between atoms: C_10  and  S_11
REMARK    5  A    between atoms: S_11  and  C_12
REMARK    6  A    between atoms: C_12  and  C_13
REMARK    7  A    between atoms: C_13  and  C_15
REMARK                            x       y       z     vdW  Elec       q    Type
REMARK                         _______ _______ _______ _____ _____    ______ ____
ROOT
ATOM      1  C   UNL     1       1.639   8.764  19.186  0.00  0.00    +0.000 A 
ATOM      2  N   UNL     1       1.714   9.235  17.956  0.00  0.00    +0.000 NA
ATOM      3  N   UNL     1       2.534   8.383  17.255  0.00  0.00    +0.000 NA
ATOM      4  C   UNL     1       2.903   7.438  18.095  0.00  0.00    +0.000 A 
ATOM      5  O   UNL     1       2.363   7.608  19.347  0.00  0.00    +0.000 OA
ENDROOT
BRANCH   1   9
ATOM      6  C   UNL     1      -0.445  10.509  22.504  0.00  0.00    +0.000 A 
ATOM      7  C   UNL     1      -0.524  11.061  21.227  0.00  0.00    +0.000 A 
ATOM      8  C   UNL     1       0.144  10.465  20.155  0.00  0.00    +0.000 A 
ATOM      9  C   UNL     1       0.923   9.311  20.334  0.00  0.00    +0.000 A 
ATOM     10  C   UNL     1       0.999   8.763  21.625  0.00  0.00    +0.000 A 
ATOM     11  C   UNL     1       0.322   9.361  22.703  0.00  0.00    +0.000 A 
BRANCH   6  13
ATOM     12  C   UNL     1      -2.310  11.852  23.067  0.00  0.00    +0.000 C 
ATOM     13  O   UNL     1      -1.112  11.203  23.475  0.00  0.00    +0.000 OA
ENDBRANCH   6  13
ENDBRANCH   1   9
BRANCH   4  14
ATOM     14  S   UNL     1       3.935   6.109  17.659  0.00  0.00    +0.000 S 
BRANCH  14  15
ATOM     15  C   UNL     1       4.342   5.462  19.320  0.00  0.00    +0.000 C 
BRANCH  15  16
ATOM     16  C   UNL     1       4.199   3.948  19.386  0.00  0.00    +0.000 C 
ATOM     17  O   UNL     1       5.168   3.211  19.597  0.00  0.00    +0.000 OA
BRANCH  16  18
ATOM     18  C   UNL     1       2.868   3.374  19.273  0.00  0.00    +0.000 A 
ATOM     19  C   UNL     1       2.337   2.394  18.450  0.00  0.00    +0.000 A 
ATOM     20  C   UNL     1       0.967   2.236  18.786  0.00  0.00    +0.000 A 
ATOM     21  C   UNL     1       0.688   3.122  19.800  0.00  0.00    +0.000 A 
ATOM     22  N   UNL     1       1.840   3.798  20.092  0.00  0.00    +0.000 N 
ATOM     23  H   UNL     1       1.950   4.510  20.803  0.00  0.00    +0.000 HD
ENDBRANCH  16  18
ENDBRANCH  15  16
ENDBRANCH  14  15
ENDBRANCH   4  14
TORSDOF 6
ENDMDL
MODEL 8
REMARK VINA RESULT:      -7.1      1.699      2.469
REMARK  Name = 
REMARK  7 active torsions:
REMARK  status: ('A' for Active; 'I' for Inactive)
REMARK    1  A    between atoms: C_1  and  O_2
REMARK    2  A    between atoms: O_2  and  C_3
REMARK    3  A    between atoms: C_6  and  C_7
REMARK    4  A    between atoms: C_10  and  S_11
REMARK    5  A    between atoms: S_11  and  C_12
REMARK    6  A    between atoms: C_12  and  C_13
REMARK    7  A    between atoms: C_13  and  C_15
REMARK                            x       y       z     vdW  Elec       q    Type
REMARK                         _______ _______ _______ _____ _____    ______ ____
ROOT
ATOM      1  C   UNL     1       8.524   9.166  18.328  0.00  0.00    +0.000 A 
ATOM      2  N   UNL     1       7.694   9.013  17.314  0.00  0.00    +0.000 NA
ATOM      3  N   UNL     1       7.316   7.691  17.308  0.00  0.00    +0.000 NA
ATOM      4  C   UNL     1       7.931   7.119  18.323  0.00  0.00    +0.000 A 
ATOM      5  O   UNL     1       8.714   8.001  19.028  0.00  0.00    +0.000 OA
ENDROOT
BRANCH   1   9
ATOM      6  C   UNL     1      10.531  12.696  19.710  0.00  0.00    +0.000 A 
ATOM      7  C   UNL     1      10.093  11.717  20.599  0.00  0.00    +0.000 A 
ATOM      8  C   UNL     1       9.462  10.563  20.127  0.00  0.00    +0.000 A 
ATOM      9  C   UNL     1       9.235  10.367  18.756  0.00  0.00    +0.000 A 
ATOM     10  C   UNL     1       9.678  11.361  17.868  0.00  0.00    +0.000 A 
ATOM     11  C   UNL     1      10.318  12.519  18.343  0.00  0.00    +0.000 A 
BRANCH   6  13
ATOM     12  C   UNL     1      11.320  14.911  19.446  0.00  0.00    +0.000 C 
ATOM     13  O   UNL     1      11.101  13.793  20.296  0.00  0.00    +0.000 OA
ENDBRANCH   6  13
ENDBRANCH   1   9
BRANCH   4  14
ATOM     14  S   UNL     1       7.747   5.441  18.739  0.00  0.00    +0.000 S 
BRANCH  14  15
ATOM     15  C   UNL     1       5.962   5.404  19.132  0.00  0.00    +0.000 C 
BRANCH  15  16
ATOM     16  C   UNL     1       5.203   4.452  18.219  0.00  0.00    +0.000 C 
ATOM     17  O   UNL     1       4.359   3.664  18.656  0.00  0.00    +0.000 OA
BRANCH  16  18
ATOM     18  C   UNL     1       5.434   4.537  16.785  0.00  0.00    +0.000 A 
ATOM     19  C   UNL     1       5.861   3.611  15.848  0.00  0.00    +0.000 A 
ATOM     20  C   UNL     1       5.902   4.255  14.584  0.00  0.00    +0.000 A 
ATOM     21  C   UNL     1       5.506   5.559  14.774  0.00  0.00    +0.000 A 
ATOM     22  N   UNL     1       5.219   5.718  16.101  0.00  0.00    +0.000 N 
ATOM     23  H   UNL     1       4.893   6.568  16.544  0.00  0.00    +0.000 HD
ENDBRANCH  16  18
ENDBRANCH  15  16
ENDBRANCH  14  15
ENDBRANCH   4  14
TORSDOF 6
ENDMDL
MODEL 9
REMARK VINA RESULT:      -7.1      6.016      6.812
REMARK  Name = 
REMARK  7 active torsions:
REMARK  status: ('A' for Active; 'I' for Inactive)
REMARK    1  A    between atoms: C_1  and  O_2
REMARK    2  A    between atoms: O_2  and  C_3
REMARK    3  A    between atoms: C_6  and  C_7
REMARK    4  A    between atoms: C_10  and  S_11
REMARK    5  A    between atoms: S_11  and  C_12
REMARK    6  A    between atoms: C_12  and  C_13
REMARK    7  A    between atoms: C_13  and  C_15
REMARK                            x       y       z     vdW  Elec       q    Type
REMARK                         _______ _______ _______ _____ _____    ______ ____
ROOT
ATOM      1  C   UNL     1       3.258   7.170  17.891  0.00  0.00    +0.000 A 
ATOM      2  N   UNL     1       4.235   7.591  17.112  0.00  0.00    +0.000 NA
ATOM      3  N   UNL     1       4.836   6.470  16.589  0.00  0.00    +0.000 NA
ATOM      4  C   UNL     1       4.184   5.433  17.074  0.00  0.00    +0.000 A 
ATOM      5  O   UNL     1       3.155   5.801  17.906  0.00  0.00    +0.000 OA
ENDROOT
BRANCH   1   9
ATOM      6  C   UNL     1       0.500   9.349  20.351  0.00  0.00    +0.000 A 
ATOM      7  C   UNL     1       1.193   8.244  20.842  0.00  0.00    +0.000 A 
ATOM      8  C   UNL     1       2.104   7.562  20.032  0.00  0.00    +0.000 A 
ATOM      9  C   UNL     1       2.333   7.954  18.704  0.00  0.00    +0.000 A 
ATOM     10  C   UNL     1       1.628   9.067  18.217  0.00  0.00    +0.000 A 
ATOM     11  C   UNL     1       0.715   9.757  19.035  0.00  0.00    +0.000 A 
BRANCH   6  13
ATOM     12  C   UNL     1      -0.346   9.413  22.559  0.00  0.00    +0.000 C 
ATOM     13  O   UNL     1      -0.388   9.908  21.227  0.00  0.00    +0.000 OA
ENDBRANCH   6  13
ENDBRANCH   1   9
BRANCH   4  14
ATOM     14  S   UNL     1       4.567   3.784  16.679  0.00  0.00    +0.000 S 
BRANCH  14  15
ATOM     15  C   UNL     1       2.983   2.978  17.106  0.00  0.00    +0.000 C 
BRANCH  15  16
ATOM     16  C   UNL     1       3.095   2.155  18.382  0.00  0.00    +0.000 C 
ATOM     17  O   UNL     1       3.724   1.093  18.419  0.00  0.00    +0.000 OA
BRANCH  16  18
ATOM     18  C   UNL     1       2.503   2.685  19.600  0.00  0.00    +0.000 A 
ATOM     19  C   UNL     1       1.411   2.295  20.358  0.00  0.00    +0.000 A 
ATOM     20  C   UNL     1       1.300   3.187  21.457  0.00  0.00    +0.000 A 
ATOM     21  C   UNL     1       2.320   4.103  21.346  0.00  0.00    +0.000 A 
ATOM     22  N   UNL     1       3.044   3.788  20.230  0.00  0.00    +0.000 N 
ATOM     23  H   UNL     1       3.863   4.278  19.892  0.00  0.00    +0.000 HD
ENDBRANCH  16  18
ENDBRANCH  15  16
ENDBRANCH  14  15
ENDBRANCH   4  14
TORSDOF 6
ENDMDL
