MODEL 1
REMARK VINA RESULT:      -8.0      0.000      0.000
REMARK  Name = 
REMARK  10 active torsions:
REMARK  status: ('A' for Active; 'I' for Inactive)
REMARK    1  A    between atoms: C_1  and  C_2
REMARK    2  A    between atoms: C_4  and  C_5
REMARK    3  A    between atoms: C_5  and  C_6
REMARK    4  A    between atoms: C_5  and  C_7
REMARK    5  A    between atoms: C_5  and  N_8
REMARK    6  A    between atoms: C_9  and  C_11
REMARK    7  A    between atoms: C_14  and  C_15
REMARK    8  A    between atoms: C_20  and  O_21
REMARK    9  A    between atoms: O_21  and  C_22
REMARK   10  A    between atoms: C_22  and  C_23
REMARK                            x       y       z     vdW  Elec       q    Type
REMARK                         _______ _______ _______ _____ _____    ______ ____
ROOT
ATOM      1  C   UNL     1       1.598   8.659  19.215  0.00  0.00    +0.000 A 
ATOM      2  C   UNL     1       2.065   8.886  17.935  0.00  0.00    +0.000 A 
ATOM      3  C   UNL     1       2.932   7.950  17.388  0.00  0.00    +0.000 A 
ATOM      4  C   UNL     1       3.332   6.811  18.116  0.00  0.00    +0.000 A 
ATOM      5  C   UNL     1       2.745   6.645  19.374  0.00  0.00    +0.000 A 
ATOM      6  N   UNL     1       1.904   7.555  19.933  0.00  0.00    +0.000 NA
ENDROOT
BRANCH   4   7
ATOM      7  C   UNL     1       4.362   5.940  17.443  0.00  0.00    +0.000 C 
ATOM      8  C   UNL     1       4.030   4.518  16.995  0.00  0.00    +0.000 C 
ATOM      9  C   UNL     1       5.311   4.100  16.269  0.00  0.00    +0.000 C 
ATOM     10  C   UNL     1       5.872   5.385  15.651  0.00  0.00    +0.000 C 
ATOM     11  C   UNL     1       4.991   6.524  16.175  0.00  0.00    +0.000 C 
ENDBRANCH   4   7
BRANCH   1  13
ATOM     12  N   UNL     1       0.798  10.963  19.386  0.00  0.00    +0.000 N 
ATOM     13  C   UNL     1       0.720   9.671  19.870  0.00  0.00    +0.000 C 
ATOM     14  O   UNL     1      -0.032   9.329  20.776  0.00  0.00    +0.000 OA
ATOM     15  H   UNL     1       1.433  11.135  18.609  0.00  0.00    +0.000 HD
BRANCH  12  16
ATOM     16  C   UNL     1      -0.015  12.088  19.884  0.00  0.00    +0.000 C 
ATOM     17  C   UNL     1       0.574  13.427  19.396  0.00  0.00    +0.000 C 
ATOM     18  C   UNL     1      -0.070  12.058  21.426  0.00  0.00    +0.000 C 
BRANCH  16  22
ATOM     19  C   UNL     1      -4.023  11.200  17.019  0.00  0.00    +0.000 C 
ATOM     20  C   UNL     1      -3.050  11.547  18.069  0.00  0.00    +0.000 A 
ATOM     21  N   UNL     1      -1.735  11.477  18.076  0.00  0.00    +0.000 NA
ATOM     22  C   UNL     1      -1.433  11.950  19.339  0.00  0.00    +0.000 A 
ATOM     23  N   UNL     1      -2.507  12.291  20.072  0.00  0.00    +0.000 NA
ATOM     24  O   UNL     1      -3.578  12.024  19.229  0.00  0.00    +0.000 OA
ENDBRANCH  16  22
ENDBRANCH  12  16
ENDBRANCH   1  13
BRANCH   5  25
ATOM     25  O   UNL     1       3.020   5.518  20.127  0.00  0.00    +0.000 OA
BRANCH  25  26
ATOM     26  C   UNL     1       1.913   5.167  20.977  0.00  0.00    +0.000 C 
BRANCH  26  27
ATOM     27  C   UNL     1       1.035   4.103  20.388  0.00  0.00    +0.000 C 
ATOM     28  C   UNL     1       1.526   3.177  19.308  0.00  0.00    +0.000 C 
ATOM     29  C   UNL     1       1.213   2.636  20.678  0.00  0.00    +0.000 C 
ENDBRANCH  26  27
ENDBRANCH  25  26
ENDBRANCH   5  25
TORSDOF 7
ENDMDL
MODEL 2
REMARK VINA RESULT:      -8.0      1.320      1.593
REMARK  Name = 
REMARK  10 active torsions:
REMARK  status: ('A' for Active; 'I' for Inactive)
REMARK    1  A    between atoms: C_1  and  C_2
REMARK    2  A    between atoms: C_4  and  C_5
REMARK    3  A    between atoms: C_5  and  C_6
REMARK    4  A    between atoms: C_5  and  C_7
REMARK    5  A    between atoms: C_5  and  N_8
REMARK    6  A    between atoms: C_9  and  C_11
REMARK    7  A    between atoms: C_14  and  C_15
REMARK    8  A    between atoms: C_20  and  O_21
REMARK    9  A    between atoms: O_21  and  C_22
REMARK   10  A    between atoms: C_22  and  C_23
REMARK                            x       y       z     vdW  Elec       q    Type
REMARK                         _______ _______ _______ _____ _____    ______ ____
ROOT
ATOM      1  C   UNL     1       2.130   8.126  18.987  0.00  0.00    +0.000 A 
ATOM      2  C   UNL     1       2.739   8.333  17.764  0.00  0.00    +0.000 A 
ATOM      3  C   UNL     1       3.623   7.364  17.311  0.00  0.00    +0.000 A 
ATOM      4  C   UNL     1       3.900   6.212  18.075  0.00  0.00    +0.000 A 
ATOM      5  C   UNL     1       3.177   6.070  19.263  0.00  0.00    +0.000 A 
ATOM      6  N   UNL     1       2.316   7.013  19.731  0.00  0.00    +0.000 NA
ENDROOT
BRANCH   4   7
ATOM      7  C   UNL     1       4.962   5.302  17.513  0.00  0.00    +0.000 C 
ATOM      8  C   UNL     1       5.234   5.228  16.011  0.00  0.00    +0.000 C 
ATOM      9  C   UNL     1       6.448   4.298  15.948  0.00  0.00    +0.000 C 
ATOM     10  C   UNL     1       7.237   4.561  17.235  0.00  0.00    +0.000 C 
ATOM     11  C   UNL     1       6.372   5.509  18.073  0.00  0.00    +0.000 C 
ENDBRANCH   4   7
BRANCH   1  13
ATOM     12  N   UNL     1       0.584   9.987  18.634  0.00  0.00    +0.000 N 
ATOM     13  C   UNL     1       1.225   9.172  19.547  0.00  0.00    +0.000 C 
ATOM     14  O   UNL     1       1.073   9.258  20.761  0.00  0.00    +0.000 OA
ATOM     15  H   UNL     1       0.755   9.811  17.646  0.00  0.00    +0.000 HD
BRANCH  12  16
ATOM     16  C   UNL     1      -0.371  11.051  18.998  0.00  0.00    +0.000 C 
ATOM     17  C   UNL     1       0.255  12.437  18.737  0.00  0.00    +0.000 C 
ATOM     18  C   UNL     1      -0.773  10.916  20.481  0.00  0.00    +0.000 C 
BRANCH  16  22
ATOM     19  C   UNL     1      -4.867  11.633  16.876  0.00  0.00    +0.000 C 
ATOM     20  C   UNL     1      -3.517  11.230  17.306  0.00  0.00    +0.000 A 
ATOM     21  N   UNL     1      -2.720  11.741  18.221  0.00  0.00    +0.000 NA
ATOM     22  C   UNL     1      -1.620  10.909  18.135  0.00  0.00    +0.000 A 
ATOM     23  N   UNL     1      -1.734   9.937  17.213  0.00  0.00    +0.000 NA
ATOM     24  O   UNL     1      -2.992  10.150  16.665  0.00  0.00    +0.000 OA
ENDBRANCH  16  22
ENDBRANCH  12  16
ENDBRANCH   1  13
BRANCH   5  25
ATOM     25  O   UNL     1       3.327   4.935  20.038  0.00  0.00    +0.000 OA
BRANCH  25  26
ATOM     26  C   UNL     1       2.079   4.237  20.202  0.00  0.00    +0.000 C 
BRANCH  26  27
ATOM     27  C   UNL     1       1.507   3.745  18.905  0.00  0.00    +0.000 C 
ATOM     28  C   UNL     1       2.213   2.712  18.068  0.00  0.00    +0.000 C 
ATOM     29  C   UNL     1       0.908   2.373  18.739  0.00  0.00    +0.000 C 
ENDBRANCH  26  27
ENDBRANCH  25  26
ENDBRANCH   5  25
TORSDOF 7
ENDMDL
MODEL 3
REMARK VINA RESULT:      -7.9      1.345      1.668
REMARK  Name = 
REMARK  10 active torsions:
REMARK  status: ('A' for Active; 'I' for Inactive)
REMARK    1  A    between atoms: C_1  and  C_2
REMARK    2  A    between atoms: C_4  and  C_5
REMARK    3  A    between atoms: C_5  and  C_6
REMARK    4  A    between atoms: C_5  and  C_7
REMARK    5  A    between atoms: C_5  and  N_8
REMARK    6  A    between atoms: C_9  and  C_11
REMARK    7  A    between atoms: C_14  and  C_15
REMARK    8  A    between atoms: C_20  and  O_21
REMARK    9  A    between atoms: O_21  and  C_22
REMARK   10  A    between atoms: C_22  and  C_23
REMARK                            x       y       z     vdW  Elec       q    Type
REMARK                         _______ _______ _______ _____ _____    ______ ____
ROOT
ATOM      1  C   UNL     1       2.451   7.395  19.284  0.00  0.00    +0.000 A 
ATOM      2  C   UNL     1       2.886   7.846  18.053  0.00  0.00    +0.000 A 
ATOM      3  C   UNL     1       3.762   7.037  17.341  0.00  0.00    +0.000 A 
ATOM      4  C   UNL     1       4.202   5.803  17.860  0.00  0.00    +0.000 A 
ATOM      5  C   UNL     1       3.645   5.412  19.082  0.00  0.00    +0.000 A 
ATOM      6  N   UNL     1       2.796   6.195  19.800  0.00  0.00    +0.000 NA
ENDROOT
BRANCH   4   7
ATOM      7  C   UNL     1       5.236   5.083  17.032  0.00  0.00    +0.000 C 
ATOM      8  C   UNL     1       4.834   4.162  15.882  0.00  0.00    +0.000 C 
ATOM      9  C   UNL     1       6.190   3.785  15.280  0.00  0.00    +0.000 C 
ATOM     10  C   UNL     1       7.092   5.005  15.499  0.00  0.00    +0.000 C 
ATOM     11  C   UNL     1       6.281   5.978  16.361  0.00  0.00    +0.000 C 
ENDBRANCH   4   7
BRANCH   1  13
ATOM     12  N   UNL     1       1.073   9.402  19.511  0.00  0.00    +0.000 N 
ATOM     13  C   UNL     1       1.564   8.260  20.115  0.00  0.00    +0.000 C 
ATOM     14  O   UNL     1       1.295   7.929  21.264  0.00  0.00    +0.000 OA
ATOM     15  H   UNL     1       1.333   9.569  18.541  0.00  0.00    +0.000 HD
BRANCH  12  16
ATOM     16  C   UNL     1       0.158  10.358  20.162  0.00  0.00    +0.000 C 
ATOM     17  C   UNL     1       0.934  11.614  20.612  0.00  0.00    +0.000 C 
ATOM     18  C   UNL     1      -0.529   9.692  21.372  0.00  0.00    +0.000 C 
BRANCH  16  22
ATOM     19  C   UNL     1      -2.734  10.845  16.105  0.00  0.00    +0.000 C 
ATOM     20  C   UNL     1      -2.067  10.913  17.417  0.00  0.00    +0.000 A 
ATOM     21  N   UNL     1      -1.031  10.251  17.888  0.00  0.00    +0.000 NA
ATOM     22  C   UNL     1      -0.911  10.778  19.160  0.00  0.00    +0.000 A 
ATOM     23  N   UNL     1      -1.828  11.715  19.457  0.00  0.00    +0.000 NA
ATOM     24  O   UNL     1      -2.594  11.803  18.302  0.00  0.00    +0.000 OA
ENDBRANCH  16  22
ENDBRANCH  12  16
ENDBRANCH   1  13
BRANCH   5  25
ATOM     25  O   UNL     1       3.960   4.183  19.629  0.00  0.00    +0.000 OA
BRANCH  25  26
ATOM     26  C   UNL     1       3.094   3.145  19.134  0.00  0.00    +0.000 C 
BRANCH  26  27
ATOM     27  C   UNL     1       2.262   2.512  20.209  0.00  0.00    +0.000 C 
ATOM     28  C   UNL     1       2.216   3.068  21.607  0.00  0.00    +0.000 C 
ATOM     29  C   UNL     1       0.991   3.126  20.734  0.00  0.00    +0.000 C 
ENDBRANCH  26  27
ENDBRANCH  25  26
ENDBRANCH   5  25
TORSDOF 7
ENDMDL
MODEL 4
REMARK VINA RESULT:      -7.9      2.316      4.120
REMARK  Name = 
REMARK  10 active torsions:
REMARK  status: ('A' for Active; 'I' for Inactive)
REMARK    1  A    between atoms: C_1  and  C_2
REMARK    2  A    between atoms: C_4  and  C_5
REMARK    3  A    between atoms: C_5  and  C_6
REMARK    4  A    between atoms: C_5  and  C_7
REMARK    5  A    between atoms: C_5  and  N_8
REMARK    6  A    between atoms: C_9  and  C_11
REMARK    7  A    between atoms: C_14  and  C_15
REMARK    8  A    between atoms: C_20  and  O_21
REMARK    9  A    between atoms: O_21  and  C_22
REMARK   10  A    between atoms: C_22  and  C_23
REMARK                            x       y       z     vdW  Elec       q    Type
REMARK                         _______ _______ _______ _____ _____    ______ ____
ROOT
ATOM      1  C   UNL     1       2.419   7.954  18.528  0.00  0.00    +0.000 A 
ATOM      2  C   UNL     1       1.943   7.071  19.478  0.00  0.00    +0.000 A 
ATOM      3  C   UNL     1       2.452   5.780  19.472  0.00  0.00    +0.000 A 
ATOM      4  C   UNL     1       3.413   5.377  18.522  0.00  0.00    +0.000 A 
ATOM      5  C   UNL     1       3.875   6.369  17.652  0.00  0.00    +0.000 A 
ATOM      6  N   UNL     1       3.381   7.636  17.633  0.00  0.00    +0.000 NA
ENDROOT
BRANCH   4   7
ATOM      7  C   UNL     1       3.794   3.919  18.563  0.00  0.00    +0.000 C 
ATOM      8  C   UNL     1       4.273   3.257  19.854  0.00  0.00    +0.000 C 
ATOM      9  C   UNL     1       4.405   1.791  19.436  0.00  0.00    +0.000 C 
ATOM     10  C   UNL     1       3.321   1.565  18.376  0.00  0.00    +0.000 C 
ATOM     11  C   UNL     1       2.710   2.943  18.099  0.00  0.00    +0.000 C 
ENDBRANCH   4   7
BRANCH   1  13
ATOM     12  N   UNL     1       1.042   9.725  19.500  0.00  0.00    +0.000 N 
ATOM     13  C   UNL     1       1.851   9.331  18.451  0.00  0.00    +0.000 C 
ATOM     14  O   UNL     1       2.128  10.051  17.498  0.00  0.00    +0.000 OA
ATOM     15  H   UNL     1       0.901   9.061  20.259  0.00  0.00    +0.000 HD
BRANCH  12  16
ATOM     16  C   UNL     1       0.421  11.058  19.614  0.00  0.00    +0.000 C 
ATOM     17  C   UNL     1      -0.685  11.222  18.551  0.00  0.00    +0.000 C 
ATOM     18  C   UNL     1       1.492  12.156  19.446  0.00  0.00    +0.000 C 
BRANCH  16  22
ATOM     19  C   UNL     1      -2.629  12.046  23.458  0.00  0.00    +0.000 C 
ATOM     20  C   UNL     1      -1.549  11.643  22.542  0.00  0.00    +0.000 A 
ATOM     21  N   UNL     1      -1.454  11.741  21.233  0.00  0.00    +0.000 NA
ATOM     22  C   UNL     1      -0.207  11.192  20.997  0.00  0.00    +0.000 A 
ATOM     23  N   UNL     1       0.430  10.775  22.105  0.00  0.00    +0.000 NA
ATOM     24  O   UNL     1      -0.460  11.074  23.128  0.00  0.00    +0.000 OA
ENDBRANCH  16  22
ENDBRANCH  12  16
ENDBRANCH   1  13
BRANCH   5  25
ATOM     25  O   UNL     1       4.873   6.085  16.739  0.00  0.00    +0.000 OA
BRANCH  25  26
ATOM     26  C   UNL     1       6.038   6.901  16.955  0.00  0.00    +0.000 C 
BRANCH  26  27
ATOM     27  C   UNL     1       7.192   6.136  17.533  0.00  0.00    +0.000 C 
ATOM     28  C   UNL     1       8.070   6.718  18.608  0.00  0.00    +0.000 C 
ATOM     29  C   UNL     1       7.176   5.546  18.919  0.00  0.00    +0.000 C 
ENDBRANCH  26  27
ENDBRANCH  25  26
ENDBRANCH   5  25
TORSDOF 7
ENDMDL
MODEL 5
REMARK VINA RESULT:      -7.9      1.248      1.555
REMARK  Name = 
REMARK  10 active torsions:
REMARK  status: ('A' for Active; 'I' for Inactive)
REMARK    1  A    between atoms: C_1  and  C_2
REMARK    2  A    between atoms: C_4  and  C_5
REMARK    3  A    between atoms: C_5  and  C_6
REMARK    4  A    between atoms: C_5  and  C_7
REMARK    5  A    between atoms: C_5  and  N_8
REMARK    6  A    between atoms: C_9  and  C_11
REMARK    7  A    between atoms: C_14  and  C_15
REMARK    8  A    between atoms: C_20  and  O_21
REMARK    9  A    between atoms: O_21  and  C_22
REMARK   10  A    between atoms: C_22  and  C_23
REMARK                            x       y       z     vdW  Elec       q    Type
REMARK                         _______ _______ _______ _____ _____    ______ ____
ROOT
ATOM      1  C   UNL     1       1.427   9.310  19.050  0.00  0.00    +0.000 A 
ATOM      2  C   UNL     1       1.937   9.176  17.773  0.00  0.00    +0.000 A 
ATOM      3  C   UNL     1       2.676   8.035  17.489  0.00  0.00    +0.000 A 
ATOM      4  C   UNL     1       2.909   7.052  18.472  0.00  0.00    +0.000 A 
ATOM      5  C   UNL     1       2.289   7.255  19.709  0.00  0.00    +0.000 A 
ATOM      6  N   UNL     1       1.572   8.370  20.011  0.00  0.00    +0.000 NA
ENDROOT
BRANCH   4   7
ATOM      7  C   UNL     1       3.819   5.924  18.056  0.00  0.00    +0.000 C 
ATOM      8  C   UNL     1       3.269   4.655  17.408  0.00  0.00    +0.000 C 
ATOM      9  C   UNL     1       4.547   3.890  17.057  0.00  0.00    +0.000 C 
ATOM     10  C   UNL     1       5.596   4.963  16.747  0.00  0.00    +0.000 C 
ATOM     11  C   UNL     1       4.940   6.305  17.087  0.00  0.00    +0.000 C 
ENDBRANCH   4   7
BRANCH   1  13
ATOM     12  N   UNL     1      -0.523  10.761  18.787  0.00  0.00    +0.000 N 
ATOM     13  C   UNL     1       0.686  10.550  19.422  0.00  0.00    +0.000 C 
ATOM     14  O   UNL     1       1.153  11.307  20.265  0.00  0.00    +0.000 OA
ATOM     15  H   UNL     1      -0.835  10.053  18.124  0.00  0.00    +0.000 HD
BRANCH  12  16
ATOM     16  C   UNL     1      -1.409  11.910  19.048  0.00  0.00    +0.000 C 
ATOM     17  C   UNL     1      -0.773  13.206  18.505  0.00  0.00    +0.000 C 
ATOM     18  C   UNL     1      -1.675  12.039  20.563  0.00  0.00    +0.000 C 
BRANCH  16  22
ATOM     19  C   UNL     1      -6.259  11.669  17.828  0.00  0.00    +0.000 C 
ATOM     20  C   UNL     1      -4.789  11.620  17.911  0.00  0.00    +0.000 A 
ATOM     21  N   UNL     1      -3.971  11.995  18.873  0.00  0.00    +0.000 NA
ATOM     22  C   UNL     1      -2.737  11.681  18.335  0.00  0.00    +0.000 A 
ATOM     23  N   UNL     1      -2.793  11.143  17.104  0.00  0.00    +0.000 NA
ATOM     24  O   UNL     1      -4.153  11.103  16.824  0.00  0.00    +0.000 OA
ENDBRANCH  16  22
ENDBRANCH  12  16
ENDBRANCH   1  13
BRANCH   5  25
ATOM     25  O   UNL     1       2.399   6.305  20.707  0.00  0.00    +0.000 OA
BRANCH  25  26
ATOM     26  C   UNL     1       1.393   5.284  20.579  0.00  0.00    +0.000 C 
BRANCH  26  27
ATOM     27  C   UNL     1       1.957   3.894  20.625  0.00  0.00    +0.000 C 
ATOM     28  C   UNL     1       1.307   2.800  21.429  0.00  0.00    +0.000 C 
ATOM     29  C   UNL     1       1.318   2.724  19.924  0.00  0.00    +0.000 C 
ENDBRANCH  26  27
ENDBRANCH  25  26
ENDBRANCH   5  25
TORSDOF 7
ENDMDL
MODEL 6
REMARK VINA RESULT:      -7.8      1.709      2.362
REMARK  Name = 
REMARK  10 active torsions:
REMARK  status: ('A' for Active; 'I' for Inactive)
REMARK    1  A    between atoms: C_1  and  C_2
REMARK    2  A    between atoms: C_4  and  C_5
REMARK    3  A    between atoms: C_5  and  C_6
REMARK    4  A    between atoms: C_5  and  C_7
REMARK    5  A    between atoms: C_5  and  N_8
REMARK    6  A    between atoms: C_9  and  C_11
REMARK    7  A    between atoms: C_14  and  C_15
REMARK    8  A    between atoms: C_20  and  O_21
REMARK    9  A    between atoms: O_21  and  C_22
REMARK   10  A    between atoms: C_22  and  C_23
REMARK                            x       y       z     vdW  Elec       q    Type
REMARK                         _______ _______ _______ _____ _____    ______ ____
ROOT
ATOM      1  C   UNL     1       1.262   9.184  19.091  0.00  0.00    +0.000 A 
ATOM      2  C   UNL     1       1.712   9.154  17.786  0.00  0.00    +0.000 A 
ATOM      3  C   UNL     1       2.551   8.111  17.416  0.00  0.00    +0.000 A 
ATOM      4  C   UNL     1       2.940   7.122  18.342  0.00  0.00    +0.000 A 
ATOM      5  C   UNL     1       2.370   7.211  19.616  0.00  0.00    +0.000 A 
ATOM      6  N   UNL     1       1.558   8.230  20.002  0.00  0.00    +0.000 NA
ENDROOT
BRANCH   4   7
ATOM      7  C   UNL     1       3.939   6.115  17.834  0.00  0.00    +0.000 C 
ATOM      8  C   UNL     1       3.512   4.709  17.418  0.00  0.00    +0.000 C 
ATOM      9  C   UNL     1       4.814   4.125  16.865  0.00  0.00    +0.000 C 
ATOM     10  C   UNL     1       5.572   5.310  16.256  0.00  0.00    +0.000 C 
ATOM     11  C   UNL     1       4.763   6.559  16.622  0.00  0.00    +0.000 C 
ENDBRANCH   4   7
BRANCH   1  13
ATOM     12  N   UNL     1       1.080  11.413  20.082  0.00  0.00    +0.000 N 
ATOM     13  C   UNL     1       0.416  10.323  19.553  0.00  0.00    +0.000 C 
ATOM     14  O   UNL     1      -0.803  10.261  19.435  0.00  0.00    +0.000 OA
ATOM     15  H   UNL     1       2.097  11.375  20.106  0.00  0.00    +0.000 HD
BRANCH  12  16
ATOM     16  C   UNL     1       0.416  12.640  20.557  0.00  0.00    +0.000 C 
ATOM     17  C   UNL     1      -0.417  13.268  19.420  0.00  0.00    +0.000 C 
ATOM     18  C   UNL     1       1.468  13.647  21.068  0.00  0.00    +0.000 C 
BRANCH  16  22
ATOM     19  C   UNL     1      -3.453  12.327  23.719  0.00  0.00    +0.000 C 
ATOM     20  C   UNL     1      -2.187  12.215  22.974  0.00  0.00    +0.000 A 
ATOM     21  N   UNL     1      -1.787  12.808  21.868  0.00  0.00    +0.000 NA
ATOM     22  C   UNL     1      -0.519  12.281  21.707  0.00  0.00    +0.000 A 
ATOM     23  N   UNL     1      -0.160  11.407  22.663  0.00  0.00    +0.000 NA
ATOM     24  O   UNL     1      -1.265  11.364  23.502  0.00  0.00    +0.000 OA
ENDBRANCH  16  22
ENDBRANCH  12  16
ENDBRANCH   1  13
BRANCH   5  25
ATOM     25  O   UNL     1       2.634   6.242  20.566  0.00  0.00    +0.000 OA
BRANCH  25  26
ATOM     26  C   UNL     1       1.603   5.238  20.599  0.00  0.00    +0.000 C 
BRANCH  26  27
ATOM     27  C   UNL     1       2.027   3.984  21.305  0.00  0.00    +0.000 C 
ATOM     28  C   UNL     1       1.375   2.657  21.023  0.00  0.00    +0.000 C 
ATOM     29  C   UNL     1       2.811   2.888  20.633  0.00  0.00    +0.000 C 
ENDBRANCH  26  27
ENDBRANCH  25  26
ENDBRANCH   5  25
TORSDOF 7
ENDMDL
MODEL 7
REMARK VINA RESULT:      -7.8      0.839      1.125
REMARK  Name = 
REMARK  10 active torsions:
REMARK  status: ('A' for Active; 'I' for Inactive)
REMARK    1  A    between atoms: C_1  and  C_2
REMARK    2  A    between atoms: C_4  and  C_5
REMARK    3  A    between atoms: C_5  and  C_6
REMARK    4  A    between atoms: C_5  and  C_7
REMARK    5  A    between atoms: C_5  and  N_8
REMARK    6  A    between atoms: C_9  and  C_11
REMARK    7  A    between atoms: C_14  and  C_15
REMARK    8  A    between atoms: C_20  and  O_21
REMARK    9  A    between atoms: O_21  and  C_22
REMARK   10  A    between atoms: C_22  and  C_23
REMARK                            x       y       z     vdW  Elec       q    Type
REMARK                         _______ _______ _______ _____ _____    ______ ____
ROOT
ATOM      1  C   UNL     1       1.357   9.048  19.159  0.00  0.00    +0.000 A 
ATOM      2  C   UNL     1       1.856   9.140  17.874  0.00  0.00    +0.000 A 
ATOM      3  C   UNL     1       2.726   8.146  17.446  0.00  0.00    +0.000 A 
ATOM      4  C   UNL     1       3.098   7.085  18.297  0.00  0.00    +0.000 A 
ATOM      5  C   UNL     1       2.481   7.052  19.551  0.00  0.00    +0.000 A 
ATOM      6  N   UNL     1       1.636   8.022  19.993  0.00  0.00    +0.000 NA
ENDROOT
BRANCH   4   7
ATOM      7  C   UNL     1       4.134   6.141  17.740  0.00  0.00    +0.000 C 
ATOM      8  C   UNL     1       3.768   4.722  17.310  0.00  0.00    +0.000 C 
ATOM      9  C   UNL     1       5.082   4.218  16.709  0.00  0.00    +0.000 C 
ATOM     10  C   UNL     1       5.758   5.452  16.101  0.00  0.00    +0.000 C 
ATOM     11  C   UNL     1       4.896   6.650  16.513  0.00  0.00    +0.000 C 
ENDBRANCH   4   7
BRANCH   1  13
ATOM     12  N   UNL     1       0.546  11.352  19.048  0.00  0.00    +0.000 N 
ATOM     13  C   UNL     1       0.474  10.129  19.686  0.00  0.00    +0.000 C 
ATOM     14  O   UNL     1      -0.275   9.896  20.628  0.00  0.00    +0.000 OA
ATOM     15  H   UNL     1       1.179  11.431  18.255  0.00  0.00    +0.000 HD
BRANCH  12  16
ATOM     16  C   UNL     1      -0.273  12.525  19.405  0.00  0.00    +0.000 C 
ATOM     17  C   UNL     1       0.214  13.769  18.633  0.00  0.00    +0.000 C 
ATOM     18  C   UNL     1      -0.200  12.777  20.926  0.00  0.00    +0.000 C 
BRANCH  16  22
ATOM     19  C   UNL     1      -5.257  12.051  19.384  0.00  0.00    +0.000 C 
ATOM     20  C   UNL     1      -3.810  12.086  19.106  0.00  0.00    +0.000 A 
ATOM     21  N   UNL     1      -2.801  12.467  19.860  0.00  0.00    +0.000 NA
ATOM     22  C   UNL     1      -1.723  12.249  19.023  0.00  0.00    +0.000 A 
ATOM     23  N   UNL     1      -2.054  11.763  17.814  0.00  0.00    +0.000 NA
ATOM     24  O   UNL     1      -3.437  11.654  17.870  0.00  0.00    +0.000 OA
ENDBRANCH  16  22
ENDBRANCH  12  16
ENDBRANCH   1  13
BRANCH   5  25
ATOM     25  O   UNL     1       2.727   6.007  20.421  0.00  0.00    +0.000 OA
BRANCH  25  26
ATOM     26  C   UNL     1       1.592   5.128  20.527  0.00  0.00    +0.000 C 
BRANCH  26  27
ATOM     27  C   UNL     1       1.965   3.677  20.457  0.00  0.00    +0.000 C 
ATOM     28  C   UNL     1       1.528   2.694  21.510  0.00  0.00    +0.000 C 
ATOM     29  C   UNL     1       0.980   2.591  20.110  0.00  0.00    +0.000 C 
ENDBRANCH  26  27
ENDBRANCH  25  26
ENDBRANCH   5  25
TORSDOF 7
ENDMDL
MODEL 8
REMARK VINA RESULT:      -7.7      2.626      8.391
REMARK  Name = 
REMARK  10 active torsions:
REMARK  status: ('A' for Active; 'I' for Inactive)
REMARK    1  A    between atoms: C_1  and  C_2
REMARK    2  A    between atoms: C_4  and  C_5
REMARK    3  A    between atoms: C_5  and  C_6
REMARK    4  A    between atoms: C_5  and  C_7
REMARK    5  A    between atoms: C_5  and  N_8
REMARK    6  A    between atoms: C_9  and  C_11
REMARK    7  A    between atoms: C_14  and  C_15
REMARK    8  A    between atoms: C_20  and  O_21
REMARK    9  A    between atoms: O_21  and  C_22
REMARK   10  A    between atoms: C_22  and  C_23
REMARK                            x       y       z     vdW  Elec       q    Type
REMARK                         _______ _______ _______ _____ _____    ______ ____
ROOT
ATOM      1  C   UNL     1       2.427   7.393  19.064  0.00  0.00    +0.000 A 
ATOM      2  C   UNL     1       2.078   7.996  17.871  0.00  0.00    +0.000 A 
ATOM      3  C   UNL     1       1.299   9.144  17.932  0.00  0.00    +0.000 A 
ATOM      4  C   UNL     1       0.869   9.671  19.167  0.00  0.00    +0.000 A 
ATOM      5  C   UNL     1       1.338   9.021  20.313  0.00  0.00    +0.000 A 
ATOM      6  N   UNL     1       2.090   7.890  20.275  0.00  0.00    +0.000 NA
ENDROOT
BRANCH   4   7
ATOM      7  C   UNL     1      -0.060  10.855  19.078  0.00  0.00    +0.000 C 
ATOM      8  C   UNL     1       0.447  12.236  18.670  0.00  0.00    +0.000 C 
ATOM      9  C   UNL     1      -0.848  13.048  18.598  0.00  0.00    +0.000 C 
ATOM     10  C   UNL     1      -1.931  12.058  18.155  0.00  0.00    +0.000 C 
ATOM     11  C   UNL     1      -1.263  10.679  18.147  0.00  0.00    +0.000 C 
ENDBRANCH   4   7
BRANCH   1  13
ATOM     12  N   UNL     1       4.189   6.010  18.084  0.00  0.00    +0.000 N 
ATOM     13  C   UNL     1       3.204   6.119  19.046  0.00  0.00    +0.000 C 
ATOM     14  O   UNL     1       2.960   5.246  19.872  0.00  0.00    +0.000 OA
ATOM     15  H   UNL     1       4.332   6.807  17.466  0.00  0.00    +0.000 HD
BRANCH  12  16
ATOM     16  C   UNL     1       5.079   4.843  17.934  0.00  0.00    +0.000 C 
ATOM     17  C   UNL     1       4.252   3.541  17.940  0.00  0.00    +0.000 C 
ATOM     18  C   UNL     1       6.119   4.822  19.074  0.00  0.00    +0.000 C 
BRANCH  16  22
ATOM     19  C   UNL     1       6.691   4.181  13.241  0.00  0.00    +0.000 C 
ATOM     20  C   UNL     1       6.422   4.600  14.628  0.00  0.00    +0.000 A 
ATOM     21  N   UNL     1       5.559   4.141  15.510  0.00  0.00    +0.000 NA
ATOM     22  C   UNL     1       5.813   4.950  16.602  0.00  0.00    +0.000 A 
ATOM     23  N   UNL     1       6.780   5.862  16.400  0.00  0.00    +0.000 NA
ATOM     24  O   UNL     1       7.183   5.629  15.091  0.00  0.00    +0.000 OA
ENDBRANCH  16  22
ENDBRANCH  12  16
ENDBRANCH   1  13
BRANCH   5  25
ATOM     25  O   UNL     1       1.031   9.514  21.567  0.00  0.00    +0.000 OA
BRANCH  25  26
ATOM     26  C   UNL     1      -0.385   9.466  21.823  0.00  0.00    +0.000 C 
BRANCH  26  27
ATOM     27  C   UNL     1      -0.865  10.601  22.678  0.00  0.00    +0.000 C 
ATOM     28  C   UNL     1      -0.456  12.025  22.411  0.00  0.00    +0.000 C 
ATOM     29  C   UNL     1      -1.889  11.604  22.215  0.00  0.00    +0.000 C 
ENDBRANCH  26  27
ENDBRANCH  25  26
ENDBRANCH   5  25
TORSDOF 7
ENDMDL
MODEL 9
REMARK VINA RESULT:      -7.7      2.120      3.391
REMARK  Name = 
REMARK  10 active torsions:
REMARK  status: ('A' for Active; 'I' for Inactive)
REMARK    1  A    between atoms: C_1  and  C_2
REMARK    2  A    between atoms: C_4  and  C_5
REMARK    3  A    between atoms: C_5  and  C_6
REMARK    4  A    between atoms: C_5  and  C_7
REMARK    5  A    between atoms: C_5  and  N_8
REMARK    6  A    between atoms: C_9  and  C_11
REMARK    7  A    between atoms: C_14  and  C_15
REMARK    8  A    between atoms: C_20  and  O_21
REMARK    9  A    between atoms: O_21  and  C_22
REMARK   10  A    between atoms: C_22  and  C_23
REMARK                            x       y       z     vdW  Elec       q    Type
REMARK                         _______ _______ _______ _____ _____    ______ ____
ROOT
ATOM      1  C   UNL     1       1.383   9.027  19.209  0.00  0.00    +0.000 A 
ATOM      2  C   UNL     1       1.930   9.096  17.943  0.00  0.00    +0.000 A 
ATOM      3  C   UNL     1       2.736   8.043  17.529  0.00  0.00    +0.000 A 
ATOM      4  C   UNL     1       2.997   6.946  18.375  0.00  0.00    +0.000 A 
ATOM      5  C   UNL     1       2.337   6.946  19.608  0.00  0.00    +0.000 A 
ATOM      6  N   UNL     1       1.554   7.972  20.037  0.00  0.00    +0.000 NA
ENDROOT
BRANCH   4   7
ATOM      7  C   UNL     1       3.975   5.933  17.839  0.00  0.00    +0.000 C 
ATOM      8  C   UNL     1       3.520   4.545  17.392  0.00  0.00    +0.000 C 
ATOM      9  C   UNL     1       4.808   3.950  16.820  0.00  0.00    +0.000 C 
ATOM     10  C   UNL     1       5.586   5.135  16.237  0.00  0.00    +0.000 C 
ATOM     11  C   UNL     1       4.803   6.390  16.635  0.00  0.00    +0.000 C 
ENDBRANCH   4   7
BRANCH   1  13
ATOM     12  N   UNL     1       1.258  11.309  20.079  0.00  0.00    +0.000 N 
ATOM     13  C   UNL     1       0.568  10.166  19.723  0.00  0.00    +0.000 C 
ATOM     14  O   UNL     1      -0.652  10.058  19.793  0.00  0.00    +0.000 OA
ATOM     15  H   UNL     1       2.268  11.306  19.953  0.00  0.00    +0.000 HD
BRANCH  12  16
ATOM     16  C   UNL     1       0.621  12.544  20.574  0.00  0.00    +0.000 C 
ATOM     17  C   UNL     1      -0.206  12.243  21.842  0.00  0.00    +0.000 C 
ATOM     18  C   UNL     1      -0.281  13.149  19.478  0.00  0.00    +0.000 C 
BRANCH  16  22
ATOM     19  C   UNL     1       4.748  15.377  20.628  0.00  0.00    +0.000 C 
ATOM     20  C   UNL     1       3.464  14.694  20.867  0.00  0.00    +0.000 A 
ATOM     21  N   UNL     1       2.849  13.758  20.174  0.00  0.00    +0.000 NA
ATOM     22  C   UNL     1       1.708  13.552  20.928  0.00  0.00    +0.000 A 
ATOM     23  N   UNL     1       1.626  14.323  22.026  0.00  0.00    +0.000 NA
ATOM     24  O   UNL     1       2.790  15.079  21.985  0.00  0.00    +0.000 OA
ENDBRANCH  16  22
ENDBRANCH  12  16
ENDBRANCH   1  13
BRANCH   5  25
ATOM     25  O   UNL     1       2.473   5.874  20.470  0.00  0.00    +0.000 OA
BRANCH  25  26
ATOM     26  C   UNL     1       1.254   5.115  20.567  0.00  0.00    +0.000 C 
BRANCH  26  27
ATOM     27  C   UNL     1       1.467   3.639  20.400  0.00  0.00    +0.000 C 
ATOM     28  C   UNL     1       2.779   2.984  20.741  0.00  0.00    +0.000 C 
ATOM     29  C   UNL     1       1.553   2.685  21.563  0.00  0.00    +0.000 C 
ENDBRANCH  26  27
ENDBRANCH  25  26
ENDBRANCH   5  25
TORSDOF 7
ENDMDL
