MODEL 1
REMARK VINA RESULT:      -7.2      0.000      0.000
REMARK  Name = 
REMARK  16 active torsions:
REMARK  status: ('A' for Active; 'I' for Inactive)
REMARK    1  A    between atoms: C_1  and  C_2
REMARK    2  A    between atoms: C_3  and  C_4
REMARK    3  A    between atoms: N_6  and  C_7
REMARK    4  A    between atoms: C_7  and  C_8
REMARK    5  A    between atoms: C_7  and  C_19
REMARK    6  A    between atoms: C_7  and  C_24
REMARK    7  A    between atoms: C_8  and  C_9
REMARK    8  A    between atoms: C_9  and  C_11
REMARK    9  A    between atoms: C_15  and  O_16
REMARK   10  A    between atoms: O_16  and  C_17
REMARK   11  A    between atoms: C_19  and  O_21
REMARK   12  A    between atoms: O_21  and  C_22
REMARK   13  A    between atoms: C_22  and  C_23
REMARK   14  A    between atoms: C_24  and  O_26
REMARK   15  A    between atoms: O_26  and  C_27
REMARK   16  A    between atoms: C_27  and  C_28
REMARK                            x       y       z     vdW  Elec       q    Type
REMARK                         _______ _______ _______ _____ _____    ______ ____
ROOT
ATOM      1  C   UNL     1       4.824   5.061  17.875  0.00  0.00    +0.000 C 
ENDROOT
BRANCH   1   4
ATOM      2  C   UNL     1       7.199   5.753  18.257  0.00  0.00    +0.000 C 
ATOM      3  O   UNL     1       7.617   4.605  18.130  0.00  0.00    +0.000 OA
ATOM      4  N   UNL     1       5.883   6.075  18.138  0.00  0.00    +0.000 N 
ATOM      5  H   UNL     1       5.581   7.045  18.135  0.00  0.00    +0.000 HD
BRANCH   2   8
ATOM      6  C   UNL     1       8.605   9.330  18.107  0.00  0.00    +0.000 C 
ATOM      7  C   UNL     1       7.803   8.083  17.943  0.00  0.00    +0.000 C 
ATOM      8  C   UNL     1       8.094   6.906  18.513  0.00  0.00    +0.000 C 
ENDBRANCH   2   8
ENDBRANCH   1   4
BRANCH   1   9
ATOM      9  C   UNL     1       4.798   4.026  19.022  0.00  0.00    +0.000 C 
ATOM     10  O   UNL     1       5.242   4.214  20.144  0.00  0.00    +0.000 OA
BRANCH   9  11
ATOM     11  O   UNL     1       4.324   2.822  18.565  0.00  0.00    +0.000 OA
BRANCH  11  12
ATOM     12  C   UNL     1       3.443   2.123  19.449  0.00  0.00    +0.000 C 
ATOM     13  C   UNL     1       2.123   1.970  18.716  0.00  0.00    +0.000 C 
ENDBRANCH  11  12
ENDBRANCH   9  11
ENDBRANCH   1   9
BRANCH   1  14
ATOM     14  C   UNL     1       3.449   5.758  17.900  0.00  0.00    +0.000 C 
ATOM     15  O   UNL     1       2.380   5.192  17.689  0.00  0.00    +0.000 OA
BRANCH  14  16
ATOM     16  O   UNL     1       3.558   7.071  18.276  0.00  0.00    +0.000 OA
BRANCH  16  17
ATOM     17  C   UNL     1       2.409   7.889  18.015  0.00  0.00    +0.000 C 
ATOM     18  C   UNL     1       1.774   8.348  19.315  0.00  0.00    +0.000 C 
ENDBRANCH  16  17
ENDBRANCH  14  16
ENDBRANCH   1  14
BRANCH   1  19
ATOM     19  C   UNL     1       4.974   4.334  16.528  0.00  0.00    +0.000 C 
BRANCH  19  20
ATOM     20  C   UNL     1       5.403   5.260  15.407  0.00  0.00    +0.000 C 
ATOM     21  O   UNL     1       5.261   6.480  15.478  0.00  0.00    +0.000 OA
BRANCH  20  22
ATOM     22  C   UNL     1       6.014   4.678  14.177  0.00  0.00    +0.000 A 
ATOM     23  C   UNL     1       7.201   5.243  13.689  0.00  0.00    +0.000 A 
ATOM     24  C   UNL     1       7.754   4.787  12.495  0.00  0.00    +0.000 A 
ATOM     25  C   UNL     1       7.121   3.765  11.787  0.00  0.00    +0.000 A 
ATOM     26  C   UNL     1       5.951   3.178  12.275  0.00  0.00    +0.000 A 
ATOM     27  C   UNL     1       5.409   3.626  13.481  0.00  0.00    +0.000 A 
BRANCH  26  28
ATOM     28  O   UNL     1       5.416   2.200  11.483  0.00  0.00    +0.000 OA
ATOM     29  C   UNL     1       6.289   1.142  11.098  0.00  0.00    +0.000 C 
ENDBRANCH  26  28
ENDBRANCH  20  22
ENDBRANCH  19  20
ENDBRANCH   1  19
TORSDOF 12
ENDMDL
MODEL 2
REMARK VINA RESULT:      -7.2      1.203      3.725
REMARK  Name = 
REMARK  16 active torsions:
REMARK  status: ('A' for Active; 'I' for Inactive)
REMARK    1  A    between atoms: C_1  and  C_2
REMARK    2  A    between atoms: C_3  and  C_4
REMARK    3  A    between atoms: N_6  and  C_7
REMARK    4  A    between atoms: C_7  and  C_8
REMARK    5  A    between atoms: C_7  and  C_19
REMARK    6  A    between atoms: C_7  and  C_24
REMARK    7  A    between atoms: C_8  and  C_9
REMARK    8  A    between atoms: C_9  and  C_11
REMARK    9  A    between atoms: C_15  and  O_16
REMARK   10  A    between atoms: O_16  and  C_17
REMARK   11  A    between atoms: C_19  and  O_21
REMARK   12  A    between atoms: O_21  and  C_22
REMARK   13  A    between atoms: C_22  and  C_23
REMARK   14  A    between atoms: C_24  and  O_26
REMARK   15  A    between atoms: O_26  and  C_27
REMARK   16  A    between atoms: C_27  and  C_28
REMARK                            x       y       z     vdW  Elec       q    Type
REMARK                         _______ _______ _______ _____ _____    ______ ____
ROOT
ATOM      1  C   UNL     1       4.802   4.849  18.035  0.00  0.00    +0.000 C 
ENDROOT
BRANCH   1   4
ATOM      2  C   UNL     1       2.949   6.529  18.134  0.00  0.00    +0.000 C 
ATOM      3  O   UNL     1       2.139   5.754  17.635  0.00  0.00    +0.000 OA
ATOM      4  N   UNL     1       4.242   6.185  18.380  0.00  0.00    +0.000 N 
ATOM      5  H   UNL     1       4.859   6.806  18.896  0.00  0.00    +0.000 HD
BRANCH   2   8
ATOM      6  C   UNL     1       1.175   9.941  18.169  0.00  0.00    +0.000 C 
ATOM      7  C   UNL     1       1.645   8.558  17.866  0.00  0.00    +0.000 C 
ATOM      8  C   UNL     1       2.588   7.903  18.556  0.00  0.00    +0.000 C 
ENDBRANCH   2   8
ENDBRANCH   1   4
BRANCH   1   9
ATOM      9  C   UNL     1       6.314   4.819  18.351  0.00  0.00    +0.000 C 
ATOM     10  O   UNL     1       7.070   3.902  18.069  0.00  0.00    +0.000 OA
BRANCH   9  11
ATOM     11  O   UNL     1       6.662   5.908  19.111  0.00  0.00    +0.000 OA
BRANCH  11  12
ATOM     12  C   UNL     1       7.930   6.499  18.807  0.00  0.00    +0.000 C 
ATOM     13  C   UNL     1       7.681   7.524  17.715  0.00  0.00    +0.000 C 
ENDBRANCH  11  12
ENDBRANCH   9  11
ENDBRANCH   1   9
BRANCH   1  14
ATOM     14  C   UNL     1       4.156   3.787  18.947  0.00  0.00    +0.000 C 
ATOM     15  O   UNL     1       4.102   2.588  18.687  0.00  0.00    +0.000 OA
BRANCH  14  16
ATOM     16  O   UNL     1       3.728   4.332  20.129  0.00  0.00    +0.000 OA
BRANCH  16  17
ATOM     17  C   UNL     1       2.694   3.608  20.810  0.00  0.00    +0.000 C 
ATOM     18  C   UNL     1       1.355   4.300  20.638  0.00  0.00    +0.000 C 
ENDBRANCH  16  17
ENDBRANCH  14  16
ENDBRANCH   1  14
BRANCH   1  19
ATOM     19  C   UNL     1       4.573   4.433  16.571  0.00  0.00    +0.000 C 
BRANCH  19  20
ATOM     20  C   UNL     1       5.277   5.346  15.587  0.00  0.00    +0.000 C 
ATOM     21  O   UNL     1       5.353   6.562  15.763  0.00  0.00    +0.000 OA
BRANCH  20  22
ATOM     22  C   UNL     1       5.896   4.758  14.365  0.00  0.00    +0.000 A 
ATOM     23  C   UNL     1       7.179   5.186  13.992  0.00  0.00    +0.000 A 
ATOM     24  C   UNL     1       7.754   4.726  12.810  0.00  0.00    +0.000 A 
ATOM     25  C   UNL     1       7.048   3.840  11.997  0.00  0.00    +0.000 A 
ATOM     26  C   UNL     1       5.779   3.388  12.369  0.00  0.00    +0.000 A 
ATOM     27  C   UNL     1       5.213   3.836  13.563  0.00  0.00    +0.000 A 
BRANCH  26  28
ATOM     28  O   UNL     1       5.182   2.536  11.481  0.00  0.00    +0.000 OA
ATOM     29  C   UNL     1       3.916   2.936  10.965  0.00  0.00    +0.000 C 
ENDBRANCH  26  28
ENDBRANCH  20  22
ENDBRANCH  19  20
ENDBRANCH   1  19
TORSDOF 12
ENDMDL
MODEL 3
REMARK VINA RESULT:      -7.1      1.293      1.701
REMARK  Name = 
REMARK  16 active torsions:
REMARK  status: ('A' for Active; 'I' for Inactive)
REMARK    1  A    between atoms: C_1  and  C_2
REMARK    2  A    between atoms: C_3  and  C_4
REMARK    3  A    between atoms: N_6  and  C_7
REMARK    4  A    between atoms: C_7  and  C_8
REMARK    5  A    between atoms: C_7  and  C_19
REMARK    6  A    between atoms: C_7  and  C_24
REMARK    7  A    between atoms: C_8  and  C_9
REMARK    8  A    between atoms: C_9  and  C_11
REMARK    9  A    between atoms: C_15  and  O_16
REMARK   10  A    between atoms: O_16  and  C_17
REMARK   11  A    between atoms: C_19  and  O_21
REMARK   12  A    between atoms: O_21  and  C_22
REMARK   13  A    between atoms: C_22  and  C_23
REMARK   14  A    between atoms: C_24  and  O_26
REMARK   15  A    between atoms: O_26  and  C_27
REMARK   16  A    between atoms: C_27  and  C_28
REMARK                            x       y       z     vdW  Elec       q    Type
REMARK                         _______ _______ _______ _____ _____    ______ ____
ROOT
ATOM      1  C   UNL     1       5.358   5.638  17.774  0.00  0.00    +0.000 C 
ENDROOT
BRANCH   1   4
ATOM      2  C   UNL     1       7.044   7.485  17.656  0.00  0.00    +0.000 C 
ATOM      3  O   UNL     1       6.523   7.977  16.659  0.00  0.00    +0.000 OA
ATOM      4  N   UNL     1       6.552   6.376  18.272  0.00  0.00    +0.000 N 
ATOM      5  H   UNL     1       6.934   6.058  19.158  0.00  0.00    +0.000 HD
BRANCH   2   8
ATOM      6  C   UNL     1       9.538  10.141  18.887  0.00  0.00    +0.000 C 
ATOM      7  C   UNL     1       8.395   9.404  18.275  0.00  0.00    +0.000 C 
ATOM      8  C   UNL     1       8.236   8.074  18.311  0.00  0.00    +0.000 C 
ENDBRANCH   2   8
ENDBRANCH   1   4
BRANCH   1   9
ATOM      9  C   UNL     1       5.266   4.264  18.473  0.00  0.00    +0.000 C 
ATOM     10  O   UNL     1       5.946   3.917  19.428  0.00  0.00    +0.000 OA
BRANCH   9  11
ATOM     11  O   UNL     1       4.407   3.439  17.791  0.00  0.00    +0.000 OA
BRANCH  11  12
ATOM     12  C   UNL     1       3.687   2.493  18.588  0.00  0.00    +0.000 C 
ATOM     13  C   UNL     1       2.328   2.319  17.934  0.00  0.00    +0.000 C 
ENDBRANCH  11  12
ENDBRANCH   9  11
ENDBRANCH   1   9
BRANCH   1  14
ATOM     14  C   UNL     1       4.088   6.409  18.185  0.00  0.00    +0.000 C 
ATOM     15  O   UNL     1       3.446   7.139  17.434  0.00  0.00    +0.000 OA
BRANCH  14  16
ATOM     16  O   UNL     1       3.711   6.110  19.468  0.00  0.00    +0.000 OA
BRANCH  16  17
ATOM     17  C   UNL     1       2.306   6.204  19.741  0.00  0.00    +0.000 C 
ATOM     18  C   UNL     1       1.863   5.078  20.656  0.00  0.00    +0.000 C 
ENDBRANCH  16  17
ENDBRANCH  14  16
ENDBRANCH   1  14
BRANCH   1  19
ATOM     19  C   UNL     1       5.334   5.443  16.248  0.00  0.00    +0.000 C 
BRANCH  19  20
ATOM     20  C   UNL     1       6.588   4.771  15.725  0.00  0.00    +0.000 C 
ATOM     21  O   UNL     1       7.533   4.488  16.460  0.00  0.00    +0.000 OA
BRANCH  20  22
ATOM     22  C   UNL     1       6.687   4.446  14.273  0.00  0.00    +0.000 A 
ATOM     23  C   UNL     1       7.660   5.101  13.505  0.00  0.00    +0.000 A 
ATOM     24  C   UNL     1       7.725   4.891  12.129  0.00  0.00    +0.000 A 
ATOM     25  C   UNL     1       6.817   4.026  11.519  0.00  0.00    +0.000 A 
ATOM     26  C   UNL     1       5.857   3.349  12.277  0.00  0.00    +0.000 A 
ATOM     27  C   UNL     1       5.807   3.548  13.657  0.00  0.00    +0.000 A 
BRANCH  26  28
ATOM     28  O   UNL     1       5.014   2.544  11.562  0.00  0.00    +0.000 OA
ATOM     29  C   UNL     1       3.864   3.166  10.997  0.00  0.00    +0.000 C 
ENDBRANCH  26  28
ENDBRANCH  20  22
ENDBRANCH  19  20
ENDBRANCH   1  19
TORSDOF 12
ENDMDL
MODEL 4
REMARK VINA RESULT:      -7.1      1.548      6.633
REMARK  Name = 
REMARK  16 active torsions:
REMARK  status: ('A' for Active; 'I' for Inactive)
REMARK    1  A    between atoms: C_1  and  C_2
REMARK    2  A    between atoms: C_3  and  C_4
REMARK    3  A    between atoms: N_6  and  C_7
REMARK    4  A    between atoms: C_7  and  C_8
REMARK    5  A    between atoms: C_7  and  C_19
REMARK    6  A    between atoms: C_7  and  C_24
REMARK    7  A    between atoms: C_8  and  C_9
REMARK    8  A    between atoms: C_9  and  C_11
REMARK    9  A    between atoms: C_15  and  O_16
REMARK   10  A    between atoms: O_16  and  C_17
REMARK   11  A    between atoms: C_19  and  O_21
REMARK   12  A    between atoms: O_21  and  C_22
REMARK   13  A    between atoms: C_22  and  C_23
REMARK   14  A    between atoms: C_24  and  O_26
REMARK   15  A    between atoms: O_26  and  C_27
REMARK   16  A    between atoms: C_27  and  C_28
REMARK                            x       y       z     vdW  Elec       q    Type
REMARK                         _______ _______ _______ _____ _____    ______ ____
ROOT
ATOM      1  C   UNL     1       5.675   5.231  17.670  0.00  0.00    +0.000 C 
ENDROOT
BRANCH   1   4
ATOM      2  C   UNL     1       5.855   4.614  15.251  0.00  0.00    +0.000 C 
ATOM      3  O   UNL     1       6.283   5.721  14.938  0.00  0.00    +0.000 OA
ATOM      4  N   UNL     1       5.550   4.277  16.533  0.00  0.00    +0.000 N 
ATOM      5  H   UNL     1       5.307   3.322  16.779  0.00  0.00    +0.000 HD
BRANCH   2   8
ATOM      6  C   UNL     1       5.739   2.788  11.868  0.00  0.00    +0.000 C 
ATOM      7  C   UNL     1       5.884   3.781  12.971  0.00  0.00    +0.000 C 
ATOM      8  C   UNL     1       5.667   3.521  14.267  0.00  0.00    +0.000 C 
ENDBRANCH   2   8
ENDBRANCH   1   4
BRANCH   1   9
ATOM      9  C   UNL     1       5.296   4.523  18.989  0.00  0.00    +0.000 C 
ATOM     10  O   UNL     1       5.265   5.058  20.087  0.00  0.00    +0.000 OA
BRANCH   9  11
ATOM     11  O   UNL     1       5.126   3.177  18.775  0.00  0.00    +0.000 OA
BRANCH  11  12
ATOM     12  C   UNL     1       4.394   2.474  19.784  0.00  0.00    +0.000 C 
ATOM     13  C   UNL     1       2.941   2.472  19.344  0.00  0.00    +0.000 C 
ENDBRANCH  11  12
ENDBRANCH   9  11
ENDBRANCH   1   9
BRANCH   1  14
ATOM     14  C   UNL     1       7.154   5.641  17.818  0.00  0.00    +0.000 C 
ATOM     15  O   UNL     1       8.068   4.861  18.070  0.00  0.00    +0.000 OA
BRANCH  14  16
ATOM     16  O   UNL     1       7.336   6.971  17.545  0.00  0.00    +0.000 OA
BRANCH  16  17
ATOM     17  C   UNL     1       8.215   7.673  18.435  0.00  0.00    +0.000 C 
ATOM     18  C   UNL     1       8.282   9.144  18.069  0.00  0.00    +0.000 C 
ENDBRANCH  16  17
ENDBRANCH  14  16
ENDBRANCH   1  14
BRANCH   1  19
ATOM     19  C   UNL     1       4.832   6.509  17.511  0.00  0.00    +0.000 C 
BRANCH  19  20
ATOM     20  C   UNL     1       3.363   6.280  17.804  0.00  0.00    +0.000 C 
ATOM     21  O   UNL     1       2.764   5.283  17.404  0.00  0.00    +0.000 OA
BRANCH  20  22
ATOM     22  C   UNL     1       2.614   7.296  18.599  0.00  0.00    +0.000 A 
ATOM     23  C   UNL     1       2.317   7.010  19.939  0.00  0.00    +0.000 A 
ATOM     24  C   UNL     1       1.544   7.894  20.689  0.00  0.00    +0.000 A 
ATOM     25  C   UNL     1       1.066   9.064  20.100  0.00  0.00    +0.000 A 
ATOM     26  C   UNL     1       1.374   9.371  18.772  0.00  0.00    +0.000 A 
ATOM     27  C   UNL     1       2.164   8.493  18.030  0.00  0.00    +0.000 A 
BRANCH  26  28
ATOM     28  O   UNL     1       0.833  10.537  18.305  0.00  0.00    +0.000 OA
ATOM     29  C   UNL     1       0.236  11.397  19.271  0.00  0.00    +0.000 C 
ENDBRANCH  26  28
ENDBRANCH  20  22
ENDBRANCH  19  20
ENDBRANCH   1  19
TORSDOF 12
ENDMDL
MODEL 5
REMARK VINA RESULT:      -7.0      1.645      6.650
REMARK  Name = 
REMARK  16 active torsions:
REMARK  status: ('A' for Active; 'I' for Inactive)
REMARK    1  A    between atoms: C_1  and  C_2
REMARK    2  A    between atoms: C_3  and  C_4
REMARK    3  A    between atoms: N_6  and  C_7
REMARK    4  A    between atoms: C_7  and  C_8
REMARK    5  A    between atoms: C_7  and  C_19
REMARK    6  A    between atoms: C_7  and  C_24
REMARK    7  A    between atoms: C_8  and  C_9
REMARK    8  A    between atoms: C_9  and  C_11
REMARK    9  A    between atoms: C_15  and  O_16
REMARK   10  A    between atoms: O_16  and  C_17
REMARK   11  A    between atoms: C_19  and  O_21
REMARK   12  A    between atoms: O_21  and  C_22
REMARK   13  A    between atoms: C_22  and  C_23
REMARK   14  A    between atoms: C_24  and  O_26
REMARK   15  A    between atoms: O_26  and  C_27
REMARK   16  A    between atoms: C_27  and  C_28
REMARK                            x       y       z     vdW  Elec       q    Type
REMARK                         _______ _______ _______ _____ _____    ______ ____
ROOT
ATOM      1  C   UNL     1       5.650   5.294  17.672  0.00  0.00    +0.000 C 
ENDROOT
BRANCH   1   4
ATOM      2  C   UNL     1       6.416   4.706  15.363  0.00  0.00    +0.000 C 
ATOM      3  O   UNL     1       7.113   5.713  15.273  0.00  0.00    +0.000 OA
ATOM      4  N   UNL     1       5.691   4.410  16.475  0.00  0.00    +0.000 N 
ATOM      5  H   UNL     1       5.214   3.517  16.565  0.00  0.00    +0.000 HD
BRANCH   2   8
ATOM      6  C   UNL     1       5.380   3.050  12.050  0.00  0.00    +0.000 C 
ATOM      7  C   UNL     1       5.566   3.964  13.214  0.00  0.00    +0.000 C 
ATOM      8  C   UNL     1       6.327   3.695  14.283  0.00  0.00    +0.000 C 
ENDBRANCH   2   8
ENDBRANCH   1   4
BRANCH   1   9
ATOM      9  C   UNL     1       5.137   4.497  18.892  0.00  0.00    +0.000 C 
ATOM     10  O   UNL     1       5.098   4.919  20.038  0.00  0.00    +0.000 OA
BRANCH   9  11
ATOM     11  O   UNL     1       4.856   3.203  18.531  0.00  0.00    +0.000 OA
BRANCH  11  12
ATOM     12  C   UNL     1       4.206   2.406  19.526  0.00  0.00    +0.000 C 
ATOM     13  C   UNL     1       2.766   2.237  19.075  0.00  0.00    +0.000 C 
ENDBRANCH  11  12
ENDBRANCH   9  11
ENDBRANCH   1   9
BRANCH   1  14
ATOM     14  C   UNL     1       7.087   5.728  18.022  0.00  0.00    +0.000 C 
ATOM     15  O   UNL     1       7.964   4.968  18.424  0.00  0.00    +0.000 OA
BRANCH  14  16
ATOM     16  O   UNL     1       7.293   7.054  17.745  0.00  0.00    +0.000 OA
BRANCH  16  17
ATOM     17  C   UNL     1       8.329   7.694  18.503  0.00  0.00    +0.000 C 
ATOM     18  C   UNL     1       8.384   9.177  18.187  0.00  0.00    +0.000 C 
ENDBRANCH  16  17
ENDBRANCH  14  16
ENDBRANCH   1  14
BRANCH   1  19
ATOM     19  C   UNL     1       4.793   6.559  17.487  0.00  0.00    +0.000 C 
BRANCH  19  20
ATOM     20  C   UNL     1       3.318   6.307  17.722  0.00  0.00    +0.000 C 
ATOM     21  O   UNL     1       2.763   5.275  17.346  0.00  0.00    +0.000 OA
BRANCH  20  22
ATOM     22  C   UNL     1       2.507   7.340  18.429  0.00  0.00    +0.000 A 
ATOM     23  C   UNL     1       2.076   8.461  17.707  0.00  0.00    +0.000 A 
ATOM     24  C   UNL     1       1.393   9.490  18.352  0.00  0.00    +0.000 A 
ATOM     25  C   UNL     1       1.142   9.400  19.720  0.00  0.00    +0.000 A 
ATOM     26  C   UNL     1       1.546   8.277  20.447  0.00  0.00    +0.000 A 
ATOM     27  C   UNL     1       2.213   7.239  19.794  0.00  0.00    +0.000 A 
BRANCH  26  28
ATOM     28  O   UNL     1       1.257   8.314  21.783  0.00  0.00    +0.000 OA
ATOM     29  C   UNL     1       0.314   9.295  22.206  0.00  0.00    +0.000 C 
ENDBRANCH  26  28
ENDBRANCH  20  22
ENDBRANCH  19  20
ENDBRANCH   1  19
TORSDOF 12
ENDMDL
MODEL 6
REMARK VINA RESULT:      -6.7      2.115      6.560
REMARK  Name = 
REMARK  16 active torsions:
REMARK  status: ('A' for Active; 'I' for Inactive)
REMARK    1  A    between atoms: C_1  and  C_2
REMARK    2  A    between atoms: C_3  and  C_4
REMARK    3  A    between atoms: N_6  and  C_7
REMARK    4  A    between atoms: C_7  and  C_8
REMARK    5  A    between atoms: C_7  and  C_19
REMARK    6  A    between atoms: C_7  and  C_24
REMARK    7  A    between atoms: C_8  and  C_9
REMARK    8  A    between atoms: C_9  and  C_11
REMARK    9  A    between atoms: C_15  and  O_16
REMARK   10  A    between atoms: O_16  and  C_17
REMARK   11  A    between atoms: C_19  and  O_21
REMARK   12  A    between atoms: O_21  and  C_22
REMARK   13  A    between atoms: C_22  and  C_23
REMARK   14  A    between atoms: C_24  and  O_26
REMARK   15  A    between atoms: O_26  and  C_27
REMARK   16  A    between atoms: C_27  and  C_28
REMARK                            x       y       z     vdW  Elec       q    Type
REMARK                         _______ _______ _______ _____ _____    ______ ____
ROOT
ATOM      1  C   UNL     1       4.025   4.900  18.318  0.00  0.00    +0.000 C 
ENDROOT
BRANCH   1   4
ATOM      2  C   UNL     1       6.473   5.346  18.585  0.00  0.00    +0.000 C 
ATOM      3  O   UNL     1       6.754   4.151  18.566  0.00  0.00    +0.000 OA
ATOM      4  N   UNL     1       5.199   5.805  18.458  0.00  0.00    +0.000 N 
ATOM      5  H   UNL     1       5.008   6.798  18.364  0.00  0.00    +0.000 HD
BRANCH   2   8
ATOM      6  C   UNL     1       8.367   8.626  17.919  0.00  0.00    +0.000 C 
ATOM      7  C   UNL     1       7.413   7.480  17.911  0.00  0.00    +0.000 C 
ATOM      8  C   UNL     1       7.500   6.408  18.709  0.00  0.00    +0.000 C 
ENDBRANCH   2   8
ENDBRANCH   1   4
BRANCH   1   9
ATOM      9  C   UNL     1       4.258   3.922  17.145  0.00  0.00    +0.000 C 
ATOM     10  O   UNL     1       4.093   2.712  17.198  0.00  0.00    +0.000 OA
BRANCH   9  11
ATOM     11  O   UNL     1       4.803   4.585  16.073  0.00  0.00    +0.000 OA
BRANCH  11  12
ATOM     12  C   UNL     1       5.745   3.841  15.294  0.00  0.00    +0.000 C 
ATOM     13  C   UNL     1       6.880   4.792  14.961  0.00  0.00    +0.000 C 
ENDBRANCH  11  12
ENDBRANCH   9  11
ENDBRANCH   1   9
BRANCH   1  14
ATOM     14  C   UNL     1       3.914   4.026  19.583  0.00  0.00    +0.000 C 
ATOM     15  O   UNL     1       4.500   2.959  19.744  0.00  0.00    +0.000 OA
BRANCH  14  16
ATOM     16  O   UNL     1       3.148   4.630  20.545  0.00  0.00    +0.000 OA
BRANCH  16  17
ATOM     17  C   UNL     1       2.293   3.757  21.298  0.00  0.00    +0.000 C 
ATOM     18  C   UNL     1       1.068   3.380  20.487  0.00  0.00    +0.000 C 
ENDBRANCH  16  17
ENDBRANCH  14  16
ENDBRANCH   1  14
BRANCH   1  19
ATOM     19  C   UNL     1       2.688   5.635  18.118  0.00  0.00    +0.000 C 
BRANCH  19  20
ATOM     20  C   UNL     1       2.857   7.137  18.010  0.00  0.00    +0.000 C 
ATOM     21  O   UNL     1       3.596   7.653  17.172  0.00  0.00    +0.000 OA
BRANCH  20  22
ATOM     22  C   UNL     1       2.108   8.022  18.948  0.00  0.00    +0.000 A 
ATOM     23  C   UNL     1       1.869   7.563  20.252  0.00  0.00    +0.000 A 
ATOM     24  C   UNL     1       1.098   8.322  21.130  0.00  0.00    +0.000 A 
ATOM     25  C   UNL     1       0.565   9.539  20.707  0.00  0.00    +0.000 A 
ATOM     26  C   UNL     1       0.816  10.017  19.418  0.00  0.00    +0.000 A 
ATOM     27  C   UNL     1       1.604   9.263  18.546  0.00  0.00    +0.000 A 
BRANCH  26  28
ATOM     28  O   UNL     1       0.224  11.212  19.116  0.00  0.00    +0.000 OA
ATOM     29  C   UNL     1       1.090  12.276  18.734  0.00  0.00    +0.000 C 
ENDBRANCH  26  28
ENDBRANCH  20  22
ENDBRANCH  19  20
ENDBRANCH   1  19
TORSDOF 12
ENDMDL
MODEL 7
REMARK VINA RESULT:      -6.7      1.852      6.385
REMARK  Name = 
REMARK  16 active torsions:
REMARK  status: ('A' for Active; 'I' for Inactive)
REMARK    1  A    between atoms: C_1  and  C_2
REMARK    2  A    between atoms: C_3  and  C_4
REMARK    3  A    between atoms: N_6  and  C_7
REMARK    4  A    between atoms: C_7  and  C_8
REMARK    5  A    between atoms: C_7  and  C_19
REMARK    6  A    between atoms: C_7  and  C_24
REMARK    7  A    between atoms: C_8  and  C_9
REMARK    8  A    between atoms: C_9  and  C_11
REMARK    9  A    between atoms: C_15  and  O_16
REMARK   10  A    between atoms: O_16  and  C_17
REMARK   11  A    between atoms: C_19  and  O_21
REMARK   12  A    between atoms: O_21  and  C_22
REMARK   13  A    between atoms: C_22  and  C_23
REMARK   14  A    between atoms: C_24  and  O_26
REMARK   15  A    between atoms: O_26  and  C_27
REMARK   16  A    between atoms: C_27  and  C_28
REMARK                            x       y       z     vdW  Elec       q    Type
REMARK                         _______ _______ _______ _____ _____    ______ ____
ROOT
ATOM      1  C   UNL     1       4.380   4.884  18.179  0.00  0.00    +0.000 C 
ENDROOT
BRANCH   1   4
ATOM      2  C   UNL     1       6.807   5.449  18.408  0.00  0.00    +0.000 C 
ATOM      3  O   UNL     1       7.144   4.268  18.408  0.00  0.00    +0.000 OA
ATOM      4  N   UNL     1       5.512   5.846  18.287  0.00  0.00    +0.000 N 
ATOM      5  H   UNL     1       5.274   6.827  18.176  0.00  0.00    +0.000 HD
BRANCH   2   8
ATOM      6  C   UNL     1       8.377   8.922  17.895  0.00  0.00    +0.000 C 
ATOM      7  C   UNL     1       7.497   7.718  17.892  0.00  0.00    +0.000 C 
ATOM      8  C   UNL     1       7.785   6.560  18.499  0.00  0.00    +0.000 C 
ENDBRANCH   2   8
ENDBRANCH   1   4
BRANCH   1   9
ATOM      9  C   UNL     1       4.641   3.901  17.016  0.00  0.00    +0.000 C 
ATOM     10  O   UNL     1       4.518   2.687  17.085  0.00  0.00    +0.000 OA
BRANCH   9  11
ATOM     11  O   UNL     1       5.158   4.569  15.934  0.00  0.00    +0.000 OA
BRANCH  11  12
ATOM     12  C   UNL     1       6.124   3.850  15.162  0.00  0.00    +0.000 C 
ATOM     13  C   UNL     1       5.694   3.966  13.711  0.00  0.00    +0.000 C 
ENDBRANCH  11  12
ENDBRANCH   9  11
ENDBRANCH   1   9
BRANCH   1  14
ATOM     14  C   UNL     1       4.329   4.025  19.458  0.00  0.00    +0.000 C 
ATOM     15  O   UNL     1       5.133   3.137  19.731  0.00  0.00    +0.000 OA
BRANCH  14  16
ATOM     16  O   UNL     1       3.327   4.434  20.298  0.00  0.00    +0.000 OA
BRANCH  16  17
ATOM     17  C   UNL     1       2.533   3.387  20.874  0.00  0.00    +0.000 C 
ATOM     18  C   UNL     1       1.074   3.552  20.492  0.00  0.00    +0.000 C 
ENDBRANCH  16  17
ENDBRANCH  14  16
ENDBRANCH   1  14
BRANCH   1  19
ATOM     19  C   UNL     1       3.007   5.553  17.989  0.00  0.00    +0.000 C 
BRANCH  19  20
ATOM     20  C   UNL     1       3.115   7.026  17.652  0.00  0.00    +0.000 C 
ATOM     21  O   UNL     1       3.881   7.443  16.785  0.00  0.00    +0.000 OA
BRANCH  20  22
ATOM     22  C   UNL     1       2.271   8.005  18.396  0.00  0.00    +0.000 A 
ATOM     23  C   UNL     1       1.873   9.179  17.740  0.00  0.00    +0.000 A 
ATOM     24  C   UNL     1       1.160  10.158  18.428  0.00  0.00    +0.000 A 
ATOM     25  C   UNL     1       0.844   9.966  19.773  0.00  0.00    +0.000 A 
ATOM     26  C   UNL     1       1.215   8.791  20.432  0.00  0.00    +0.000 A 
ATOM     27  C   UNL     1       1.914   7.804  19.734  0.00  0.00    +0.000 A 
BRANCH  26  28
ATOM     28  O   UNL     1       0.864   8.728  21.752  0.00  0.00    +0.000 OA
ATOM     29  C   UNL     1      -0.511   8.491  22.037  0.00  0.00    +0.000 C 
ENDBRANCH  26  28
ENDBRANCH  20  22
ENDBRANCH  19  20
ENDBRANCH   1  19
TORSDOF 12
ENDMDL
MODEL 8
REMARK VINA RESULT:      -6.6      0.891      1.355
REMARK  Name = 
REMARK  16 active torsions:
REMARK  status: ('A' for Active; 'I' for Inactive)
REMARK    1  A    between atoms: C_1  and  C_2
REMARK    2  A    between atoms: C_3  and  C_4
REMARK    3  A    between atoms: N_6  and  C_7
REMARK    4  A    between atoms: C_7  and  C_8
REMARK    5  A    between atoms: C_7  and  C_19
REMARK    6  A    between atoms: C_7  and  C_24
REMARK    7  A    between atoms: C_8  and  C_9
REMARK    8  A    between atoms: C_9  and  C_11
REMARK    9  A    between atoms: C_15  and  O_16
REMARK   10  A    between atoms: O_16  and  C_17
REMARK   11  A    between atoms: C_19  and  O_21
REMARK   12  A    between atoms: O_21  and  C_22
REMARK   13  A    between atoms: C_22  and  C_23
REMARK   14  A    between atoms: C_24  and  O_26
REMARK   15  A    between atoms: O_26  and  C_27
REMARK   16  A    between atoms: C_27  and  C_28
REMARK                            x       y       z     vdW  Elec       q    Type
REMARK                         _______ _______ _______ _____ _____    ______ ____
ROOT
ATOM      1  C   UNL     1       4.890   5.394  17.943  0.00  0.00    +0.000 C 
ENDROOT
BRANCH   1   4
ATOM      2  C   UNL     1       7.270   6.129  18.182  0.00  0.00    +0.000 C 
ATOM      3  O   UNL     1       7.696   4.980  18.103  0.00  0.00    +0.000 OA
ATOM      4  N   UNL     1       5.946   6.431  18.101  0.00  0.00    +0.000 N 
ATOM      5  H   UNL     1       5.633   7.396  18.055  0.00  0.00    +0.000 HD
BRANCH   2   8
ATOM      6  C   UNL     1       8.554   9.742  17.889  0.00  0.00    +0.000 C 
ATOM      7  C   UNL     1       7.770   8.476  17.816  0.00  0.00    +0.000 C 
ATOM      8  C   UNL     1       8.161   7.304  18.333  0.00  0.00    +0.000 C 
ENDBRANCH   2   8
ENDBRANCH   1   4
BRANCH   1   9
ATOM      9  C   UNL     1       4.948   4.405  19.128  0.00  0.00    +0.000 C 
ATOM     10  O   UNL     1       4.993   4.728  20.306  0.00  0.00    +0.000 OA
BRANCH   9  11
ATOM     11  O   UNL     1       5.074   3.118  18.670  0.00  0.00    +0.000 OA
BRANCH  11  12
ATOM     12  C   UNL     1       4.320   2.128  19.377  0.00  0.00    +0.000 C 
ATOM     13  C   UNL     1       3.557   1.335  18.332  0.00  0.00    +0.000 C 
ENDBRANCH  11  12
ENDBRANCH   9  11
ENDBRANCH   1   9
BRANCH   1  14
ATOM     14  C   UNL     1       3.508   6.072  18.023  0.00  0.00    +0.000 C 
ATOM     15  O   UNL     1       3.239   7.162  17.524  0.00  0.00    +0.000 OA
BRANCH  14  16
ATOM     16  O   UNL     1       2.589   5.269  18.645  0.00  0.00    +0.000 OA
BRANCH  16  17
ATOM     17  C   UNL     1       1.597   4.682  17.792  0.00  0.00    +0.000 C 
ATOM     18  C   UNL     1       0.974   3.467  18.453  0.00  0.00    +0.000 C 
ENDBRANCH  16  17
ENDBRANCH  14  16
ENDBRANCH   1  14
BRANCH   1  19
ATOM     19  C   UNL     1       4.970   4.614  16.618  0.00  0.00    +0.000 C 
BRANCH  19  20
ATOM     20  C   UNL     1       5.417   5.480  15.457  0.00  0.00    +0.000 C 
ATOM     21  O   UNL     1       5.295   6.704  15.470  0.00  0.00    +0.000 OA
BRANCH  20  22
ATOM     22  C   UNL     1       6.020   4.831  14.257  0.00  0.00    +0.000 A 
ATOM     23  C   UNL     1       7.252   5.307  13.787  0.00  0.00    +0.000 A 
ATOM     24  C   UNL     1       7.805   4.787  12.619  0.00  0.00    +0.000 A 
ATOM     25  C   UNL     1       7.126   3.791  11.918  0.00  0.00    +0.000 A 
ATOM     26  C   UNL     1       5.908   3.292  12.388  0.00  0.00    +0.000 A 
ATOM     27  C   UNL     1       5.366   3.802  13.568  0.00  0.00    +0.000 A 
BRANCH  26  28
ATOM     28  O   UNL     1       5.332   2.331  11.603  0.00  0.00    +0.000 OA
ATOM     29  C   UNL     1       6.166   1.248  11.204  0.00  0.00    +0.000 C 
ENDBRANCH  26  28
ENDBRANCH  20  22
ENDBRANCH  19  20
ENDBRANCH   1  19
TORSDOF 12
ENDMDL
MODEL 9
REMARK VINA RESULT:      -6.6      1.694      6.439
REMARK  Name = 
REMARK  16 active torsions:
REMARK  status: ('A' for Active; 'I' for Inactive)
REMARK    1  A    between atoms: C_1  and  C_2
REMARK    2  A    between atoms: C_3  and  C_4
REMARK    3  A    between atoms: N_6  and  C_7
REMARK    4  A    between atoms: C_7  and  C_8
REMARK    5  A    between atoms: C_7  and  C_19
REMARK    6  A    between atoms: C_7  and  C_24
REMARK    7  A    between atoms: C_8  and  C_9
REMARK    8  A    between atoms: C_9  and  C_11
REMARK    9  A    between atoms: C_15  and  O_16
REMARK   10  A    between atoms: O_16  and  C_17
REMARK   11  A    between atoms: C_19  and  O_21
REMARK   12  A    between atoms: O_21  and  C_22
REMARK   13  A    between atoms: C_22  and  C_23
REMARK   14  A    between atoms: C_24  and  O_26
REMARK   15  A    between atoms: O_26  and  C_27
REMARK   16  A    between atoms: C_27  and  C_28
REMARK                            x       y       z     vdW  Elec       q    Type
REMARK                         _______ _______ _______ _____ _____    ______ ____
ROOT
ATOM      1  C   UNL     1       5.404   4.998  17.630  0.00  0.00    +0.000 C 
ENDROOT
BRANCH   1   4
ATOM      2  C   UNL     1       7.006   6.921  17.639  0.00  0.00    +0.000 C 
ATOM      3  O   UNL     1       6.649   7.301  16.528  0.00  0.00    +0.000 OA
ATOM      4  N   UNL     1       6.460   5.840  18.258  0.00  0.00    +0.000 N 
ATOM      5  H   UNL     1       6.693   5.616  19.221  0.00  0.00    +0.000 HD
BRANCH   2   8
ATOM      6  C   UNL     1       9.251   9.773  18.911  0.00  0.00    +0.000 C 
ATOM      7  C   UNL     1       8.251   8.929  18.195  0.00  0.00    +0.000 C 
ATOM      8  C   UNL     1       8.038   7.629  18.434  0.00  0.00    +0.000 C 
ENDBRANCH   2   8
ENDBRANCH   1   4
BRANCH   1   9
ATOM      9  C   UNL     1       5.901   4.470  16.266  0.00  0.00    +0.000 C 
ATOM     10  O   UNL     1       6.985   3.939  16.074  0.00  0.00    +0.000 OA
BRANCH   9  11
ATOM     11  O   UNL     1       5.011   4.799  15.275  0.00  0.00    +0.000 OA
BRANCH  11  12
ATOM     12  C   UNL     1       5.569   4.971  13.968  0.00  0.00    +0.000 C 
ATOM     13  C   UNL     1       5.212   3.726  13.176  0.00  0.00    +0.000 C 
ENDBRANCH  11  12
ENDBRANCH   9  11
ENDBRANCH   1   9
BRANCH   1  14
ATOM     14  C   UNL     1       5.172   3.752  18.508  0.00  0.00    +0.000 C 
ATOM     15  O   UNL     1       5.654   3.590  19.626  0.00  0.00    +0.000 OA
BRANCH  14  16
ATOM     16  O   UNL     1       4.287   2.883  17.923  0.00  0.00    +0.000 OA
BRANCH  16  17
ATOM     17  C   UNL     1       3.373   2.233  18.816  0.00  0.00    +0.000 C 
ATOM     18  C   UNL     1       1.943   2.413  18.340  0.00  0.00    +0.000 C 
ENDBRANCH  16  17
ENDBRANCH  14  16
ENDBRANCH   1  14
BRANCH   1  19
ATOM     19  C   UNL     1       4.057   5.718  17.444  0.00  0.00    +0.000 C 
BRANCH  19  20
ATOM     20  C   UNL     1       3.460   6.188  18.755  0.00  0.00    +0.000 C 
ATOM     21  O   UNL     1       3.656   5.593  19.814  0.00  0.00    +0.000 OA
BRANCH  20  22
ATOM     22  C   UNL     1       2.603   7.409  18.766  0.00  0.00    +0.000 A 
ATOM     23  C   UNL     1       2.589   8.227  17.628  0.00  0.00    +0.000 A 
ATOM     24  C   UNL     1       1.871   9.421  17.632  0.00  0.00    +0.000 A 
ATOM     25  C   UNL     1       1.168   9.800  18.775  0.00  0.00    +0.000 A 
ATOM     26  C   UNL     1       1.155   8.982  19.908  0.00  0.00    +0.000 A 
ATOM     27  C   UNL     1       1.860   7.777  19.894  0.00  0.00    +0.000 A 
BRANCH  26  28
ATOM     28  O   UNL     1       0.444   9.470  20.969  0.00  0.00    +0.000 OA
ATOM     29  C   UNL     1       1.005   9.264  22.263  0.00  0.00    +0.000 C 
ENDBRANCH  26  28
ENDBRANCH  20  22
ENDBRANCH  19  20
ENDBRANCH   1  19
TORSDOF 12
ENDMDL
