MODEL 1
REMARK VINA RESULT:      -8.0      0.000      0.000
REMARK  Name = 
REMARK  7 active torsions:
REMARK  status: ('A' for Active; 'I' for Inactive)
REMARK    1  A    between atoms: C_1  and  O_2
REMARK    2  A    between atoms: O_2  and  C_3
REMARK    3  A    between atoms: C_6  and  C_7
REMARK    4  A    between atoms: C_7  and  C_8
REMARK    5  A    between atoms: N_10  and  C_11
REMARK    6  A    between atoms: C_14  and  C_15
REMARK    7  A    between atoms: C_24  and  C_25
REMARK                            x       y       z     vdW  Elec       q    Type
REMARK                         _______ _______ _______ _____ _____    ______ ____
ROOT
ATOM      1  C   UNL     1       2.525   7.265  18.682  0.00  0.00    +0.000 A 
ATOM      2  C   UNL     1       2.246   8.271  17.763  0.00  0.00    +0.000 A 
ATOM      3  C   UNL     1       1.509   9.399  18.156  0.00  0.00    +0.000 A 
ATOM      4  C   UNL     1       1.076   9.576  19.491  0.00  0.00    +0.000 A 
ATOM      5  C   UNL     1       1.418   8.573  20.427  0.00  0.00    +0.000 A 
ATOM      6  C   UNL     1       1.128   8.653  21.904  0.00  0.00    +0.000 C 
ATOM      7  C   UNL     1       2.078   7.405  19.994  0.00  0.00    +0.000 A 
ENDROOT
BRANCH   4   8
ATOM      8  C   UNL     1       0.222  10.729  19.862  0.00  0.00    +0.000 A 
ATOM      9  N   UNL     1      -1.084  10.751  19.678  0.00  0.00    +0.000 NA
ATOM     10  C   UNL     1      -1.622  11.953  20.090  0.00  0.00    +0.000 A 
ATOM     11  C   UNL     1      -2.986  12.298  20.037  0.00  0.00    +0.000 A 
ATOM     12  C   UNL     1      -3.397  13.573  20.429  0.00  0.00    +0.000 A 
ATOM     13  C   UNL     1      -2.464  14.499  20.884  0.00  0.00    +0.000 A 
ATOM     14  C   UNL     1      -1.102  14.170  20.976  0.00  0.00    +0.000 A 
ATOM     15  C   UNL     1      -0.702  12.886  20.571  0.00  0.00    +0.000 A 
ATOM     16  S   UNL     1       0.866  12.171  20.557  0.00  0.00    +0.000 S 
ENDBRANCH   4   8
BRANCH   1  19
ATOM     17  C   UNL     1       2.629   4.938  17.892  0.00  0.00    +0.000 C 
ATOM     18  O   UNL     1       1.421   4.802  17.705  0.00  0.00    +0.000 OA
ATOM     19  N   UNL     1       3.238   6.095  18.352  0.00  0.00    +0.000 N 
ATOM     20  H   UNL     1       4.209   6.212  18.087  0.00  0.00    +0.000 HD
BRANCH  17  21
ATOM     21  C   UNL     1       3.607   3.814  17.586  0.00  0.00    +0.000 C 
BRANCH  21  25
ATOM     22  C   UNL     1       7.049   4.995  15.215  0.00  0.00    +0.000 A 
ATOM     23  C   UNL     1       5.814   4.737  14.623  0.00  0.00    +0.000 A 
ATOM     24  C   UNL     1       4.718   4.350  15.400  0.00  0.00    +0.000 A 
ATOM     25  C   UNL     1       4.840   4.185  16.788  0.00  0.00    +0.000 A 
ATOM     26  C   UNL     1       6.080   4.459  17.378  0.00  0.00    +0.000 A 
ATOM     27  C   UNL     1       7.180   4.852  16.596  0.00  0.00    +0.000 A 
BRANCH  22  29
ATOM     28  C   UNL     1       7.746   5.230  12.958  0.00  0.00    +0.000 C 
ATOM     29  O   UNL     1       8.040   5.352  14.344  0.00  0.00    +0.000 OA
ENDBRANCH  22  29
ENDBRANCH  21  25
ENDBRANCH  17  21
ENDBRANCH   1  19
TORSDOF 5
ENDMDL
MODEL 2
REMARK VINA RESULT:      -8.0      7.493      8.763
REMARK  Name = 
REMARK  7 active torsions:
REMARK  status: ('A' for Active; 'I' for Inactive)
REMARK    1  A    between atoms: C_1  and  O_2
REMARK    2  A    between atoms: O_2  and  C_3
REMARK    3  A    between atoms: C_6  and  C_7
REMARK    4  A    between atoms: C_7  and  C_8
REMARK    5  A    between atoms: N_10  and  C_11
REMARK    6  A    between atoms: C_14  and  C_15
REMARK    7  A    between atoms: C_24  and  C_25
REMARK                            x       y       z     vdW  Elec       q    Type
REMARK                         _______ _______ _______ _____ _____    ______ ____
ROOT
ATOM      1  C   UNL     1       8.867   9.682  18.780  0.00  0.00    +0.000 A 
ATOM      2  C   UNL     1       8.202  10.417  17.803  0.00  0.00    +0.000 A 
ATOM      3  C   UNL     1       8.510  11.773  17.609  0.00  0.00    +0.000 A 
ATOM      4  C   UNL     1       9.528  12.416  18.352  0.00  0.00    +0.000 A 
ATOM      5  C   UNL     1      10.235  11.641  19.299  0.00  0.00    +0.000 A 
ATOM      6  C   UNL     1      11.413  12.138  20.098  0.00  0.00    +0.000 C 
ATOM      7  C   UNL     1       9.849  10.308  19.544  0.00  0.00    +0.000 A 
ENDROOT
BRANCH   4   8
ATOM      8  C   UNL     1       9.774  13.869  18.196  0.00  0.00    +0.000 A 
ATOM      9  N   UNL     1       8.962  14.795  18.669  0.00  0.00    +0.000 NA
ATOM     10  C   UNL     1       9.420  16.060  18.360  0.00  0.00    +0.000 A 
ATOM     11  C   UNL     1       8.793  17.267  18.722  0.00  0.00    +0.000 A 
ATOM     12  C   UNL     1       9.326  18.484  18.295  0.00  0.00    +0.000 A 
ATOM     13  C   UNL     1      10.482  18.508  17.523  0.00  0.00    +0.000 A 
ATOM     14  C   UNL     1      11.145  17.320  17.173  0.00  0.00    +0.000 A 
ATOM     15  C   UNL     1      10.593  16.103  17.604  0.00  0.00    +0.000 A 
ATOM     16  S   UNL     1      11.146  14.490  17.355  0.00  0.00    +0.000 S 
ENDBRANCH   4   8
BRANCH   1  19
ATOM     17  C   UNL     1       8.014   7.473  18.116  0.00  0.00    +0.000 C 
ATOM     18  O   UNL     1       7.694   7.788  16.971  0.00  0.00    +0.000 OA
ATOM     19  N   UNL     1       8.592   8.325  19.044  0.00  0.00    +0.000 N 
ATOM     20  H   UNL     1       9.152   7.877  19.760  0.00  0.00    +0.000 HD
BRANCH  17  21
ATOM     21  C   UNL     1       7.830   6.051  18.625  0.00  0.00    +0.000 C 
BRANCH  21  25
ATOM     22  C   UNL     1       4.177   4.092  17.330  0.00  0.00    +0.000 A 
ATOM     23  C   UNL     1       4.235   4.801  18.529  0.00  0.00    +0.000 A 
ATOM     24  C   UNL     1       5.421   5.419  18.936  0.00  0.00    +0.000 A 
ATOM     25  C   UNL     1       6.588   5.319  18.162  0.00  0.00    +0.000 A 
ATOM     26  C   UNL     1       6.519   4.618  16.951  0.00  0.00    +0.000 A 
ATOM     27  C   UNL     1       5.325   4.001  16.543  0.00  0.00    +0.000 A 
BRANCH  22  29
ATOM     28  C   UNL     1       2.637   2.340  17.770  0.00  0.00    +0.000 C 
ATOM     29  O   UNL     1       2.964   3.525  17.055  0.00  0.00    +0.000 OA
ENDBRANCH  22  29
ENDBRANCH  21  25
ENDBRANCH  17  21
ENDBRANCH   1  19
TORSDOF 5
ENDMDL
MODEL 3
REMARK VINA RESULT:      -7.9      0.802      1.181
REMARK  Name = 
REMARK  7 active torsions:
REMARK  status: ('A' for Active; 'I' for Inactive)
REMARK    1  A    between atoms: C_1  and  O_2
REMARK    2  A    between atoms: O_2  and  C_3
REMARK    3  A    between atoms: C_6  and  C_7
REMARK    4  A    between atoms: C_7  and  C_8
REMARK    5  A    between atoms: N_10  and  C_11
REMARK    6  A    between atoms: C_14  and  C_15
REMARK    7  A    between atoms: C_24  and  C_25
REMARK                            x       y       z     vdW  Elec       q    Type
REMARK                         _______ _______ _______ _____ _____    ______ ____
ROOT
ATOM      1  C   UNL     1       2.593   7.163  18.552  0.00  0.00    +0.000 A 
ATOM      2  C   UNL     1       2.310   8.188  17.656  0.00  0.00    +0.000 A 
ATOM      3  C   UNL     1       1.555   9.298  18.072  0.00  0.00    +0.000 A 
ATOM      4  C   UNL     1       1.109   9.434  19.408  0.00  0.00    +0.000 A 
ATOM      5  C   UNL     1       1.456   8.412  20.320  0.00  0.00    +0.000 A 
ATOM      6  C   UNL     1       1.153   8.450  21.796  0.00  0.00    +0.000 C 
ATOM      7  C   UNL     1       2.134   7.264  19.863  0.00  0.00    +0.000 A 
ENDROOT
BRANCH   4   8
ATOM      8  C   UNL     1       0.237  10.566  19.801  0.00  0.00    +0.000 A 
ATOM      9  N   UNL     1       0.539  11.411  20.768  0.00  0.00    +0.000 NA
ATOM     10  C   UNL     1      -0.460  12.349  20.936  0.00  0.00    +0.000 A 
ATOM     11  C   UNL     1      -0.448  13.395  21.878  0.00  0.00    +0.000 A 
ATOM     12  C   UNL     1      -1.550  14.244  21.990  0.00  0.00    +0.000 A 
ATOM     13  C   UNL     1      -2.655  14.066  21.165  0.00  0.00    +0.000 A 
ATOM     14  C   UNL     1      -2.681  13.049  20.196  0.00  0.00    +0.000 A 
ATOM     15  C   UNL     1      -1.567  12.198  20.100  0.00  0.00    +0.000 A 
ATOM     16  S   UNL     1      -1.279  10.874  19.036  0.00  0.00    +0.000 S 
ENDBRANCH   4   8
BRANCH   1  19
ATOM     17  C   UNL     1       2.728   4.800  17.881  0.00  0.00    +0.000 C 
ATOM     18  O   UNL     1       1.516   4.596  17.856  0.00  0.00    +0.000 OA
ATOM     19  N   UNL     1       3.324   6.011  18.198  0.00  0.00    +0.000 N 
ATOM     20  H   UNL     1       4.247   6.159  17.807  0.00  0.00    +0.000 HD
BRANCH  17  21
ATOM     21  C   UNL     1       3.722   3.708  17.515  0.00  0.00    +0.000 C 
BRANCH  21  25
ATOM     22  C   UNL     1       7.093   5.042  15.125  0.00  0.00    +0.000 A 
ATOM     23  C   UNL     1       5.861   4.751  14.542  0.00  0.00    +0.000 A 
ATOM     24  C   UNL     1       4.788   4.315  15.325  0.00  0.00    +0.000 A 
ATOM     25  C   UNL     1       4.932   4.133  16.709  0.00  0.00    +0.000 A 
ATOM     26  C   UNL     1       6.168   4.442  17.290  0.00  0.00    +0.000 A 
ATOM     27  C   UNL     1       7.244   4.885  16.502  0.00  0.00    +0.000 A 
BRANCH  22  29
ATOM     28  C   UNL     1       7.801   5.231  12.867  0.00  0.00    +0.000 C 
ATOM     29  O   UNL     1       8.062   5.446  14.249  0.00  0.00    +0.000 OA
ENDBRANCH  22  29
ENDBRANCH  21  25
ENDBRANCH  17  21
ENDBRANCH   1  19
TORSDOF 5
ENDMDL
MODEL 4
REMARK VINA RESULT:      -7.8      7.393      8.744
REMARK  Name = 
REMARK  7 active torsions:
REMARK  status: ('A' for Active; 'I' for Inactive)
REMARK    1  A    between atoms: C_1  and  O_2
REMARK    2  A    between atoms: O_2  and  C_3
REMARK    3  A    between atoms: C_6  and  C_7
REMARK    4  A    between atoms: C_7  and  C_8
REMARK    5  A    between atoms: N_10  and  C_11
REMARK    6  A    between atoms: C_14  and  C_15
REMARK    7  A    between atoms: C_24  and  C_25
REMARK                            x       y       z     vdW  Elec       q    Type
REMARK                         _______ _______ _______ _____ _____    ______ ____
ROOT
ATOM      1  C   UNL     1       8.807   9.605  18.723  0.00  0.00    +0.000 A 
ATOM      2  C   UNL     1       8.231  10.321  17.679  0.00  0.00    +0.000 A 
ATOM      3  C   UNL     1       8.454  11.703  17.566  0.00  0.00    +0.000 A 
ATOM      4  C   UNL     1       9.301  12.395  18.464  0.00  0.00    +0.000 A 
ATOM      5  C   UNL     1       9.925  11.642  19.484  0.00  0.00    +0.000 A 
ATOM      6  C   UNL     1      10.933  12.198  20.457  0.00  0.00    +0.000 C 
ATOM      7  C   UNL     1       9.617  10.275  19.637  0.00  0.00    +0.000 A 
ENDROOT
BRANCH   4   8
ATOM      8  C   UNL     1       9.448  13.867  18.382  0.00  0.00    +0.000 A 
ATOM      9  N   UNL     1      10.368  14.463  17.648  0.00  0.00    +0.000 NA
ATOM     10  C   UNL     1      10.292  15.835  17.777  0.00  0.00    +0.000 A 
ATOM     11  C   UNL     1      11.124  16.764  17.123  0.00  0.00    +0.000 A 
ATOM     12  C   UNL     1      10.985  18.128  17.385  0.00  0.00    +0.000 A 
ATOM     13  C   UNL     1      10.018  18.572  18.280  0.00  0.00    +0.000 A 
ATOM     14  C   UNL     1       9.155  17.670  18.923  0.00  0.00    +0.000 A 
ATOM     15  C   UNL     1       9.312  16.299  18.655  0.00  0.00    +0.000 A 
ATOM     16  S   UNL     1       8.432  14.949  19.264  0.00  0.00    +0.000 S 
ENDBRANCH   4   8
BRANCH   1  19
ATOM     17  C   UNL     1       7.858   7.439  18.047  0.00  0.00    +0.000 C 
ATOM     18  O   UNL     1       7.303   7.845  17.027  0.00  0.00    +0.000 OA
ATOM     19  N   UNL     1       8.607   8.222  18.910  0.00  0.00    +0.000 N 
ATOM     20  H   UNL     1       9.309   7.729  19.450  0.00  0.00    +0.000 HD
BRANCH  17  21
ATOM     21  C   UNL     1       7.799   5.973  18.448  0.00  0.00    +0.000 C 
BRANCH  21  25
ATOM     22  C   UNL     1       3.901   4.112  18.001  0.00  0.00    +0.000 A 
ATOM     23  C   UNL     1       4.235   4.828  19.149  0.00  0.00    +0.000 A 
ATOM     24  C   UNL     1       5.498   5.415  19.280  0.00  0.00    +0.000 A 
ATOM     25  C   UNL     1       6.467   5.273  18.275  0.00  0.00    +0.000 A 
ATOM     26  C   UNL     1       6.119   4.565  17.118  0.00  0.00    +0.000 A 
ATOM     27  C   UNL     1       4.848   3.980  16.986  0.00  0.00    +0.000 A 
BRANCH  22  29
ATOM     28  C   UNL     1       2.543   2.178  17.783  0.00  0.00    +0.000 C 
ATOM     29  O   UNL     1       2.642   3.579  18.003  0.00  0.00    +0.000 OA
ENDBRANCH  22  29
ENDBRANCH  21  25
ENDBRANCH  17  21
ENDBRANCH   1  19
TORSDOF 5
ENDMDL
MODEL 5
REMARK VINA RESULT:      -7.7      1.121      1.888
REMARK  Name = 
REMARK  7 active torsions:
REMARK  status: ('A' for Active; 'I' for Inactive)
REMARK    1  A    between atoms: C_1  and  O_2
REMARK    2  A    between atoms: O_2  and  C_3
REMARK    3  A    between atoms: C_6  and  C_7
REMARK    4  A    between atoms: C_7  and  C_8
REMARK    5  A    between atoms: N_10  and  C_11
REMARK    6  A    between atoms: C_14  and  C_15
REMARK    7  A    between atoms: C_24  and  C_25
REMARK                            x       y       z     vdW  Elec       q    Type
REMARK                         _______ _______ _______ _____ _____    ______ ____
ROOT
ATOM      1  C   UNL     1       2.412   7.008  19.679  0.00  0.00    +0.000 A 
ATOM      2  C   UNL     1       1.673   7.111  20.853  0.00  0.00    +0.000 A 
ATOM      3  C   UNL     1       0.899   8.256  21.100  0.00  0.00    +0.000 A 
ATOM      4  C   UNL     1       0.802   9.305  20.156  0.00  0.00    +0.000 A 
ATOM      5  C   UNL     1       1.511   9.159  18.942  0.00  0.00    +0.000 A 
ATOM      6  C   UNL     1       1.436  10.127  17.790  0.00  0.00    +0.000 C 
ATOM      7  C   UNL     1       2.355   8.046  18.752  0.00  0.00    +0.000 A 
ENDROOT
BRANCH   4   8
ATOM      8  C   UNL     1       0.054  10.543  20.476  0.00  0.00    +0.000 A 
ATOM      9  N   UNL     1       0.372  11.343  21.476  0.00  0.00    +0.000 NA
ATOM     10  C   UNL     1      -0.505  12.406  21.559  0.00  0.00    +0.000 A 
ATOM     11  C   UNL     1      -0.443  13.443  22.508  0.00  0.00    +0.000 A 
ATOM     12  C   UNL     1      -1.429  14.431  22.524  0.00  0.00    +0.000 A 
ATOM     13  C   UNL     1      -2.465  14.399  21.597  0.00  0.00    +0.000 A 
ATOM     14  C   UNL     1      -2.533  13.393  20.620  0.00  0.00    +0.000 A 
ATOM     15  C   UNL     1      -1.538  12.402  20.621  0.00  0.00    +0.000 A 
ATOM     16  S   UNL     1      -1.329  11.048  19.576  0.00  0.00    +0.000 S 
ENDBRANCH   4   8
BRANCH   1  19
ATOM     17  C   UNL     1       2.730   4.699  18.893  0.00  0.00    +0.000 C 
ATOM     18  O   UNL     1       1.546   4.470  18.658  0.00  0.00    +0.000 OA
ATOM     19  N   UNL     1       3.228   5.899  19.377  0.00  0.00    +0.000 N 
ATOM     20  H   UNL     1       4.197   6.093  19.152  0.00  0.00    +0.000 HD
BRANCH  17  21
ATOM     21  C   UNL     1       3.806   3.657  18.626  0.00  0.00    +0.000 C 
BRANCH  21  25
ATOM     22  C   UNL     1       6.883   4.902  15.826  0.00  0.00    +0.000 A 
ATOM     23  C   UNL     1       5.612   4.531  15.390  0.00  0.00    +0.000 A 
ATOM     24  C   UNL     1       4.635   4.124  16.304  0.00  0.00    +0.000 A 
ATOM     25  C   UNL     1       4.917   4.054  17.677  0.00  0.00    +0.000 A 
ATOM     26  C   UNL     1       6.191   4.444  18.110  0.00  0.00    +0.000 A 
ATOM     27  C   UNL     1       7.170   4.856  17.190  0.00  0.00    +0.000 A 
BRANCH  22  29
ATOM     28  C   UNL     1       7.374   4.922  13.504  0.00  0.00    +0.000 C 
ATOM     29  O   UNL     1       7.748   5.266  14.832  0.00  0.00    +0.000 OA
ENDBRANCH  22  29
ENDBRANCH  21  25
ENDBRANCH  17  21
ENDBRANCH   1  19
TORSDOF 5
ENDMDL
MODEL 6
REMARK VINA RESULT:      -7.7      1.138      1.706
REMARK  Name = 
REMARK  7 active torsions:
REMARK  status: ('A' for Active; 'I' for Inactive)
REMARK    1  A    between atoms: C_1  and  O_2
REMARK    2  A    between atoms: O_2  and  C_3
REMARK    3  A    between atoms: C_6  and  C_7
REMARK    4  A    between atoms: C_7  and  C_8
REMARK    5  A    between atoms: N_10  and  C_11
REMARK    6  A    between atoms: C_14  and  C_15
REMARK    7  A    between atoms: C_24  and  C_25
REMARK                            x       y       z     vdW  Elec       q    Type
REMARK                         _______ _______ _______ _____ _____    ______ ____
ROOT
ATOM      1  C   UNL     1       2.584   6.499  19.409  0.00  0.00    +0.000 A 
ATOM      2  C   UNL     1       1.872   6.416  20.602  0.00  0.00    +0.000 A 
ATOM      3  C   UNL     1       1.098   7.504  21.036  0.00  0.00    +0.000 A 
ATOM      4  C   UNL     1       0.974   8.683  20.265  0.00  0.00    +0.000 A 
ATOM      5  C   UNL     1       1.656   8.729  19.027  0.00  0.00    +0.000 A 
ATOM      6  C   UNL     1       1.549   9.860  18.038  0.00  0.00    +0.000 C 
ATOM      7  C   UNL     1       2.501   7.665  18.652  0.00  0.00    +0.000 A 
ENDROOT
BRANCH   4   8
ATOM      8  C   UNL     1       0.228   9.853  20.786  0.00  0.00    +0.000 A 
ATOM      9  N   UNL     1      -0.237  10.817  20.016  0.00  0.00    +0.000 NA
ATOM     10  C   UNL     1      -0.868  11.789  20.765  0.00  0.00    +0.000 A 
ATOM     11  C   UNL     1      -1.479  12.949  20.251  0.00  0.00    +0.000 A 
ATOM     12  C   UNL     1      -2.033  13.888  21.122  0.00  0.00    +0.000 A 
ATOM     13  C   UNL     1      -1.992  13.676  22.496  0.00  0.00    +0.000 A 
ATOM     14  C   UNL     1      -1.416  12.514  23.033  0.00  0.00    +0.000 A 
ATOM     15  C   UNL     1      -0.857  11.580  22.145  0.00  0.00    +0.000 A 
ATOM     16  S   UNL     1      -0.086  10.074  22.468  0.00  0.00    +0.000 S 
ENDBRANCH   4   8
BRANCH   1  19
ATOM     17  C   UNL     1       2.932   4.455  18.086  0.00  0.00    +0.000 C 
ATOM     18  O   UNL     1       1.781   4.369  17.662  0.00  0.00    +0.000 OA
ATOM     19  N   UNL     1       3.398   5.455  18.925  0.00  0.00    +0.000 N 
ATOM     20  H   UNL     1       4.393   5.639  18.874  0.00  0.00    +0.000 HD
BRANCH  17  21
ATOM     21  C   UNL     1       4.000   3.449  17.684  0.00  0.00    +0.000 C 
BRANCH  21  25
ATOM     22  C   UNL     1       7.107   5.038  15.098  0.00  0.00    +0.000 A 
ATOM     23  C   UNL     1       5.859   4.674  14.594  0.00  0.00    +0.000 A 
ATOM     24  C   UNL     1       4.872   4.157  15.439  0.00  0.00    +0.000 A 
ATOM     25  C   UNL     1       5.122   3.965  16.807  0.00  0.00    +0.000 A 
ATOM     26  C   UNL     1       6.373   4.347  17.309  0.00  0.00    +0.000 A 
ATOM     27  C   UNL     1       7.362   4.871  16.459  0.00  0.00    +0.000 A 
BRANCH  22  29
ATOM     28  C   UNL     1       7.763   5.124  12.818  0.00  0.00    +0.000 C 
ATOM     29  O   UNL     1       7.985   5.518  14.167  0.00  0.00    +0.000 OA
ENDBRANCH  22  29
ENDBRANCH  21  25
ENDBRANCH  17  21
ENDBRANCH   1  19
TORSDOF 5
ENDMDL
MODEL 7
REMARK VINA RESULT:      -7.4      3.396      4.839
REMARK  Name = 
REMARK  7 active torsions:
REMARK  status: ('A' for Active; 'I' for Inactive)
REMARK    1  A    between atoms: C_1  and  O_2
REMARK    2  A    between atoms: O_2  and  C_3
REMARK    3  A    between atoms: C_6  and  C_7
REMARK    4  A    between atoms: C_7  and  C_8
REMARK    5  A    between atoms: N_10  and  C_11
REMARK    6  A    between atoms: C_14  and  C_15
REMARK    7  A    between atoms: C_24  and  C_25
REMARK                            x       y       z     vdW  Elec       q    Type
REMARK                         _______ _______ _______ _____ _____    ______ ____
ROOT
ATOM      1  C   UNL     1       1.148   9.271  20.071  0.00  0.00    +0.000 A 
ATOM      2  C   UNL     1       0.931  10.538  19.539  0.00  0.00    +0.000 A 
ATOM      3  C   UNL     1       0.241  11.506  20.286  0.00  0.00    +0.000 A 
ATOM      4  C   UNL     1      -0.205  11.249  21.604  0.00  0.00    +0.000 A 
ATOM      5  C   UNL     1       0.076   9.977  22.152  0.00  0.00    +0.000 A 
ATOM      6  C   UNL     1      -0.233   9.575  23.571  0.00  0.00    +0.000 C 
ATOM      7  C   UNL     1       0.688   8.989  21.355  0.00  0.00    +0.000 A 
ENDROOT
BRANCH   4   8
ATOM      8  C   UNL     1      -1.011  12.253  22.338  0.00  0.00    +0.000 A 
ATOM      9  N   UNL     1      -0.483  13.182  23.110  0.00  0.00    +0.000 NA
ATOM     10  C   UNL     1      -1.463  13.963  23.688  0.00  0.00    +0.000 A 
ATOM     11  C   UNL     1      -1.237  15.045  24.559  0.00  0.00    +0.000 A 
ATOM     12  C   UNL     1      -2.320  15.720  25.125  0.00  0.00    +0.000 A 
ATOM     13  C   UNL     1      -3.620  15.333  24.822  0.00  0.00    +0.000 A 
ATOM     14  C   UNL     1      -3.874  14.277  23.933  0.00  0.00    +0.000 A 
ATOM     15  C   UNL     1      -2.775  13.602  23.375  0.00  0.00    +0.000 A 
ATOM     16  S   UNL     1      -2.735  12.285  22.266  0.00  0.00    +0.000 S 
ENDBRANCH   4   8
BRANCH   1  19
ATOM     17  C   UNL     1       2.267   8.385  18.067  0.00  0.00    +0.000 C 
ATOM     18  O   UNL     1       2.161   9.406  17.389  0.00  0.00    +0.000 OA
ATOM     19  N   UNL     1       1.813   8.245  19.369  0.00  0.00    +0.000 N 
ATOM     20  H   UNL     1       2.293   7.547  19.926  0.00  0.00    +0.000 HD
BRANCH  17  21
ATOM     21  C   UNL     1       2.967   7.147  17.528  0.00  0.00    +0.000 C 
BRANCH  21  25
ATOM     22  C   UNL     1       2.046   3.470  19.648  0.00  0.00    +0.000 A 
ATOM     23  C   UNL     1       2.990   4.372  20.137  0.00  0.00    +0.000 A 
ATOM     24  C   UNL     1       3.281   5.548  19.437  0.00  0.00    +0.000 A 
ATOM     25  C   UNL     1       2.651   5.835  18.216  0.00  0.00    +0.000 A 
ATOM     26  C   UNL     1       1.693   4.931  17.739  0.00  0.00    +0.000 A 
ATOM     27  C   UNL     1       1.399   3.753  18.446  0.00  0.00    +0.000 A 
BRANCH  22  29
ATOM     28  C   UNL     1       1.528   2.573  21.784  0.00  0.00    +0.000 C 
ATOM     29  O   UNL     1       1.864   2.356  20.419  0.00  0.00    +0.000 OA
ENDBRANCH  22  29
ENDBRANCH  21  25
ENDBRANCH  17  21
ENDBRANCH   1  19
TORSDOF 5
ENDMDL
MODEL 8
REMARK VINA RESULT:      -7.4      3.919     11.271
REMARK  Name = 
REMARK  7 active torsions:
REMARK  status: ('A' for Active; 'I' for Inactive)
REMARK    1  A    between atoms: C_1  and  O_2
REMARK    2  A    between atoms: O_2  and  C_3
REMARK    3  A    between atoms: C_6  and  C_7
REMARK    4  A    between atoms: C_7  and  C_8
REMARK    5  A    between atoms: N_10  and  C_11
REMARK    6  A    between atoms: C_14  and  C_15
REMARK    7  A    between atoms: C_24  and  C_25
REMARK                            x       y       z     vdW  Elec       q    Type
REMARK                         _______ _______ _______ _____ _____    ______ ____
ROOT
ATOM      1  C   UNL     1       0.427  10.246  21.112  0.00  0.00    +0.000 A 
ATOM      2  C   UNL     1       0.876   9.192  21.901  0.00  0.00    +0.000 A 
ATOM      3  C   UNL     1       1.545   8.107  21.312  0.00  0.00    +0.000 A 
ATOM      4  C   UNL     1       1.827   8.071  19.926  0.00  0.00    +0.000 A 
ATOM      5  C   UNL     1       1.416   9.177  19.147  0.00  0.00    +0.000 A 
ATOM      6  C   UNL     1       1.727   9.348  17.683  0.00  0.00    +0.000 C 
ATOM      7  C   UNL     1       0.667  10.213  19.740  0.00  0.00    +0.000 A 
ENDROOT
BRANCH   4   8
ATOM      8  C   UNL     1       2.450   6.875  19.313  0.00  0.00    +0.000 A 
ATOM      9  N   UNL     1       3.249   6.932  18.264  0.00  0.00    +0.000 NA
ATOM     10  C   UNL     1       3.665   5.670  17.890  0.00  0.00    +0.000 A 
ATOM     11  C   UNL     1       4.528   5.380  16.816  0.00  0.00    +0.000 A 
ATOM     12  C   UNL     1       4.826   4.054  16.501  0.00  0.00    +0.000 A 
ATOM     13  C   UNL     1       4.283   3.018  17.254  0.00  0.00    +0.000 A 
ATOM     14  C   UNL     1       3.445   3.280  18.349  0.00  0.00    +0.000 A 
ATOM     15  C   UNL     1       3.148   4.620  18.650  0.00  0.00    +0.000 A 
ATOM     16  S   UNL     1       2.170   5.279  19.906  0.00  0.00    +0.000 S 
ENDBRANCH   4   8
BRANCH   1  19
ATOM     17  C   UNL     1      -1.100  11.279  22.740  0.00  0.00    +0.000 C 
ATOM     18  O   UNL     1      -1.309  10.261  23.396  0.00  0.00    +0.000 OA
ATOM     19  N   UNL     1      -0.271  11.355  21.632  0.00  0.00    +0.000 N 
ATOM     20  H   UNL     1       0.120  12.270  21.440  0.00  0.00    +0.000 HD
BRANCH  17  21
ATOM     21  C   UNL     1      -1.730  12.610  23.122  0.00  0.00    +0.000 C 
BRANCH  21  25
ATOM     22  C   UNL     1      -6.060  12.944  23.105  0.00  0.00    +0.000 A 
ATOM     23  C   UNL     1      -5.347  12.816  24.296  0.00  0.00    +0.000 A 
ATOM     24  C   UNL     1      -3.953  12.701  24.283  0.00  0.00    +0.000 A 
ATOM     25  C   UNL     1      -3.242  12.685  23.073  0.00  0.00    +0.000 A 
ATOM     26  C   UNL     1      -3.964  12.830  21.882  0.00  0.00    +0.000 A 
ATOM     27  C   UNL     1      -5.364  12.949  21.897  0.00  0.00    +0.000 A 
BRANCH  22  29
ATOM     28  C   UNL     1      -7.888  13.906  24.275  0.00  0.00    +0.000 C 
ATOM     29  O   UNL     1      -7.416  13.035  23.254  0.00  0.00    +0.000 OA
ENDBRANCH  22  29
ENDBRANCH  21  25
ENDBRANCH  17  21
ENDBRANCH   1  19
TORSDOF 5
ENDMDL
MODEL 9
REMARK VINA RESULT:      -7.4      1.356      2.334
REMARK  Name = 
REMARK  7 active torsions:
REMARK  status: ('A' for Active; 'I' for Inactive)
REMARK    1  A    between atoms: C_1  and  O_2
REMARK    2  A    between atoms: O_2  and  C_3
REMARK    3  A    between atoms: C_6  and  C_7
REMARK    4  A    between atoms: C_7  and  C_8
REMARK    5  A    between atoms: N_10  and  C_11
REMARK    6  A    between atoms: C_14  and  C_15
REMARK    7  A    between atoms: C_24  and  C_25
REMARK                            x       y       z     vdW  Elec       q    Type
REMARK                         _______ _______ _______ _____ _____    ______ ____
ROOT
ATOM      1  C   UNL     1       2.141   7.220  20.021  0.00  0.00    +0.000 A 
ATOM      2  C   UNL     1       1.413   7.412  21.191  0.00  0.00    +0.000 A 
ATOM      3  C   UNL     1       0.687   8.599  21.382  0.00  0.00    +0.000 A 
ATOM      4  C   UNL     1       0.629   9.603  20.387  0.00  0.00    +0.000 A 
ATOM      5  C   UNL     1       1.325   9.367  19.180  0.00  0.00    +0.000 A 
ATOM      6  C   UNL     1       1.284  10.280  17.981  0.00  0.00    +0.000 C 
ATOM      7  C   UNL     1       2.122   8.212  19.043  0.00  0.00    +0.000 A 
ENDROOT
BRANCH   4   8
ATOM      8  C   UNL     1      -0.066  10.885  20.648  0.00  0.00    +0.000 A 
ATOM      9  N   UNL     1       0.328  11.749  21.563  0.00  0.00    +0.000 NA
ATOM     10  C   UNL     1      -0.514  12.842  21.608  0.00  0.00    +0.000 A 
ATOM     11  C   UNL     1      -0.373  13.948  22.468  0.00  0.00    +0.000 A 
ATOM     12  C   UNL     1      -1.328  14.965  22.457  0.00  0.00    +0.000 A 
ATOM     13  C   UNL     1      -2.414  14.894  21.591  0.00  0.00    +0.000 A 
ATOM     14  C   UNL     1      -2.562  13.818  20.701  0.00  0.00    +0.000 A 
ATOM     15  C   UNL     1      -1.596  12.799  20.728  0.00  0.00    +0.000 A 
ATOM     16  S   UNL     1      -1.481  11.362  19.783  0.00  0.00    +0.000 S 
ENDBRANCH   4   8
BRANCH   1  19
ATOM     17  C   UNL     1       2.370   4.789  19.733  0.00  0.00    +0.000 C 
ATOM     18  O   UNL     1       1.181   4.519  19.891  0.00  0.00    +0.000 OA
ATOM     19  N   UNL     1       2.909   6.065  19.772  0.00  0.00    +0.000 N 
ATOM     20  H   UNL     1       3.769   6.193  19.252  0.00  0.00    +0.000 HD
BRANCH  17  21
ATOM     21  C   UNL     1       3.394   3.704  19.431  0.00  0.00    +0.000 C 
BRANCH  21  25
ATOM     22  C   UNL     1       6.395   4.470  16.387  0.00  0.00    +0.000 A 
ATOM     23  C   UNL     1       6.685   4.610  17.744  0.00  0.00    +0.000 A 
ATOM     24  C   UNL     1       5.705   4.367  18.711  0.00  0.00    +0.000 A 
ATOM     25  C   UNL     1       4.401   4.005  18.340  0.00  0.00    +0.000 A 
ATOM     26  C   UNL     1       4.120   3.851  16.977  0.00  0.00    +0.000 A 
ATOM     27  C   UNL     1       5.108   4.092  16.006  0.00  0.00    +0.000 A 
BRANCH  22  29
ATOM     28  C   UNL     1       7.126   4.852  14.161  0.00  0.00    +0.000 C 
ATOM     29  O   UNL     1       7.435   4.748  15.546  0.00  0.00    +0.000 OA
ENDBRANCH  22  29
ENDBRANCH  21  25
ENDBRANCH  17  21
ENDBRANCH   1  19
TORSDOF 5
ENDMDL
