MODEL 1
REMARK VINA RESULT:      -7.7      0.000      0.000
REMARK  Name = 
REMARK  6 active torsions:
REMARK  status: ('A' for Active; 'I' for Inactive)
REMARK    1  A    between atoms: C_1  and  N_2
REMARK    2  A    between atoms: N_2  and  C_17
REMARK    3  A    between atoms: C_3  and  C_5
REMARK    4  A    between atoms: C_5  and  C_6
REMARK    5  A    between atoms: C_6  and  N_7
REMARK    6  A    between atoms: N_10  and  C_11
REMARK                            x       y       z     vdW  Elec       q    Type
REMARK                         _______ _______ _______ _____ _____    ______ ____
ROOT
ATOM      1  C   UNL     1       7.478   4.592  17.182  0.00  0.00    +0.000 C 
ENDROOT
BRANCH   1   2
ATOM      2  N   UNL     1       6.967   3.860  16.034  0.00  0.00    +0.000 N 
ATOM      3  C   UNL     1       6.965   4.451  14.791  0.00  0.00    +0.000 C 
ATOM      4  O   UNL     1       7.511   5.513  14.536  0.00  0.00    +0.000 OA
ATOM      5  N   UNL     1       6.245   3.705  13.897  0.00  0.00    +0.000 N 
ATOM      6  H   UNL     1       6.233   3.190  16.198  0.00  0.00    +0.000 HD
ATOM      7  H   UNL     1       6.347   2.710  14.037  0.00  0.00    +0.000 HD
BRANCH   5   8
ATOM      8  C   UNL     1       6.022   4.152  12.522  0.00  0.00    +0.000 C 
ATOM      9  C   UNL     1       7.314   3.994  11.707  0.00  0.00    +0.000 C 
ATOM     10  C   UNL     1       7.707   2.524  11.540  0.00  0.00    +0.000 C 
ATOM     11  C   UNL     1       6.574   1.682  10.955  0.00  0.00    +0.000 C 
ATOM     12  C   UNL     1       5.252   1.883  11.691  0.00  0.00    +0.000 C 
ATOM     13  C   UNL     1       4.902   3.364  11.821  0.00  0.00    +0.000 C 
ENDBRANCH   5   8
ENDBRANCH   1   2
BRANCH   1  14
ATOM     14  C   UNL     1       6.418   5.514  17.768  0.00  0.00    +0.000 C 
BRANCH  14  17
ATOM     15  C   UNL     1       3.651   6.432  17.587  0.00  0.00    +0.000 C 
ATOM     16  N   UNL     1       3.982   5.192  18.302  0.00  0.00    +0.000 N 
ATOM     17  C   UNL     1       5.300   4.705  18.416  0.00  0.00    +0.000 C 
ATOM     18  O   UNL     1       5.603   3.639  18.950  0.00  0.00    +0.000 OA
BRANCH  16  19
ATOM     19  C   UNL     1       2.855   4.485  18.893  0.00  0.00    +0.000 A 
ATOM     20  C   UNL     1       2.128   3.507  18.199  0.00  0.00    +0.000 A 
ATOM     21  C   UNL     1       1.039   2.844  18.781  0.00  0.00    +0.000 A 
ATOM     22  C   UNL     1       0.652   3.135  20.080  0.00  0.00    +0.000 A 
ATOM     23  C   UNL     1       1.360   4.087  20.801  0.00  0.00    +0.000 A 
ATOM     24  C   UNL     1       2.450   4.746  20.217  0.00  0.00    +0.000 A 
ENDBRANCH  16  19
ENDBRANCH  14  17
ENDBRANCH   1  14
TORSDOF 5
ENDMDL
MODEL 2
REMARK VINA RESULT:      -7.6      1.631      7.114
REMARK  Name = 
REMARK  6 active torsions:
REMARK  status: ('A' for Active; 'I' for Inactive)
REMARK    1  A    between atoms: C_1  and  N_2
REMARK    2  A    between atoms: N_2  and  C_17
REMARK    3  A    between atoms: C_3  and  C_5
REMARK    4  A    between atoms: C_5  and  C_6
REMARK    5  A    between atoms: C_6  and  N_7
REMARK    6  A    between atoms: N_10  and  C_11
REMARK                            x       y       z     vdW  Elec       q    Type
REMARK                         _______ _______ _______ _____ _____    ______ ____
ROOT
ATOM      1  C   UNL     1       6.748   5.222  19.364  0.00  0.00    +0.000 C 
ENDROOT
BRANCH   1   2
ATOM      2  N   UNL     1       5.600   4.448  18.923  0.00  0.00    +0.000 N 
ATOM      3  C   UNL     1       4.331   4.962  19.066  0.00  0.00    +0.000 C 
ATOM      4  O   UNL     1       4.091   6.111  19.405  0.00  0.00    +0.000 OA
ATOM      5  N   UNL     1       3.385   4.007  18.812  0.00  0.00    +0.000 N 
ATOM      6  H   UNL     1       5.669   3.444  18.970  0.00  0.00    +0.000 HD
ATOM      7  H   UNL     1       3.647   3.378  18.066  0.00  0.00    +0.000 HD
BRANCH   5   8
ATOM      8  C   UNL     1       1.956   4.274  18.970  0.00  0.00    +0.000 C 
ATOM      9  C   UNL     1       1.160   2.973  18.785  0.00  0.00    +0.000 C 
ATOM     10  C   UNL     1       1.454   1.962  19.896  0.00  0.00    +0.000 C 
ATOM     11  C   UNL     1       1.242   2.551  21.289  0.00  0.00    +0.000 C 
ATOM     12  C   UNL     1       1.951   3.889  21.477  0.00  0.00    +0.000 C 
ATOM     13  C   UNL     1       1.615   4.864  20.349  0.00  0.00    +0.000 C 
ENDBRANCH   5   8
ENDBRANCH   1   2
BRANCH   1  14
ATOM     14  C   UNL     1       7.350   6.025  18.219  0.00  0.00    +0.000 C 
BRANCH  14  17
ATOM     15  C   UNL     1       5.625   6.821  16.001  0.00  0.00    +0.000 C 
ATOM     16  N   UNL     1       6.486   5.637  15.890  0.00  0.00    +0.000 N 
ATOM     17  C   UNL     1       7.338   5.211  16.929  0.00  0.00    +0.000 C 
ATOM     18  O   UNL     1       8.119   4.264  16.845  0.00  0.00    +0.000 OA
BRANCH  16  19
ATOM     19  C   UNL     1       6.409   4.918  14.626  0.00  0.00    +0.000 A 
ATOM     20  C   UNL     1       5.335   4.077  14.299  0.00  0.00    +0.000 A 
ATOM     21  C   UNL     1       5.283   3.385  13.082  0.00  0.00    +0.000 A 
ATOM     22  C   UNL     1       6.303   3.521  12.151  0.00  0.00    +0.000 A 
ATOM     23  C   UNL     1       7.373   4.358  12.437  0.00  0.00    +0.000 A 
ATOM     24  C   UNL     1       7.420   5.051  13.654  0.00  0.00    +0.000 A 
ENDBRANCH  16  19
ENDBRANCH  14  17
ENDBRANCH   1  14
TORSDOF 5
ENDMDL
MODEL 3
REMARK VINA RESULT:      -7.5      1.631      7.163
REMARK  Name = 
REMARK  6 active torsions:
REMARK  status: ('A' for Active; 'I' for Inactive)
REMARK    1  A    between atoms: C_1  and  N_2
REMARK    2  A    between atoms: N_2  and  C_17
REMARK    3  A    between atoms: C_3  and  C_5
REMARK    4  A    between atoms: C_5  and  C_6
REMARK    5  A    between atoms: C_6  and  N_7
REMARK    6  A    between atoms: N_10  and  C_11
REMARK                            x       y       z     vdW  Elec       q    Type
REMARK                         _______ _______ _______ _____ _____    ______ ____
ROOT
ATOM      1  C   UNL     1       6.780   5.131  19.366  0.00  0.00    +0.000 C 
ENDROOT
BRANCH   1   2
ATOM      2  N   UNL     1       5.609   4.388  18.932  0.00  0.00    +0.000 N 
ATOM      3  C   UNL     1       4.354   4.929  19.099  0.00  0.00    +0.000 C 
ATOM      4  O   UNL     1       4.145   6.079  19.455  0.00  0.00    +0.000 OA
ATOM      5  N   UNL     1       3.382   3.999  18.847  0.00  0.00    +0.000 N 
ATOM      6  H   UNL     1       5.656   3.382  18.965  0.00  0.00    +0.000 HD
ATOM      7  H   UNL     1       3.620   3.374  18.090  0.00  0.00    +0.000 HD
BRANCH   5   8
ATOM      8  C   UNL     1       1.962   4.296  19.028  0.00  0.00    +0.000 C 
ATOM      9  C   UNL     1       1.134   3.017  18.837  0.00  0.00    +0.000 C 
ATOM     10  C   UNL     1       1.420   1.984  19.930  0.00  0.00    +0.000 C 
ATOM     11  C   UNL     1       1.240   2.559  21.334  0.00  0.00    +0.000 C 
ATOM     12  C   UNL     1       1.982   3.878  21.530  0.00  0.00    +0.000 C 
ATOM     13  C   UNL     1       1.654   4.875  20.420  0.00  0.00    +0.000 C 
ENDBRANCH   5   8
ENDBRANCH   1   2
BRANCH   1  14
ATOM     14  C   UNL     1       7.338   5.995  18.243  0.00  0.00    +0.000 C 
BRANCH  14  17
ATOM     15  C   UNL     1       5.613   6.781  16.021  0.00  0.00    +0.000 C 
ATOM     16  N   UNL     1       6.521   5.634  15.893  0.00  0.00    +0.000 N 
ATOM     17  C   UNL     1       7.375   5.215  16.933  0.00  0.00    +0.000 C 
ATOM     18  O   UNL     1       8.193   4.301  16.837  0.00  0.00    +0.000 OA
BRANCH  16  19
ATOM     19  C   UNL     1       6.490   4.945  14.611  0.00  0.00    +0.000 A 
ATOM     20  C   UNL     1       7.492   5.103  13.643  0.00  0.00    +0.000 A 
ATOM     21  C   UNL     1       7.439   4.439  12.409  0.00  0.00    +0.000 A 
ATOM     22  C   UNL     1       6.384   3.590  12.113  0.00  0.00    +0.000 A 
ATOM     23  C   UNL     1       5.383   3.398  13.055  0.00  0.00    +0.000 A 
ATOM     24  C   UNL     1       5.440   4.061  14.289  0.00  0.00    +0.000 A 
ENDBRANCH  16  19
ENDBRANCH  14  17
ENDBRANCH   1  14
TORSDOF 5
ENDMDL
MODEL 4
REMARK VINA RESULT:      -7.3      1.042      1.256
REMARK  Name = 
REMARK  6 active torsions:
REMARK  status: ('A' for Active; 'I' for Inactive)
REMARK    1  A    between atoms: C_1  and  N_2
REMARK    2  A    between atoms: N_2  and  C_17
REMARK    3  A    between atoms: C_3  and  C_5
REMARK    4  A    between atoms: C_5  and  C_6
REMARK    5  A    between atoms: C_6  and  N_7
REMARK    6  A    between atoms: N_10  and  C_11
REMARK                            x       y       z     vdW  Elec       q    Type
REMARK                         _______ _______ _______ _____ _____    ______ ____
ROOT
ATOM      1  C   UNL     1       7.047   4.584  17.061  0.00  0.00    +0.000 C 
ENDROOT
BRANCH   1   2
ATOM      2  N   UNL     1       6.717   3.785  15.893  0.00  0.00    +0.000 N 
ATOM      3  C   UNL     1       6.701   4.368  14.645  0.00  0.00    +0.000 C 
ATOM      4  O   UNL     1       7.099   5.499  14.413  0.00  0.00    +0.000 OA
ATOM      5  N   UNL     1       6.150   3.525  13.718  0.00  0.00    +0.000 N 
ATOM      6  H   UNL     1       6.080   3.015  16.020  0.00  0.00    +0.000 HD
ATOM      7  H   UNL     1       6.388   2.556  13.873  0.00  0.00    +0.000 HD
BRANCH   5   8
ATOM      8  C   UNL     1       5.944   3.934  12.330  0.00  0.00    +0.000 C 
ATOM      9  C   UNL     1       7.276   3.872  11.566  0.00  0.00    +0.000 C 
ATOM     10  C   UNL     1       7.793   2.437  11.438  0.00  0.00    +0.000 C 
ATOM     11  C   UNL     1       6.756   1.498  10.825  0.00  0.00    +0.000 C 
ATOM     12  C   UNL     1       5.395   1.598  11.507  0.00  0.00    +0.000 C 
ATOM     13  C   UNL     1       4.920   3.048  11.600  0.00  0.00    +0.000 C 
ENDBRANCH   5   8
ENDBRANCH   1   2
BRANCH   1  14
ATOM     14  C   UNL     1       5.941   5.579  17.384  0.00  0.00    +0.000 C 
BRANCH  14  17
ATOM     15  C   UNL     1       3.565   3.925  16.996  0.00  0.00    +0.000 C 
ATOM     16  N   UNL     1       3.992   4.315  18.346  0.00  0.00    +0.000 N 
ATOM     17  C   UNL     1       5.131   5.110  18.587  0.00  0.00    +0.000 C 
ATOM     18  O   UNL     1       5.553   5.399  19.706  0.00  0.00    +0.000 OA
BRANCH  16  19
ATOM     19  C   UNL     1       3.160   3.827  19.436  0.00  0.00    +0.000 A 
ATOM     20  C   UNL     1       3.593   2.843  20.336  0.00  0.00    +0.000 A 
ATOM     21  C   UNL     1       2.774   2.377  21.373  0.00  0.00    +0.000 A 
ATOM     22  C   UNL     1       1.497   2.891  21.545  0.00  0.00    +0.000 A 
ATOM     23  C   UNL     1       1.042   3.879  20.682  0.00  0.00    +0.000 A 
ATOM     24  C   UNL     1       1.866   4.344  19.647  0.00  0.00    +0.000 A 
ENDBRANCH  16  19
ENDBRANCH  14  17
ENDBRANCH   1  14
TORSDOF 5
ENDMDL
MODEL 5
REMARK VINA RESULT:      -7.3      0.968      1.177
REMARK  Name = 
REMARK  6 active torsions:
REMARK  status: ('A' for Active; 'I' for Inactive)
REMARK    1  A    between atoms: C_1  and  N_2
REMARK    2  A    between atoms: N_2  and  C_17
REMARK    3  A    between atoms: C_3  and  C_5
REMARK    4  A    between atoms: C_5  and  C_6
REMARK    5  A    between atoms: C_6  and  N_7
REMARK    6  A    between atoms: N_10  and  C_11
REMARK                            x       y       z     vdW  Elec       q    Type
REMARK                         _______ _______ _______ _____ _____    ______ ____
ROOT
ATOM      1  C   UNL     1       7.239   4.583  17.118  0.00  0.00    +0.000 C 
ENDROOT
BRANCH   1   2
ATOM      2  N   UNL     1       6.846   3.811  15.950  0.00  0.00    +0.000 N 
ATOM      3  C   UNL     1       6.845   4.403  14.707  0.00  0.00    +0.000 C 
ATOM      4  O   UNL     1       7.304   5.510  14.475  0.00  0.00    +0.000 OA
ATOM      5  N   UNL     1       6.234   3.599  13.783  0.00  0.00    +0.000 N 
ATOM      6  H   UNL     1       6.168   3.078  16.083  0.00  0.00    +0.000 HD
ATOM      7  H   UNL     1       6.417   2.617  13.929  0.00  0.00    +0.000 HD
BRANCH   5   8
ATOM      8  C   UNL     1       6.031   4.028  12.400  0.00  0.00    +0.000 C 
ATOM      9  C   UNL     1       7.343   3.887  11.614  0.00  0.00    +0.000 C 
ATOM     10  C   UNL     1       7.768   2.423  11.470  0.00  0.00    +0.000 C 
ATOM     11  C   UNL     1       6.664   1.554  10.871  0.00  0.00    +0.000 C 
ATOM     12  C   UNL     1       5.323   1.736  11.576  0.00  0.00    +0.000 C 
ATOM     13  C   UNL     1       4.942   3.212  11.683  0.00  0.00    +0.000 C 
ENDBRANCH   5   8
ENDBRANCH   1   2
BRANCH   1  14
ATOM     14  C   UNL     1       6.199   5.640  17.460  0.00  0.00    +0.000 C 
BRANCH  14  17
ATOM     15  C   UNL     1       3.652   4.308  16.940  0.00  0.00    +0.000 C 
ATOM     16  N   UNL     1       4.105   4.543  18.317  0.00  0.00    +0.000 N 
ATOM     17  C   UNL     1       5.326   5.179  18.622  0.00  0.00    +0.000 C 
ATOM     18  O   UNL     1       5.765   5.332  19.761  0.00  0.00    +0.000 OA
BRANCH  16  19
ATOM     19  C   UNL     1       3.209   4.074  19.364  0.00  0.00    +0.000 A 
ATOM     20  C   UNL     1       1.973   4.680  19.629  0.00  0.00    +0.000 A 
ATOM     21  C   UNL     1       1.128   4.221  20.649  0.00  0.00    +0.000 A 
ATOM     22  C   UNL     1       1.493   3.133  21.428  0.00  0.00    +0.000 A 
ATOM     23  C   UNL     1       2.703   2.499  21.181  0.00  0.00    +0.000 A 
ATOM     24  C   UNL     1       3.544   2.960  20.159  0.00  0.00    +0.000 A 
ENDBRANCH  16  19
ENDBRANCH  14  17
ENDBRANCH   1  14
TORSDOF 5
ENDMDL
MODEL 6
REMARK VINA RESULT:      -7.2      0.572      1.239
REMARK  Name = 
REMARK  6 active torsions:
REMARK  status: ('A' for Active; 'I' for Inactive)
REMARK    1  A    between atoms: C_1  and  N_2
REMARK    2  A    between atoms: N_2  and  C_17
REMARK    3  A    between atoms: C_3  and  C_5
REMARK    4  A    between atoms: C_5  and  C_6
REMARK    5  A    between atoms: C_6  and  N_7
REMARK    6  A    between atoms: N_10  and  C_11
REMARK                            x       y       z     vdW  Elec       q    Type
REMARK                         _______ _______ _______ _____ _____    ______ ____
ROOT
ATOM      1  C   UNL     1       7.218   4.814  17.111  0.00  0.00    +0.000 C 
ENDROOT
BRANCH   1   2
ATOM      2  N   UNL     1       6.855   4.017  15.952  0.00  0.00    +0.000 N 
ATOM      3  C   UNL     1       7.107   4.495  14.685  0.00  0.00    +0.000 C 
ATOM      4  O   UNL     1       7.765   5.496  14.449  0.00  0.00    +0.000 OA
ATOM      5  N   UNL     1       6.495   3.719  13.739  0.00  0.00    +0.000 N 
ATOM      6  H   UNL     1       6.056   3.409  16.035  0.00  0.00    +0.000 HD
ATOM      7  H   UNL     1       6.497   2.736  13.970  0.00  0.00    +0.000 HD
BRANCH   5   8
ATOM      8  C   UNL     1       6.540   4.056  12.317  0.00  0.00    +0.000 C 
ATOM      9  C   UNL     1       7.320   2.977  11.551  0.00  0.00    +0.000 C 
ATOM     10  C   UNL     1       6.597   1.628  11.570  0.00  0.00    +0.000 C 
ATOM     11  C   UNL     1       5.157   1.733  11.071  0.00  0.00    +0.000 C 
ATOM     12  C   UNL     1       4.378   2.855  11.752  0.00  0.00    +0.000 C 
ATOM     13  C   UNL     1       5.138   4.179  11.695  0.00  0.00    +0.000 C 
ENDBRANCH   5   8
ENDBRANCH   1   2
BRANCH   1  14
ATOM     14  C   UNL     1       6.036   5.632  17.614  0.00  0.00    +0.000 C 
BRANCH  14  17
ATOM     15  C   UNL     1       3.230   6.380  17.928  0.00  0.00    +0.000 C 
ATOM     16  N   UNL     1       3.760   5.174  18.578  0.00  0.00    +0.000 N 
ATOM     17  C   UNL     1       5.104   4.768  18.457  0.00  0.00    +0.000 C 
ATOM     18  O   UNL     1       5.564   3.731  18.933  0.00  0.00    +0.000 OA
BRANCH  16  19
ATOM     19  C   UNL     1       2.803   4.411  19.366  0.00  0.00    +0.000 A 
ATOM     20  C   UNL     1       2.823   4.391  20.768  0.00  0.00    +0.000 A 
ATOM     21  C   UNL     1       1.899   3.642  21.509  0.00  0.00    +0.000 A 
ATOM     22  C   UNL     1       0.922   2.896  20.867  0.00  0.00    +0.000 A 
ATOM     23  C   UNL     1       0.864   2.906  19.480  0.00  0.00    +0.000 A 
ATOM     24  C   UNL     1       1.788   3.659  18.742  0.00  0.00    +0.000 A 
ENDBRANCH  16  19
ENDBRANCH  14  17
ENDBRANCH   1  14
TORSDOF 5
ENDMDL
MODEL 7
REMARK VINA RESULT:      -7.1      5.051      7.466
REMARK  Name = 
REMARK  6 active torsions:
REMARK  status: ('A' for Active; 'I' for Inactive)
REMARK    1  A    between atoms: C_1  and  N_2
REMARK    2  A    between atoms: N_2  and  C_17
REMARK    3  A    between atoms: C_3  and  C_5
REMARK    4  A    between atoms: C_5  and  C_6
REMARK    5  A    between atoms: C_6  and  N_7
REMARK    6  A    between atoms: N_10  and  C_11
REMARK                            x       y       z     vdW  Elec       q    Type
REMARK                         _______ _______ _______ _____ _____    ______ ____
ROOT
ATOM      1  C   UNL     1       7.903   7.298  17.865  0.00  0.00    +0.000 C 
ENDROOT
BRANCH   1   2
ATOM      2  N   UNL     1       8.566   8.249  18.742  0.00  0.00    +0.000 N 
ATOM      3  C   UNL     1       8.417   9.600  18.526  0.00  0.00    +0.000 C 
ATOM      4  O   UNL     1       7.630  10.083  17.727  0.00  0.00    +0.000 OA
ATOM      5  N   UNL     1       9.288  10.318  19.299  0.00  0.00    +0.000 N 
ATOM      6  H   UNL     1       9.441   7.969  19.156  0.00  0.00    +0.000 HD
ATOM      7  H   UNL     1       9.430   9.916  20.214  0.00  0.00    +0.000 HD
BRANCH   5   8
ATOM      8  C   UNL     1       9.388  11.774  19.201  0.00  0.00    +0.000 C 
ATOM      9  C   UNL     1      10.259  12.314  20.346  0.00  0.00    +0.000 C 
ATOM     10  C   UNL     1      11.713  11.853  20.222  0.00  0.00    +0.000 C 
ATOM     11  C   UNL     1      12.315  12.188  18.859  0.00  0.00    +0.000 C 
ATOM     12  C   UNL     1      11.431  11.741  17.699  0.00  0.00    +0.000 C 
ATOM     13  C   UNL     1       9.996  12.235  17.865  0.00  0.00    +0.000 C 
ENDBRANCH   5   8
ENDBRANCH   1   2
BRANCH   1  14
ATOM     14  C   UNL     1       7.917   5.895  18.456  0.00  0.00    +0.000 C 
BRANCH  14  17
ATOM     15  C   UNL     1       6.286   5.100  16.167  0.00  0.00    +0.000 C 
ATOM     16  N   UNL     1       5.749   5.018  17.531  0.00  0.00    +0.000 N 
ATOM     17  C   UNL     1       6.495   5.387  18.669  0.00  0.00    +0.000 C 
ATOM     18  O   UNL     1       6.100   5.270  19.828  0.00  0.00    +0.000 OA
BRANCH  16  19
ATOM     19  C   UNL     1       4.384   4.527  17.643  0.00  0.00    +0.000 A 
ATOM     20  C   UNL     1       3.282   5.383  17.792  0.00  0.00    +0.000 A 
ATOM     21  C   UNL     1       1.975   4.891  17.909  0.00  0.00    +0.000 A 
ATOM     22  C   UNL     1       1.732   3.526  17.870  0.00  0.00    +0.000 A 
ATOM     23  C   UNL     1       2.798   2.651  17.707  0.00  0.00    +0.000 A 
ATOM     24  C   UNL     1       4.103   3.147  17.589  0.00  0.00    +0.000 A 
ENDBRANCH  16  19
ENDBRANCH  14  17
ENDBRANCH   1  14
TORSDOF 5
ENDMDL
MODEL 8
REMARK VINA RESULT:      -7.1      4.798      6.983
REMARK  Name = 
REMARK  6 active torsions:
REMARK  status: ('A' for Active; 'I' for Inactive)
REMARK    1  A    between atoms: C_1  and  N_2
REMARK    2  A    between atoms: N_2  and  C_17
REMARK    3  A    between atoms: C_3  and  C_5
REMARK    4  A    between atoms: C_5  and  C_6
REMARK    5  A    between atoms: C_6  and  N_7
REMARK    6  A    between atoms: N_10  and  C_11
REMARK                            x       y       z     vdW  Elec       q    Type
REMARK                         _______ _______ _______ _____ _____    ______ ____
ROOT
ATOM      1  C   UNL     1       7.120   7.180  17.383  0.00  0.00    +0.000 C 
ENDROOT
BRANCH   1   2
ATOM      2  N   UNL     1       7.672   8.521  17.282  0.00  0.00    +0.000 N 
ATOM      3  C   UNL     1       8.453   9.019  18.301  0.00  0.00    +0.000 C 
ATOM      4  O   UNL     1       8.858   8.354  19.241  0.00  0.00    +0.000 OA
ATOM      5  N   UNL     1       8.682  10.358  18.131  0.00  0.00    +0.000 N 
ATOM      6  H   UNL     1       7.141   9.206  16.767  0.00  0.00    +0.000 HD
ATOM      7  H   UNL     1       8.801  10.620  17.163  0.00  0.00    +0.000 HD
BRANCH   5   8
ATOM      8  C   UNL     1       9.421  11.145  19.117  0.00  0.00    +0.000 C 
ATOM      9  C   UNL     1      10.908  11.194  18.736  0.00  0.00    +0.000 C 
ATOM     10  C   UNL     1      11.138  11.960  17.431  0.00  0.00    +0.000 C 
ATOM     11  C   UNL     1      10.526  13.359  17.462  0.00  0.00    +0.000 C 
ATOM     12  C   UNL     1       9.070  13.354  17.921  0.00  0.00    +0.000 C 
ATOM     13  C   UNL     1       8.898  12.588  19.231  0.00  0.00    +0.000 C 
ENDBRANCH   5   8
ENDBRANCH   1   2
BRANCH   1  14
ATOM     14  C   UNL     1       5.697   7.124  16.845  0.00  0.00    +0.000 C 
BRANCH  14  17
ATOM     15  C   UNL     1       2.993   7.712  17.780  0.00  0.00    +0.000 C 
ATOM     16  N   UNL     1       3.591   6.389  18.005  0.00  0.00    +0.000 N 
ATOM     17  C   UNL     1       4.890   6.054  17.572  0.00  0.00    +0.000 C 
ATOM     18  O   UNL     1       5.395   4.938  17.686  0.00  0.00    +0.000 OA
BRANCH  16  19
ATOM     19  C   UNL     1       2.753   5.431  18.710  0.00  0.00    +0.000 A 
ATOM     20  C   UNL     1       1.999   4.453  18.045  0.00  0.00    +0.000 A 
ATOM     21  C   UNL     1       1.189   3.544  18.741  0.00  0.00    +0.000 A 
ATOM     22  C   UNL     1       1.117   3.584  20.125  0.00  0.00    +0.000 A 
ATOM     23  C   UNL     1       1.863   4.529  20.816  0.00  0.00    +0.000 A 
ATOM     24  C   UNL     1       2.674   5.434  20.117  0.00  0.00    +0.000 A 
ENDBRANCH  16  19
ENDBRANCH  14  17
ENDBRANCH   1  14
TORSDOF 5
ENDMDL
MODEL 9
REMARK VINA RESULT:      -7.0      4.744      7.050
REMARK  Name = 
REMARK  6 active torsions:
REMARK  status: ('A' for Active; 'I' for Inactive)
REMARK    1  A    between atoms: C_1  and  N_2
REMARK    2  A    between atoms: N_2  and  C_17
REMARK    3  A    between atoms: C_3  and  C_5
REMARK    4  A    between atoms: C_5  and  C_6
REMARK    5  A    between atoms: C_6  and  N_7
REMARK    6  A    between atoms: N_10  and  C_11
REMARK                            x       y       z     vdW  Elec       q    Type
REMARK                         _______ _______ _______ _____ _____    ______ ____
ROOT
ATOM      1  C   UNL     1       6.973   7.157  17.381  0.00  0.00    +0.000 C 
ENDROOT
BRANCH   1   2
ATOM      2  N   UNL     1       7.574   8.477  17.293  0.00  0.00    +0.000 N 
ATOM      3  C   UNL     1       8.432   8.907  18.281  0.00  0.00    +0.000 C 
ATOM      4  O   UNL     1       8.860   8.193  19.175  0.00  0.00    +0.000 OA
ATOM      5  N   UNL     1       8.708  10.240  18.143  0.00  0.00    +0.000 N 
ATOM      6  H   UNL     1       7.045   9.201  16.833  0.00  0.00    +0.000 HD
ATOM      7  H   UNL     1       8.783  10.531  17.180  0.00  0.00    +0.000 HD
BRANCH   5   8
ATOM      8  C   UNL     1       9.534  10.961  19.111  0.00  0.00    +0.000 C 
ATOM      9  C   UNL     1      10.910  11.261  18.499  0.00  0.00    +0.000 C 
ATOM     10  C   UNL     1      10.812  12.237  17.323  0.00  0.00    +0.000 C 
ATOM     11  C   UNL     1      10.077  13.523  17.695  0.00  0.00    +0.000 C 
ATOM     12  C   UNL     1       8.741  13.259  18.385  0.00  0.00    +0.000 C 
ATOM     13  C   UNL     1       8.897  12.290  19.555  0.00  0.00    +0.000 C 
ENDBRANCH   5   8
ENDBRANCH   1   2
BRANCH   1  14
ATOM     14  C   UNL     1       5.527   7.173  16.904  0.00  0.00    +0.000 C 
BRANCH  14  17
ATOM     15  C   UNL     1       2.837   7.724  17.900  0.00  0.00    +0.000 C 
ATOM     16  N   UNL     1       3.431   6.390  18.052  0.00  0.00    +0.000 N 
ATOM     17  C   UNL     1       4.724   6.071  17.588  0.00  0.00    +0.000 C 
ATOM     18  O   UNL     1       5.225   4.949  17.640  0.00  0.00    +0.000 OA
BRANCH  16  19
ATOM     19  C   UNL     1       2.597   5.400  18.718  0.00  0.00    +0.000 A 
ATOM     20  C   UNL     1       2.402   5.387  20.107  0.00  0.00    +0.000 A 
ATOM     21  C   UNL     1       1.604   4.420  20.733  0.00  0.00    +0.000 A 
ATOM     22  C   UNL     1       0.969   3.441  19.983  0.00  0.00    +0.000 A 
ATOM     23  C   UNL     1       1.127   3.434  18.604  0.00  0.00    +0.000 A 
ATOM     24  C   UNL     1       1.925   4.405  17.981  0.00  0.00    +0.000 A 
ENDBRANCH  16  19
ENDBRANCH  14  17
ENDBRANCH   1  14
TORSDOF 5
ENDMDL
