MODEL 1
REMARK VINA RESULT:      -5.8      0.000      0.000
REMARK  Name = 
REMARK  3 active torsions:
REMARK  status: ('A' for Active; 'I' for Inactive)
REMARK    1  A    between atoms: C_1  and  O_2
REMARK    2  A    between atoms: O_2  and  N_3
REMARK    3  A    between atoms: C_4  and  C_6
REMARK                            x       y       z     vdW  Elec       q    Type
REMARK                         _______ _______ _______ _____ _____    ______ ____
ROOT
ATOM      1  C   UNL     1       5.507   5.607  17.472  0.00  0.00    +0.000 C 
ATOM      2  C   UNL     1       4.333   6.208  17.180  0.00  0.00    +0.000 C 
ATOM      3  C   UNL     1       3.142   5.972  18.092  0.00  0.00    +0.000 C 
ATOM      4  C   UNL     1       2.431   4.654  17.816  0.00  0.00    +0.000 C 
ATOM      5  C   UNL     1       3.335   3.616  18.486  0.00  0.00    +0.000 C 
ATOM      6  N   UNL     1       4.303   4.372  19.330  0.00  0.00    +0.000 NA
ATOM      7  C   UNL     1       5.584   4.580  18.589  0.00  0.00    +0.000 C 
ATOM      8  C   UNL     1       3.663   5.698  19.508  0.00  0.00    +0.000 C 
ENDROOT
BRANCH   1  10
ATOM      9  N   UNL     1       7.542   5.591  15.966  0.00  0.00    +0.000 NA
ATOM     10  C   UNL     1       6.790   6.116  16.881  0.00  0.00    +0.000 C 
ATOM     11 CL   UNL     1       7.489   7.578  17.543  0.00  0.00    +0.000 Cl
BRANCH   9  13
ATOM     12  C   UNL     1       6.760   4.676  14.023  0.00  0.00    +0.000 C 
ATOM     13  O   UNL     1       7.006   4.432  15.406  0.00  0.00    +0.000 OA
ENDBRANCH   9  13
ENDBRANCH   1  10
TORSDOF 2
ENDMDL
MODEL 2
REMARK VINA RESULT:      -5.7      1.955      2.347
REMARK  Name = 
REMARK  3 active torsions:
REMARK  status: ('A' for Active; 'I' for Inactive)
REMARK    1  A    between atoms: C_1  and  O_2
REMARK    2  A    between atoms: O_2  and  N_3
REMARK    3  A    between atoms: C_4  and  C_6
REMARK                            x       y       z     vdW  Elec       q    Type
REMARK                         _______ _______ _______ _____ _____    ______ ____
ROOT
ATOM      1  C   UNL     1       4.962   4.457  17.077  0.00  0.00    +0.000 C 
ATOM      2  C   UNL     1       4.327   5.610  17.384  0.00  0.00    +0.000 C 
ATOM      3  C   UNL     1       3.224   5.583  18.427  0.00  0.00    +0.000 C 
ATOM      4  C   UNL     1       1.889   5.102  17.872  0.00  0.00    +0.000 C 
ATOM      5  C   UNL     1       2.061   3.582  17.802  0.00  0.00    +0.000 C 
ATOM      6  N   UNL     1       3.298   3.255  18.565  0.00  0.00    +0.000 NA
ATOM      7  C   UNL     1       4.463   3.137  17.636  0.00  0.00    +0.000 C 
ATOM      8  C   UNL     1       3.520   4.449  19.416  0.00  0.00    +0.000 C 
ENDROOT
BRANCH   1  10
ATOM      9  N   UNL     1       7.487   4.556  16.913  0.00  0.00    +0.000 NA
ATOM     10  C   UNL     1       6.301   4.485  16.396  0.00  0.00    +0.000 C 
ATOM     11 CL   UNL     1       6.345   4.530  14.647  0.00  0.00    +0.000 Cl
BRANCH   9  13
ATOM     12  C   UNL     1       7.790   5.808  18.800  0.00  0.00    +0.000 C 
ATOM     13  O   UNL     1       7.488   4.506  18.307  0.00  0.00    +0.000 OA
ENDBRANCH   9  13
ENDBRANCH   1  10
TORSDOF 2
ENDMDL
MODEL 3
REMARK VINA RESULT:      -5.6      2.525      4.221
REMARK  Name = 
REMARK  3 active torsions:
REMARK  status: ('A' for Active; 'I' for Inactive)
REMARK    1  A    between atoms: C_1  and  O_2
REMARK    2  A    between atoms: O_2  and  N_3
REMARK    3  A    between atoms: C_4  and  C_6
REMARK                            x       y       z     vdW  Elec       q    Type
REMARK                         _______ _______ _______ _____ _____    ______ ____
ROOT
ATOM      1  C   UNL     1       4.629   5.639  18.316  0.00  0.00    +0.000 C 
ATOM      2  C   UNL     1       5.125   6.391  17.309  0.00  0.00    +0.000 C 
ATOM      3  C   UNL     1       6.558   6.163  16.862  0.00  0.00    +0.000 C 
ATOM      4  C   UNL     1       7.579   6.852  17.757  0.00  0.00    +0.000 C 
ATOM      5  C   UNL     1       7.660   5.931  18.978  0.00  0.00    +0.000 C 
ATOM      6  N   UNL     1       6.953   4.671  18.611  0.00  0.00    +0.000 NA
ATOM      7  C   UNL     1       5.540   4.709  19.097  0.00  0.00    +0.000 C 
ATOM      8  C   UNL     1       6.922   4.698  17.129  0.00  0.00    +0.000 C 
ENDROOT
BRANCH   1  10
ATOM      9  N   UNL     1       2.306   4.693  17.970  0.00  0.00    +0.000 NA
ATOM     10  C   UNL     1       3.145   5.517  18.514  0.00  0.00    +0.000 C 
ATOM     11 CL   UNL     1       2.343   6.686  19.540  0.00  0.00    +0.000 Cl
BRANCH   9  13
ATOM     12  C   UNL     1       2.688   2.453  17.734  0.00  0.00    +0.000 C 
ATOM     13  O   UNL     1       2.915   3.736  17.158  0.00  0.00    +0.000 OA
ENDBRANCH   9  13
ENDBRANCH   1  10
TORSDOF 2
ENDMDL
MODEL 4
REMARK VINA RESULT:      -5.6      2.929      4.572
REMARK  Name = 
REMARK  3 active torsions:
REMARK  status: ('A' for Active; 'I' for Inactive)
REMARK    1  A    between atoms: C_1  and  O_2
REMARK    2  A    between atoms: O_2  and  N_3
REMARK    3  A    between atoms: C_4  and  C_6
REMARK                            x       y       z     vdW  Elec       q    Type
REMARK                         _______ _______ _______ _____ _____    ______ ____
ROOT
ATOM      1  C   UNL     1       4.797   5.474  17.951  0.00  0.00    +0.000 C 
ATOM      2  C   UNL     1       5.453   6.284  17.092  0.00  0.00    +0.000 C 
ATOM      3  C   UNL     1       6.956   6.126  16.940  0.00  0.00    +0.000 C 
ATOM      4  C   UNL     1       7.744   6.814  18.048  0.00  0.00    +0.000 C 
ATOM      5  C   UNL     1       7.615   5.847  19.228  0.00  0.00    +0.000 C 
ATOM      6  N   UNL     1       7.053   4.579  18.684  0.00  0.00    +0.000 NA
ATOM      7  C   UNL     1       5.570   4.547  18.872  0.00  0.00    +0.000 C 
ATOM      8  C   UNL     1       7.321   4.665  17.228  0.00  0.00    +0.000 C 
ENDROOT
BRANCH   1  10
ATOM      9  N   UNL     1       2.352   6.081  18.209  0.00  0.00    +0.000 NA
ATOM     10  C   UNL     1       3.310   5.292  17.838  0.00  0.00    +0.000 C 
ATOM     11 CL   UNL     1       2.703   3.774  17.213  0.00  0.00    +0.000 Cl
BRANCH   9  13
ATOM     12  C   UNL     1       2.226   8.342  17.903  0.00  0.00    +0.000 C 
ATOM     13  O   UNL     1       2.802   7.308  18.697  0.00  0.00    +0.000 OA
ENDBRANCH   9  13
ENDBRANCH   1  10
TORSDOF 2
ENDMDL
MODEL 5
REMARK VINA RESULT:      -5.5      1.098      1.869
REMARK  Name = 
REMARK  3 active torsions:
REMARK  status: ('A' for Active; 'I' for Inactive)
REMARK    1  A    between atoms: C_1  and  O_2
REMARK    2  A    between atoms: O_2  and  N_3
REMARK    3  A    between atoms: C_4  and  C_6
REMARK                            x       y       z     vdW  Elec       q    Type
REMARK                         _______ _______ _______ _____ _____    ______ ____
ROOT
ATOM      1  C   UNL     1       5.596   5.693  17.953  0.00  0.00    +0.000 C 
ATOM      2  C   UNL     1       5.546   4.421  18.404  0.00  0.00    +0.000 C 
ATOM      3  C   UNL     1       4.195   3.737  18.518  0.00  0.00    +0.000 C 
ATOM      4  C   UNL     1       3.437   4.119  19.783  0.00  0.00    +0.000 C 
ATOM      5  C   UNL     1       2.871   5.503  19.454  0.00  0.00    +0.000 C 
ATOM      6  N   UNL     1       3.061   5.705  17.990  0.00  0.00    +0.000 NA
ATOM      7  C   UNL     1       4.314   6.477  17.731  0.00  0.00    +0.000 C 
ATOM      8  C   UNL     1       3.259   4.334  17.461  0.00  0.00    +0.000 C 
ENDROOT
BRANCH   1  10
ATOM      9  N   UNL     1       7.328   6.308  16.212  0.00  0.00    +0.000 NA
ATOM     10  C   UNL     1       6.882   6.264  17.427  0.00  0.00    +0.000 C 
ATOM     11 CL   UNL     1       8.046   6.890  18.575  0.00  0.00    +0.000 Cl
BRANCH   9  13
ATOM     12  C   UNL     1       6.969   4.662  14.667  0.00  0.00    +0.000 C 
ATOM     13  O   UNL     1       6.418   5.830  15.269  0.00  0.00    +0.000 OA
ENDBRANCH   9  13
ENDBRANCH   1  10
TORSDOF 2
ENDMDL
MODEL 6
REMARK VINA RESULT:      -5.5      2.388      4.407
REMARK  Name = 
REMARK  3 active torsions:
REMARK  status: ('A' for Active; 'I' for Inactive)
REMARK    1  A    between atoms: C_1  and  O_2
REMARK    2  A    between atoms: O_2  and  N_3
REMARK    3  A    between atoms: C_4  and  C_6
REMARK                            x       y       z     vdW  Elec       q    Type
REMARK                         _______ _______ _______ _____ _____    ______ ____
ROOT
ATOM      1  C   UNL     1       4.547   5.735  17.710  0.00  0.00    +0.000 C 
ATOM      2  C   UNL     1       5.435   5.448  18.687  0.00  0.00    +0.000 C 
ATOM      3  C   UNL     1       6.910   5.708  18.435  0.00  0.00    +0.000 C 
ATOM      4  C   UNL     1       7.582   4.606  17.626  0.00  0.00    +0.000 C 
ATOM      5  C   UNL     1       7.135   4.898  16.190  0.00  0.00    +0.000 C 
ATOM      6  N   UNL     1       6.517   6.253  16.202  0.00  0.00    +0.000 NA
ATOM      7  C   UNL     1       5.032   6.145  16.331  0.00  0.00    +0.000 C 
ATOM      8  C   UNL     1       7.035   6.873  17.446  0.00  0.00    +0.000 C 
ENDROOT
BRANCH   1  10
ATOM      9  N   UNL     1       2.107   5.077  17.851  0.00  0.00    +0.000 NA
ATOM     10  C   UNL     1       3.090   5.901  18.033  0.00  0.00    +0.000 C 
ATOM     11 CL   UNL     1       2.545   7.442  18.659  0.00  0.00    +0.000 Cl
BRANCH   9  13
ATOM     12  C   UNL     1       2.088   2.836  18.296  0.00  0.00    +0.000 C 
ATOM     13  O   UNL     1       2.508   3.832  17.368  0.00  0.00    +0.000 OA
ENDBRANCH   9  13
ENDBRANCH   1  10
TORSDOF 2
ENDMDL
MODEL 7
REMARK VINA RESULT:      -5.5      2.020      2.781
REMARK  Name = 
REMARK  3 active torsions:
REMARK  status: ('A' for Active; 'I' for Inactive)
REMARK    1  A    between atoms: C_1  and  O_2
REMARK    2  A    between atoms: O_2  and  N_3
REMARK    3  A    between atoms: C_4  and  C_6
REMARK                            x       y       z     vdW  Elec       q    Type
REMARK                         _______ _______ _______ _____ _____    ______ ____
ROOT
ATOM      1  C   UNL     1       4.698   4.370  17.469  0.00  0.00    +0.000 C 
ATOM      2  C   UNL     1       4.032   3.194  17.472  0.00  0.00    +0.000 C 
ATOM      3  C   UNL     1       2.605   3.162  17.989  0.00  0.00    +0.000 C 
ATOM      4  C   UNL     1       2.521   3.109  19.509  0.00  0.00    +0.000 C 
ATOM      5  C   UNL     1       2.796   4.556  19.930  0.00  0.00    +0.000 C 
ATOM      6  N   UNL     1       2.723   5.383  18.693  0.00  0.00    +0.000 NA
ATOM      7  C   UNL     1       4.091   5.595  18.129  0.00  0.00    +0.000 C 
ATOM      8  C   UNL     1       1.968   4.534  17.739  0.00  0.00    +0.000 C 
ENDROOT
BRANCH   1  10
ATOM      9  N   UNL     1       7.161   4.635  16.948  0.00  0.00    +0.000 NA
ATOM     10  C   UNL     1       5.914   4.552  16.606  0.00  0.00    +0.000 C 
ATOM     11 CL   UNL     1       5.688   4.794  14.888  0.00  0.00    +0.000 Cl
BRANCH   9  13
ATOM     12  C   UNL     1       7.767   5.672  18.892  0.00  0.00    +0.000 C 
ATOM     13  O   UNL     1       7.379   4.431  18.310  0.00  0.00    +0.000 OA
ENDBRANCH   9  13
ENDBRANCH   1  10
TORSDOF 2
ENDMDL
MODEL 8
REMARK VINA RESULT:      -5.5      2.444      3.099
REMARK  Name = 
REMARK  3 active torsions:
REMARK  status: ('A' for Active; 'I' for Inactive)
REMARK    1  A    between atoms: C_1  and  O_2
REMARK    2  A    between atoms: O_2  and  N_3
REMARK    3  A    between atoms: C_4  and  C_6
REMARK                            x       y       z     vdW  Elec       q    Type
REMARK                         _______ _______ _______ _____ _____    ______ ____
ROOT
ATOM      1  C   UNL     1       2.864   5.312  18.438  0.00  0.00    +0.000 C 
ATOM      2  C   UNL     1       1.950   4.528  17.826  0.00  0.00    +0.000 C 
ATOM      3  C   UNL     1       1.199   3.497  18.650  0.00  0.00    +0.000 C 
ATOM      4  C   UNL     1       2.000   2.222  18.884  0.00  0.00    +0.000 C 
ATOM      5  C   UNL     1       2.977   2.616  19.997  0.00  0.00    +0.000 C 
ATOM      6  N   UNL     1       2.510   3.926  20.532  0.00  0.00    +0.000 NA
ATOM      7  C   UNL     1       3.256   5.046  19.881  0.00  0.00    +0.000 C 
ATOM      8  C   UNL     1       1.097   4.010  20.092  0.00  0.00    +0.000 C 
ENDROOT
BRANCH   1  10
ATOM      9  N   UNL     1       4.402   6.849  17.142  0.00  0.00    +0.000 NA
ATOM     10  C   UNL     1       3.316   6.594  17.800  0.00  0.00    +0.000 C 
ATOM     11 CL   UNL     1       2.330   8.024  18.017  0.00  0.00    +0.000 Cl
BRANCH   9  13
ATOM     12  C   UNL     1       5.503   5.640  15.547  0.00  0.00    +0.000 C 
ATOM     13  O   UNL     1       5.203   5.726  16.937  0.00  0.00    +0.000 OA
ENDBRANCH   9  13
ENDBRANCH   1  10
TORSDOF 2
ENDMDL
MODEL 9
REMARK VINA RESULT:      -5.5      1.797      2.175
REMARK  Name = 
REMARK  3 active torsions:
REMARK  status: ('A' for Active; 'I' for Inactive)
REMARK    1  A    between atoms: C_1  and  O_2
REMARK    2  A    between atoms: O_2  and  N_3
REMARK    3  A    between atoms: C_4  and  C_6
REMARK                            x       y       z     vdW  Elec       q    Type
REMARK                         _______ _______ _______ _____ _____    ______ ____
ROOT
ATOM      1  C   UNL     1       5.082   5.241  16.805  0.00  0.00    +0.000 C 
ATOM      2  C   UNL     1       4.384   6.313  17.238  0.00  0.00    +0.000 C 
ATOM      3  C   UNL     1       3.445   6.148  18.420  0.00  0.00    +0.000 C 
ATOM      4  C   UNL     1       2.101   5.544  18.035  0.00  0.00    +0.000 C 
ATOM      5  C   UNL     1       2.412   4.052  17.886  0.00  0.00    +0.000 C 
ATOM      6  N   UNL     1       3.770   3.838  18.460  0.00  0.00    +0.000 NA
ATOM      7  C   UNL     1       4.800   3.863  17.378  0.00  0.00    +0.000 C 
ATOM      8  C   UNL     1       3.988   5.029  19.317  0.00  0.00    +0.000 C 
ENDROOT
BRANCH   1  10
ATOM      9  N   UNL     1       7.422   6.014  16.227  0.00  0.00    +0.000 NA
ATOM     10  C   UNL     1       6.303   5.423  15.950  0.00  0.00    +0.000 C 
ATOM     11 CL   UNL     1       6.248   4.870  14.290  0.00  0.00    +0.000 Cl
BRANCH   9  13
ATOM     12  C   UNL     1       7.693   7.866  17.538  0.00  0.00    +0.000 C 
ATOM     13  O   UNL     1       7.506   6.453  17.548  0.00  0.00    +0.000 OA
ENDBRANCH   9  13
ENDBRANCH   1  10
TORSDOF 2
ENDMDL
