MODEL 1
REMARK VINA RESULT:      -8.3      0.000      0.000
REMARK  Name = 
REMARK  10 active torsions:
REMARK  status: ('A' for Active; 'I' for Inactive)
REMARK    1  A    between atoms: C_2  and  C_3
REMARK    2  A    between atoms: C_2  and  C_8
REMARK    3  A    between atoms: C_3  and  N_4
REMARK    4  A    between atoms: C_5  and  C_6
REMARK    5  A    between atoms: N_10  and  C_11
REMARK    6  A    between atoms: C_15  and  C_16
REMARK    7  A    between atoms: C_23  and  C_24
REMARK    8  A    between atoms: C_24  and  O_26
REMARK    9  A    between atoms: O_26  and  C_27
REMARK   10  A    between atoms: C_27  and  C_28
REMARK                            x       y       z     vdW  Elec       q    Type
REMARK                         _______ _______ _______ _____ _____    ______ ____
ROOT
ATOM      1  C   UNL     1       6.138   4.167  15.656  0.00  0.00    +0.000 A 
ATOM      2  C   UNL     1       7.405   4.205  16.231  0.00  0.00    +0.000 A 
ATOM      3  C   UNL     1       7.597   4.871  17.436  0.00  0.00    +0.000 A 
ATOM      4  C   UNL     1       6.529   5.535  18.049  0.00  0.00    +0.000 A 
ATOM      5  C   UNL     1       5.227   5.460  17.535  0.00  0.00    +0.000 A 
ATOM      6  C   UNL     1       5.057   4.756  16.323  0.00  0.00    +0.000 A 
ENDROOT
BRANCH   5   7
ATOM      7  C   UNL     1       4.085   6.146  18.157  0.00  0.00    +0.000 A 
ATOM      8  N   UNL     1       3.781   7.374  17.614  0.00  0.00    +0.000 NA
ATOM      9  C   UNL     1       2.785   8.097  18.145  0.00  0.00    +0.000 A 
ATOM     10  N   UNL     1       1.996   7.763  19.176  0.00  0.00    +0.000 NA
ATOM     11  C   UNL     1       2.310   6.557  19.670  0.00  0.00    +0.000 A 
ATOM     12  N   UNL     1       1.635   5.996  20.715  0.00  0.00    +0.000 N 
ATOM     13  C   UNL     1       2.169   4.773  20.996  0.00  0.00    +0.000 A 
ATOM     14  C   UNL     1       3.189   4.521  20.087  0.00  0.00    +0.000 A 
ATOM     15  C   UNL     1       3.307   5.683  19.237  0.00  0.00    +0.000 A 
ATOM     16  H   UNL     1       0.849   6.437  21.178  0.00  0.00    +0.000 HD
BRANCH  14  17
ATOM     17  C   UNL     1       3.881   3.238  20.048  0.00  0.00    +0.000 C 
ATOM     18  O   UNL     1       5.088   3.108  20.185  0.00  0.00    +0.000 OA
BRANCH  17  19
ATOM     19  O   UNL     1       3.024   2.219  19.732  0.00  0.00    +0.000 OA
BRANCH  19  20
ATOM     20  C   UNL     1       3.265   1.589  18.466  0.00  0.00    +0.000 C 
ATOM     21  C   UNL     1       2.515   2.364  17.398  0.00  0.00    +0.000 C 
ENDBRANCH  19  20
ENDBRANCH  17  19
ENDBRANCH  14  17
ENDBRANCH   5   7
BRANCH   1  24
ATOM     22  C   UNL     1       6.468   3.922  13.232  0.00  0.00    +0.000 C 
ATOM     23  O   UNL     1       7.202   4.900  13.096  0.00  0.00    +0.000 OA
ATOM     24  N   UNL     1       5.905   3.521  14.428  0.00  0.00    +0.000 N 
ATOM     25  H   UNL     1       5.137   2.868  14.411  0.00  0.00    +0.000 HD
BRANCH  22  27
ATOM     26  C   UNL     1       7.033   2.511  11.221  0.00  0.00    +0.000 C 
ATOM     27  C   UNL     1       6.123   3.092  12.023  0.00  0.00    +0.000 C 
BRANCH  27  28
ATOM     28  C   UNL     1       4.649   2.884  11.800  0.00  0.00    +0.000 C 
BRANCH  28  29
ATOM     29  N   UNL     1       4.142   3.865  10.864  0.00  0.00    +0.000 N 
ATOM     30  C   UNL     1       3.104   3.592  10.009  0.00  0.00    +0.000 C 
ATOM     31  C   UNL     1       2.682   4.753   9.148  0.00  0.00    +0.000 C 
ATOM     32  O   UNL     1       2.543   2.502   9.943  0.00  0.00    +0.000 OA
ATOM     33  H   UNL     1       4.597   4.769  10.847  0.00  0.00    +0.000 HD
ENDBRANCH  28  29
ENDBRANCH  27  28
ENDBRANCH  22  27
ENDBRANCH   1  24
TORSDOF 8
ENDMDL
MODEL 2
REMARK VINA RESULT:      -7.9      1.484      1.984
REMARK  Name = 
REMARK  10 active torsions:
REMARK  status: ('A' for Active; 'I' for Inactive)
REMARK    1  A    between atoms: C_2  and  C_3
REMARK    2  A    between atoms: C_2  and  C_8
REMARK    3  A    between atoms: C_3  and  N_4
REMARK    4  A    between atoms: C_5  and  C_6
REMARK    5  A    between atoms: N_10  and  C_11
REMARK    6  A    between atoms: C_15  and  C_16
REMARK    7  A    between atoms: C_23  and  C_24
REMARK    8  A    between atoms: C_24  and  O_26
REMARK    9  A    between atoms: O_26  and  C_27
REMARK   10  A    between atoms: C_27  and  C_28
REMARK                            x       y       z     vdW  Elec       q    Type
REMARK                         _______ _______ _______ _____ _____    ______ ____
ROOT
ATOM      1  C   UNL     1       6.124   4.468  16.334  0.00  0.00    +0.000 A 
ATOM      2  C   UNL     1       7.375   4.787  16.853  0.00  0.00    +0.000 A 
ATOM      3  C   UNL     1       7.481   5.269  18.153  0.00  0.00    +0.000 A 
ATOM      4  C   UNL     1       6.331   5.469  18.924  0.00  0.00    +0.000 A 
ATOM      5  C   UNL     1       5.063   5.095  18.458  0.00  0.00    +0.000 A 
ATOM      6  C   UNL     1       4.988   4.586  17.144  0.00  0.00    +0.000 A 
ENDROOT
BRANCH   5   7
ATOM      7  C   UNL     1       3.837   5.292  19.246  0.00  0.00    +0.000 A 
ATOM      8  N   UNL     1       3.305   6.560  19.180  0.00  0.00    +0.000 NA
ATOM      9  C   UNL     1       2.213   6.851  19.902  0.00  0.00    +0.000 A 
ATOM     10  N   UNL     1       1.526   6.029  20.707  0.00  0.00    +0.000 NA
ATOM     11  C   UNL     1       2.064   4.801  20.735  0.00  0.00    +0.000 A 
ATOM     12  N   UNL     1       1.529   3.786  21.475  0.00  0.00    +0.000 N 
ATOM     13  C   UNL     1       2.279   2.660  21.308  0.00  0.00    +0.000 A 
ATOM     14  C   UNL     1       3.300   2.942  20.409  0.00  0.00    +0.000 A 
ATOM     15  C   UNL     1       3.185   4.336  20.050  0.00  0.00    +0.000 A 
ATOM     16  H   UNL     1       0.692   3.881  22.038  0.00  0.00    +0.000 HD
BRANCH  14  17
ATOM     17  C   UNL     1       4.207   1.906  19.929  0.00  0.00    +0.000 C 
ATOM     18  O   UNL     1       4.053   1.293  18.884  0.00  0.00    +0.000 OA
BRANCH  17  19
ATOM     19  O   UNL     1       5.183   1.633  20.849  0.00  0.00    +0.000 OA
BRANCH  19  20
ATOM     20  C   UNL     1       5.551   0.252  20.960  0.00  0.00    +0.000 C 
ATOM     21  C   UNL     1       6.303   0.062  22.264  0.00  0.00    +0.000 C 
ENDBRANCH  19  20
ENDBRANCH  17  19
ENDBRANCH  14  17
ENDBRANCH   5   7
BRANCH   1  24
ATOM     22  C   UNL     1       6.699   4.472  13.944  0.00  0.00    +0.000 C 
ATOM     23  O   UNL     1       7.531   5.375  14.006  0.00  0.00    +0.000 OA
ATOM     24  N   UNL     1       5.970   3.998  15.017  0.00  0.00    +0.000 N 
ATOM     25  H   UNL     1       5.151   3.437  14.841  0.00  0.00    +0.000 HD
BRANCH  22  27
ATOM     26  C   UNL     1       7.345   3.608  11.665  0.00  0.00    +0.000 C 
ATOM     27  C   UNL     1       6.414   3.829  12.611  0.00  0.00    +0.000 C 
BRANCH  27  28
ATOM     28  C   UNL     1       4.995   3.366  12.423  0.00  0.00    +0.000 C 
BRANCH  28  29
ATOM     29  N   UNL     1       4.384   4.064  11.312  0.00  0.00    +0.000 N 
ATOM     30  C   UNL     1       3.381   3.506  10.560  0.00  0.00    +0.000 C 
ATOM     31  C   UNL     1       2.836   4.405   9.481  0.00  0.00    +0.000 C 
ATOM     32  O   UNL     1       2.941   2.375  10.741  0.00  0.00    +0.000 OA
ATOM     33  H   UNL     1       4.739   4.986  11.092  0.00  0.00    +0.000 HD
ENDBRANCH  28  29
ENDBRANCH  27  28
ENDBRANCH  22  27
ENDBRANCH   1  24
TORSDOF 8
ENDMDL
MODEL 3
REMARK VINA RESULT:      -7.7      1.019      1.270
REMARK  Name = 
REMARK  10 active torsions:
REMARK  status: ('A' for Active; 'I' for Inactive)
REMARK    1  A    between atoms: C_2  and  C_3
REMARK    2  A    between atoms: C_2  and  C_8
REMARK    3  A    between atoms: C_3  and  N_4
REMARK    4  A    between atoms: C_5  and  C_6
REMARK    5  A    between atoms: N_10  and  C_11
REMARK    6  A    between atoms: C_15  and  C_16
REMARK    7  A    between atoms: C_23  and  C_24
REMARK    8  A    between atoms: C_24  and  O_26
REMARK    9  A    between atoms: O_26  and  C_27
REMARK   10  A    between atoms: C_27  and  C_28
REMARK                            x       y       z     vdW  Elec       q    Type
REMARK                         _______ _______ _______ _____ _____    ______ ____
ROOT
ATOM      1  C   UNL     1       6.207   4.435  16.323  0.00  0.00    +0.000 A 
ATOM      2  C   UNL     1       7.461   4.642  16.889  0.00  0.00    +0.000 A 
ATOM      3  C   UNL     1       7.562   5.082  18.204  0.00  0.00    +0.000 A 
ATOM      4  C   UNL     1       6.406   5.354  18.944  0.00  0.00    +0.000 A 
ATOM      5  C   UNL     1       5.129   5.092  18.429  0.00  0.00    +0.000 A 
ATOM      6  C   UNL     1       5.057   4.622  17.100  0.00  0.00    +0.000 A 
ENDROOT
BRANCH   5   7
ATOM      7  C   UNL     1       3.897   5.367  19.183  0.00  0.00    +0.000 A 
ATOM      8  N   UNL     1       3.418   6.653  19.063  0.00  0.00    +0.000 NA
ATOM      9  C   UNL     1       2.325   7.012  19.750  0.00  0.00    +0.000 A 
ATOM     10  N   UNL     1       1.589   6.247  20.569  0.00  0.00    +0.000 NA
ATOM     11  C   UNL     1       2.075   5.001  20.651  0.00  0.00    +0.000 A 
ATOM     12  N   UNL     1       1.485   4.036  21.415  0.00  0.00    +0.000 N 
ATOM     13  C   UNL     1       2.191   2.874  21.303  0.00  0.00    +0.000 A 
ATOM     14  C   UNL     1       3.241   3.083  20.416  0.00  0.00    +0.000 A 
ATOM     15  C   UNL     1       3.190   4.467  20.006  0.00  0.00    +0.000 A 
ATOM     16  H   UNL     1       0.642   4.184  21.956  0.00  0.00    +0.000 HD
BRANCH  14  17
ATOM     17  C   UNL     1       4.113   1.995  19.992  0.00  0.00    +0.000 C 
ATOM     18  O   UNL     1       5.211   1.769  20.477  0.00  0.00    +0.000 OA
BRANCH  17  19
ATOM     19  O   UNL     1       3.593   1.332  18.913  0.00  0.00    +0.000 OA
BRANCH  19  20
ATOM     20  C   UNL     1       2.412   1.915  18.347  0.00  0.00    +0.000 C 
ATOM     21  C   UNL     1       2.762   2.464  16.976  0.00  0.00    +0.000 C 
ENDBRANCH  19  20
ENDBRANCH  17  19
ENDBRANCH  14  17
ENDBRANCH   5   7
BRANCH   1  24
ATOM     22  C   UNL     1       6.783   4.533  13.935  0.00  0.00    +0.000 C 
ATOM     23  O   UNL     1       7.602   5.446  14.031  0.00  0.00    +0.000 OA
ATOM     24  N   UNL     1       6.060   4.010  14.990  0.00  0.00    +0.000 N 
ATOM     25  H   UNL     1       5.249   3.444  14.793  0.00  0.00    +0.000 HD
BRANCH  22  27
ATOM     26  C   UNL     1       7.425   3.830  11.601  0.00  0.00    +0.000 C 
ATOM     27  C   UNL     1       6.508   3.935  12.580  0.00  0.00    +0.000 C 
BRANCH  27  28
ATOM     28  C   UNL     1       5.122   3.376  12.405  0.00  0.00    +0.000 C 
BRANCH  28  29
ATOM     29  N   UNL     1       4.460   4.022  11.292  0.00  0.00    +0.000 N 
ATOM     30  C   UNL     1       3.400   3.445  10.637  0.00  0.00    +0.000 C 
ATOM     31  C   UNL     1       2.810   4.291   9.540  0.00  0.00    +0.000 C 
ATOM     32  O   UNL     1       2.948   2.338  10.913  0.00  0.00    +0.000 OA
ATOM     33  H   UNL     1       4.820   4.920  10.995  0.00  0.00    +0.000 HD
ENDBRANCH  28  29
ENDBRANCH  27  28
ENDBRANCH  22  27
ENDBRANCH   1  24
TORSDOF 8
ENDMDL
MODEL 4
REMARK VINA RESULT:      -7.5      1.696      2.103
REMARK  Name = 
REMARK  10 active torsions:
REMARK  status: ('A' for Active; 'I' for Inactive)
REMARK    1  A    between atoms: C_2  and  C_3
REMARK    2  A    between atoms: C_2  and  C_8
REMARK    3  A    between atoms: C_3  and  N_4
REMARK    4  A    between atoms: C_5  and  C_6
REMARK    5  A    between atoms: N_10  and  C_11
REMARK    6  A    between atoms: C_15  and  C_16
REMARK    7  A    between atoms: C_23  and  C_24
REMARK    8  A    between atoms: C_24  and  O_26
REMARK    9  A    between atoms: O_26  and  C_27
REMARK   10  A    between atoms: C_27  and  C_28
REMARK                            x       y       z     vdW  Elec       q    Type
REMARK                         _______ _______ _______ _____ _____    ______ ____
ROOT
ATOM      1  C   UNL     1       6.328   4.772  16.613  0.00  0.00    +0.000 A 
ATOM      2  C   UNL     1       7.550   4.915  17.264  0.00  0.00    +0.000 A 
ATOM      3  C   UNL     1       7.579   5.199  18.625  0.00  0.00    +0.000 A 
ATOM      4  C   UNL     1       6.383   5.380  19.329  0.00  0.00    +0.000 A 
ATOM      5  C   UNL     1       5.137   5.176  18.722  0.00  0.00    +0.000 A 
ATOM      6  C   UNL     1       5.138   4.864  17.345  0.00  0.00    +0.000 A 
ENDROOT
BRANCH   5   7
ATOM      7  C   UNL     1       3.865   5.357  19.437  0.00  0.00    +0.000 A 
ATOM      8  N   UNL     1       3.280   6.593  19.274  0.00  0.00    +0.000 NA
ATOM      9  C   UNL     1       2.141   6.870  19.925  0.00  0.00    +0.000 A 
ATOM     10  N   UNL     1       1.452   6.061  20.742  0.00  0.00    +0.000 NA
ATOM     11  C   UNL     1       2.042   4.863  20.865  0.00  0.00    +0.000 A 
ATOM     12  N   UNL     1       1.517   3.866  21.635  0.00  0.00    +0.000 N 
ATOM     13  C   UNL     1       2.324   2.769  21.568  0.00  0.00    +0.000 A 
ATOM     14  C   UNL     1       3.376   3.050  20.705  0.00  0.00    +0.000 A 
ATOM     15  C   UNL     1       3.217   4.417  20.262  0.00  0.00    +0.000 A 
ATOM     16  H   UNL     1       0.649   3.951  22.150  0.00  0.00    +0.000 HD
BRANCH  14  17
ATOM     17  C   UNL     1       4.351   2.035  20.328  0.00  0.00    +0.000 C 
ATOM     18  O   UNL     1       5.179   1.564  21.093  0.00  0.00    +0.000 OA
BRANCH  17  19
ATOM     19  O   UNL     1       4.291   1.758  18.988  0.00  0.00    +0.000 OA
BRANCH  19  20
ATOM     20  C   UNL     1       2.991   1.408  18.494  0.00  0.00    +0.000 C 
ATOM     21  C   UNL     1       2.654   2.336  17.341  0.00  0.00    +0.000 C 
ENDBRANCH  19  20
ENDBRANCH  17  19
ENDBRANCH  14  17
ENDBRANCH   5   7
BRANCH   1  24
ATOM     22  C   UNL     1       7.102   5.065  14.298  0.00  0.00    +0.000 C 
ATOM     23  O   UNL     1       7.986   5.882  14.553  0.00  0.00    +0.000 OA
ATOM     24  N   UNL     1       6.255   4.505  15.233  0.00  0.00    +0.000 N 
ATOM     25  H   UNL     1       5.417   4.041  14.917  0.00  0.00    +0.000 HD
BRANCH  22  27
ATOM     26  C   UNL     1       7.705   4.972  11.852  0.00  0.00    +0.000 C 
ATOM     27  C   UNL     1       6.888   4.641  12.868  0.00  0.00    +0.000 C 
BRANCH  27  28
ATOM     28  C   UNL     1       5.708   3.734  12.649  0.00  0.00    +0.000 C 
BRANCH  28  29
ATOM     29  N   UNL     1       6.158   2.412  12.267  0.00  0.00    +0.000 N 
ATOM     30  C   UNL     1       5.497   1.657  11.331  0.00  0.00    +0.000 C 
ATOM     31  C   UNL     1       6.145   0.332  11.028  0.00  0.00    +0.000 C 
ATOM     32  O   UNL     1       4.469   2.016  10.766  0.00  0.00    +0.000 OA
ATOM     33  H   UNL     1       6.980   2.049  12.733  0.00  0.00    +0.000 HD
ENDBRANCH  28  29
ENDBRANCH  27  28
ENDBRANCH  22  27
ENDBRANCH   1  24
TORSDOF 8
ENDMDL
MODEL 5
REMARK VINA RESULT:      -7.5      4.658      7.444
REMARK  Name = 
REMARK  10 active torsions:
REMARK  status: ('A' for Active; 'I' for Inactive)
REMARK    1  A    between atoms: C_2  and  C_3
REMARK    2  A    between atoms: C_2  and  C_8
REMARK    3  A    between atoms: C_3  and  N_4
REMARK    4  A    between atoms: C_5  and  C_6
REMARK    5  A    between atoms: N_10  and  C_11
REMARK    6  A    between atoms: C_15  and  C_16
REMARK    7  A    between atoms: C_23  and  C_24
REMARK    8  A    between atoms: C_24  and  O_26
REMARK    9  A    between atoms: O_26  and  C_27
REMARK   10  A    between atoms: C_27  and  C_28
REMARK                            x       y       z     vdW  Elec       q    Type
REMARK                         _______ _______ _______ _____ _____    ______ ____
ROOT
ATOM      1  C   UNL     1       2.450   7.132  18.766  0.00  0.00    +0.000 A 
ATOM      2  C   UNL     1       2.625   7.888  17.612  0.00  0.00    +0.000 A 
ATOM      3  C   UNL     1       2.169   9.201  17.570  0.00  0.00    +0.000 A 
ATOM      4  C   UNL     1       1.502   9.748  18.672  0.00  0.00    +0.000 A 
ATOM      5  C   UNL     1       1.370   9.039  19.874  0.00  0.00    +0.000 A 
ATOM      6  C   UNL     1       1.864   7.716  19.896  0.00  0.00    +0.000 A 
ENDROOT
BRANCH   5   7
ATOM      7  C   UNL     1       0.676   9.587  21.048  0.00  0.00    +0.000 A 
ATOM      8  N   UNL     1       1.065   9.049  22.255  0.00  0.00    +0.000 NA
ATOM      9  C   UNL     1       0.456   9.452  23.379  0.00  0.00    +0.000 A 
ATOM     10  N   UNL     1      -0.519  10.365  23.495  0.00  0.00    +0.000 NA
ATOM     11  C   UNL     1      -0.862  10.877  22.304  0.00  0.00    +0.000 A 
ATOM     12  N   UNL     1      -1.824  11.836  22.171  0.00  0.00    +0.000 N 
ATOM     13  C   UNL     1      -1.955  12.166  20.854  0.00  0.00    +0.000 A 
ATOM     14  C   UNL     1      -1.030  11.432  20.123  0.00  0.00    +0.000 A 
ATOM     15  C   UNL     1      -0.332  10.572  21.051  0.00  0.00    +0.000 A 
ATOM     16  H   UNL     1      -2.332  12.235  22.951  0.00  0.00    +0.000 HD
BRANCH  14  17
ATOM     17  C   UNL     1      -0.838  11.646  18.694  0.00  0.00    +0.000 C 
ATOM     18  O   UNL     1      -0.225  12.589  18.220  0.00  0.00    +0.000 OA
BRANCH  17  19
ATOM     19  O   UNL     1      -1.524  10.720  17.955  0.00  0.00    +0.000 OA
BRANCH  19  20
ATOM     20  C   UNL     1      -2.558  11.252  17.116  0.00  0.00    +0.000 C 
ATOM     21  C   UNL     1      -2.604  10.432  15.839  0.00  0.00    +0.000 C 
ENDBRANCH  19  20
ENDBRANCH  17  19
ENDBRANCH  14  17
ENDBRANCH   5   7
BRANCH   1  24
ATOM     22  C   UNL     1       2.230   4.745  18.220  0.00  0.00    +0.000 C 
ATOM     23  O   UNL     1       1.194   4.851  17.564  0.00  0.00    +0.000 OA
ATOM     24  N   UNL     1       2.878   5.793  18.843  0.00  0.00    +0.000 N 
ATOM     25  H   UNL     1       3.569   5.590  19.549  0.00  0.00    +0.000 HD
BRANCH  22  27
ATOM     26  C   UNL     1       2.155   2.230  18.381  0.00  0.00    +0.000 C 
ATOM     27  C   UNL     1       2.849   3.382  18.394  0.00  0.00    +0.000 C 
BRANCH  27  28
ATOM     28  C   UNL     1       4.349   3.382  18.515  0.00  0.00    +0.000 C 
BRANCH  28  29
ATOM     29  N   UNL     1       4.955   3.233  17.209  0.00  0.00    +0.000 N 
ATOM     30  C   UNL     1       5.435   4.305  16.498  0.00  0.00    +0.000 C 
ATOM     31  C   UNL     1       6.078   3.946  15.185  0.00  0.00    +0.000 C 
ATOM     32  O   UNL     1       5.366   5.466  16.887  0.00  0.00    +0.000 OA
ATOM     33  H   UNL     1       5.000   2.298  16.822  0.00  0.00    +0.000 HD
ENDBRANCH  28  29
ENDBRANCH  27  28
ENDBRANCH  22  27
ENDBRANCH   1  24
TORSDOF 8
ENDMDL
MODEL 6
REMARK VINA RESULT:      -7.3      4.722      9.245
REMARK  Name = 
REMARK  10 active torsions:
REMARK  status: ('A' for Active; 'I' for Inactive)
REMARK    1  A    between atoms: C_2  and  C_3
REMARK    2  A    between atoms: C_2  and  C_8
REMARK    3  A    between atoms: C_3  and  N_4
REMARK    4  A    between atoms: C_5  and  C_6
REMARK    5  A    between atoms: N_10  and  C_11
REMARK    6  A    between atoms: C_15  and  C_16
REMARK    7  A    between atoms: C_23  and  C_24
REMARK    8  A    between atoms: C_24  and  O_26
REMARK    9  A    between atoms: O_26  and  C_27
REMARK   10  A    between atoms: C_27  and  C_28
REMARK                            x       y       z     vdW  Elec       q    Type
REMARK                         _______ _______ _______ _____ _____    ______ ____
ROOT
ATOM      1  C   UNL     1       1.489   8.487  19.749  0.00  0.00    +0.000 A 
ATOM      2  C   UNL     1       1.277   9.128  18.532  0.00  0.00    +0.000 A 
ATOM      3  C   UNL     1       1.961   8.702  17.399  0.00  0.00    +0.000 A 
ATOM      4  C   UNL     1       2.888   7.658  17.489  0.00  0.00    +0.000 A 
ATOM      5  C   UNL     1       3.075   6.946  18.682  0.00  0.00    +0.000 A 
ATOM      6  C   UNL     1       2.350   7.385  19.811  0.00  0.00    +0.000 A 
ENDROOT
BRANCH   5   7
ATOM      7  C   UNL     1       4.040   5.844  18.806  0.00  0.00    +0.000 A 
ATOM      8  N   UNL     1       5.320   6.230  19.137  0.00  0.00    +0.000 NA
ATOM      9  C   UNL     1       6.282   5.300  19.228  0.00  0.00    +0.000 A 
ATOM     10  N   UNL     1       6.157   3.978  19.045  0.00  0.00    +0.000 NA
ATOM     11  C   UNL     1       4.897   3.638  18.739  0.00  0.00    +0.000 A 
ATOM     12  N   UNL     1       4.523   2.344  18.522  0.00  0.00    +0.000 N 
ATOM     13  C   UNL     1       3.190   2.299  18.236  0.00  0.00    +0.000 A 
ATOM     14  C   UNL     1       2.683   3.591  18.307  0.00  0.00    +0.000 A 
ATOM     15  C   UNL     1       3.788   4.472  18.608  0.00  0.00    +0.000 A 
ATOM     16  H   UNL     1       5.156   1.556  18.589  0.00  0.00    +0.000 HD
BRANCH  14  17
ATOM     17  C   UNL     1       1.258   3.863  18.168  0.00  0.00    +0.000 C 
ATOM     18  O   UNL     1       0.764   4.461  17.224  0.00  0.00    +0.000 OA
BRANCH  17  19
ATOM     19  O   UNL     1       0.564   3.463  19.278  0.00  0.00    +0.000 OA
BRANCH  19  20
ATOM     20  C   UNL     1       1.058   3.969  20.524  0.00  0.00    +0.000 C 
ATOM     21  C   UNL     1       1.331   2.791  21.442  0.00  0.00    +0.000 C 
ENDBRANCH  19  20
ENDBRANCH  17  19
ENDBRANCH  14  17
ENDBRANCH   5   7
BRANCH   1  24
ATOM     22  C   UNL     1       0.329  10.172  21.114  0.00  0.00    +0.000 C 
ATOM     23  O   UNL     1       0.425  11.092  20.303  0.00  0.00    +0.000 OA
ATOM     24  N   UNL     1       0.834   8.900  20.924  0.00  0.00    +0.000 N 
ATOM     25  H   UNL     1       0.926   8.288  21.720  0.00  0.00    +0.000 HD
BRANCH  22  27
ATOM     26  C   UNL     1      -0.591   9.475  23.355  0.00  0.00    +0.000 C 
ATOM     27  C   UNL     1      -0.364  10.422  22.428  0.00  0.00    +0.000 C 
BRANCH  27  28
ATOM     28  C   UNL     1      -0.735  11.858  22.682  0.00  0.00    +0.000 C 
BRANCH  28  29
ATOM     29  N   UNL     1      -1.917  12.211  21.925  0.00  0.00    +0.000 N 
ATOM     30  C   UNL     1      -3.161  12.277  22.500  0.00  0.00    +0.000 C 
ATOM     31  C   UNL     1      -4.259  12.712  21.566  0.00  0.00    +0.000 C 
ATOM     32  O   UNL     1      -3.383  12.018  23.679  0.00  0.00    +0.000 OA
ATOM     33  H   UNL     1      -1.798  12.395  20.937  0.00  0.00    +0.000 HD
ENDBRANCH  28  29
ENDBRANCH  27  28
ENDBRANCH  22  27
ENDBRANCH   1  24
TORSDOF 8
ENDMDL
MODEL 7
REMARK VINA RESULT:      -7.3      4.758      9.416
REMARK  Name = 
REMARK  10 active torsions:
REMARK  status: ('A' for Active; 'I' for Inactive)
REMARK    1  A    between atoms: C_2  and  C_3
REMARK    2  A    between atoms: C_2  and  C_8
REMARK    3  A    between atoms: C_3  and  N_4
REMARK    4  A    between atoms: C_5  and  C_6
REMARK    5  A    between atoms: N_10  and  C_11
REMARK    6  A    between atoms: C_15  and  C_16
REMARK    7  A    between atoms: C_23  and  C_24
REMARK    8  A    between atoms: C_24  and  O_26
REMARK    9  A    between atoms: O_26  and  C_27
REMARK   10  A    between atoms: C_27  and  C_28
REMARK                            x       y       z     vdW  Elec       q    Type
REMARK                         _______ _______ _______ _____ _____    ______ ____
ROOT
ATOM      1  C   UNL     1       1.467   8.411  19.776  0.00  0.00    +0.000 A 
ATOM      2  C   UNL     1       1.279   9.140  18.607  0.00  0.00    +0.000 A 
ATOM      3  C   UNL     1       2.003   8.814  17.465  0.00  0.00    +0.000 A 
ATOM      4  C   UNL     1       2.945   7.781  17.502  0.00  0.00    +0.000 A 
ATOM      5  C   UNL     1       3.111   6.982  18.642  0.00  0.00    +0.000 A 
ATOM      6  C   UNL     1       2.345   7.320  19.779  0.00  0.00    +0.000 A 
ENDROOT
BRANCH   5   7
ATOM      7  C   UNL     1       4.092   5.889  18.711  0.00  0.00    +0.000 A 
ATOM      8  N   UNL     1       5.381   6.284  18.991  0.00  0.00    +0.000 NA
ATOM      9  C   UNL     1       6.355   5.365  19.029  0.00  0.00    +0.000 A 
ATOM     10  N   UNL     1       6.237   4.044  18.834  0.00  0.00    +0.000 NA
ATOM     11  C   UNL     1       4.968   3.693  18.578  0.00  0.00    +0.000 A 
ATOM     12  N   UNL     1       4.598   2.398  18.359  0.00  0.00    +0.000 N 
ATOM     13  C   UNL     1       3.255   2.343  18.130  0.00  0.00    +0.000 A 
ATOM     14  C   UNL     1       2.738   3.628  18.240  0.00  0.00    +0.000 A 
ATOM     15  C   UNL     1       3.846   4.517  18.505  0.00  0.00    +0.000 A 
ATOM     16  H   UNL     1       5.242   1.616  18.388  0.00  0.00    +0.000 HD
BRANCH  14  17
ATOM     17  C   UNL     1       1.306   3.887  18.165  0.00  0.00    +0.000 C 
ATOM     18  O   UNL     1       0.773   4.539  17.281  0.00  0.00    +0.000 OA
BRANCH  17  19
ATOM     19  O   UNL     1       0.654   3.400  19.266  0.00  0.00    +0.000 OA
BRANCH  19  20
ATOM     20  C   UNL     1       1.024   4.005  20.512  0.00  0.00    +0.000 C 
ATOM     21  C   UNL     1       1.468   2.907  21.462  0.00  0.00    +0.000 C 
ENDBRANCH  19  20
ENDBRANCH  17  19
ENDBRANCH  14  17
ENDBRANCH   5   7
BRANCH   1  24
ATOM     22  C   UNL     1       0.499  10.010  21.373  0.00  0.00    +0.000 C 
ATOM     23  O   UNL     1       0.861  11.027  20.782  0.00  0.00    +0.000 OA
ATOM     24  N   UNL     1       0.771   8.721  20.959  0.00  0.00    +0.000 N 
ATOM     25  H   UNL     1       0.652   7.963  21.613  0.00  0.00    +0.000 HD
BRANCH  22  27
ATOM     26  C   UNL     1      -0.037   9.431  23.767  0.00  0.00    +0.000 C 
ATOM     27  C   UNL     1      -0.281  10.147  22.654  0.00  0.00    +0.000 C 
BRANCH  27  28
ATOM     28  C   UNL     1      -1.338  11.218  22.640  0.00  0.00    +0.000 C 
BRANCH  28  29
ATOM     29  N   UNL     1      -0.721  12.528  22.641  0.00  0.00    +0.000 N 
ATOM     30  C   UNL     1      -1.327  13.621  23.207  0.00  0.00    +0.000 C 
ATOM     31  C   UNL     1      -0.509  14.884  23.157  0.00  0.00    +0.000 C 
ATOM     32  O   UNL     1      -2.439  13.593  23.726  0.00  0.00    +0.000 OA
ATOM     33  H   UNL     1       0.180  12.617  22.188  0.00  0.00    +0.000 HD
ENDBRANCH  28  29
ENDBRANCH  27  28
ENDBRANCH  22  27
ENDBRANCH   1  24
TORSDOF 8
ENDMDL
MODEL 8
REMARK VINA RESULT:      -7.3      4.811      8.294
REMARK  Name = 
REMARK  10 active torsions:
REMARK  status: ('A' for Active; 'I' for Inactive)
REMARK    1  A    between atoms: C_2  and  C_3
REMARK    2  A    between atoms: C_2  and  C_8
REMARK    3  A    between atoms: C_3  and  N_4
REMARK    4  A    between atoms: C_5  and  C_6
REMARK    5  A    between atoms: N_10  and  C_11
REMARK    6  A    between atoms: C_15  and  C_16
REMARK    7  A    between atoms: C_23  and  C_24
REMARK    8  A    between atoms: C_24  and  O_26
REMARK    9  A    between atoms: O_26  and  C_27
REMARK   10  A    between atoms: C_27  and  C_28
REMARK                            x       y       z     vdW  Elec       q    Type
REMARK                         _______ _______ _______ _____ _____    ______ ____
ROOT
ATOM      1  C   UNL     1       2.402   7.397  19.074  0.00  0.00    +0.000 A 
ATOM      2  C   UNL     1       2.283   7.918  17.789  0.00  0.00    +0.000 A 
ATOM      3  C   UNL     1       1.547   9.079  17.579  0.00  0.00    +0.000 A 
ATOM      4  C   UNL     1       0.897   9.701  18.651  0.00  0.00    +0.000 A 
ATOM      5  C   UNL     1       1.052   9.244  19.967  0.00  0.00    +0.000 A 
ATOM      6  C   UNL     1       1.824   8.077  20.153  0.00  0.00    +0.000 A 
ENDROOT
BRANCH   5   7
ATOM      7  C   UNL     1       0.382   9.878  21.112  0.00  0.00    +0.000 A 
ATOM      8  N   UNL     1       0.021   9.015  22.122  0.00  0.00    +0.000 NA
ATOM      9  C   UNL     1      -0.636   9.492  23.188  0.00  0.00    +0.000 A 
ATOM     10  N   UNL     1      -0.996  10.762  23.422  0.00  0.00    +0.000 NA
ATOM     11  C   UNL     1      -0.616  11.576  22.426  0.00  0.00    +0.000 A 
ATOM     12  N   UNL     1      -0.859  12.918  22.447  0.00  0.00    +0.000 N 
ATOM     13  C   UNL     1      -0.361  13.487  21.312  0.00  0.00    +0.000 A 
ATOM     14  C   UNL     1       0.253  12.494  20.558  0.00  0.00    +0.000 A 
ATOM     15  C   UNL     1       0.071  11.245  21.260  0.00  0.00    +0.000 A 
ATOM     16  H   UNL     1      -1.325  13.394  23.211  0.00  0.00    +0.000 HD
BRANCH  14  17
ATOM     17  C   UNL     1       0.989  12.804  19.338  0.00  0.00    +0.000 C 
ATOM     18  O   UNL     1       0.464  12.988  18.250  0.00  0.00    +0.000 OA
BRANCH  17  19
ATOM     19  O   UNL     1       2.341  12.753  19.546  0.00  0.00    +0.000 OA
BRANCH  19  20
ATOM     20  C   UNL     1       2.990  14.026  19.658  0.00  0.00    +0.000 C 
ATOM     21  C   UNL     1       3.701  14.315  18.349  0.00  0.00    +0.000 C 
ENDBRANCH  19  20
ENDBRANCH  17  19
ENDBRANCH  14  17
ENDBRANCH   5   7
BRANCH   1  24
ATOM     22  C   UNL     1       2.652   4.952  19.010  0.00  0.00    +0.000 C 
ATOM     23  O   UNL     1       1.552   4.717  18.511  0.00  0.00    +0.000 OA
ATOM     24  N   UNL     1       3.119   6.213  19.327  0.00  0.00    +0.000 N 
ATOM     25  H   UNL     1       3.911   6.300  19.944  0.00  0.00    +0.000 HD
BRANCH  22  27
ATOM     26  C   UNL     1       3.398   2.966  20.372  0.00  0.00    +0.000 C 
ATOM     27  C   UNL     1       3.571   3.803  19.333  0.00  0.00    +0.000 C 
BRANCH  27  28
ATOM     28  C   UNL     1       4.691   3.595  18.350  0.00  0.00    +0.000 C 
BRANCH  28  29
ATOM     29  N   UNL     1       5.939   4.075  18.904  0.00  0.00    +0.000 N 
ATOM     30  C   UNL     1       6.424   5.330  18.634  0.00  0.00    +0.000 C 
ATOM     31  C   UNL     1       7.709   5.668  19.344  0.00  0.00    +0.000 C 
ATOM     32  O   UNL     1       5.869   6.131  17.889  0.00  0.00    +0.000 OA
ATOM     33  H   UNL     1       6.459   3.438  19.494  0.00  0.00    +0.000 HD
ENDBRANCH  28  29
ENDBRANCH  27  28
ENDBRANCH  22  27
ENDBRANCH   1  24
TORSDOF 8
ENDMDL
MODEL 9
REMARK VINA RESULT:      -7.3      5.589      8.837
REMARK  Name = 
REMARK  10 active torsions:
REMARK  status: ('A' for Active; 'I' for Inactive)
REMARK    1  A    between atoms: C_2  and  C_3
REMARK    2  A    between atoms: C_2  and  C_8
REMARK    3  A    between atoms: C_3  and  N_4
REMARK    4  A    between atoms: C_5  and  C_6
REMARK    5  A    between atoms: N_10  and  C_11
REMARK    6  A    between atoms: C_15  and  C_16
REMARK    7  A    between atoms: C_23  and  C_24
REMARK    8  A    between atoms: C_24  and  O_26
REMARK    9  A    between atoms: O_26  and  C_27
REMARK   10  A    between atoms: C_27  and  C_28
REMARK                            x       y       z     vdW  Elec       q    Type
REMARK                         _______ _______ _______ _____ _____    ______ ____
ROOT
ATOM      1  C   UNL     1       1.610   9.792  18.069  0.00  0.00    +0.000 A 
ATOM      2  C   UNL     1       2.534  10.830  18.136  0.00  0.00    +0.000 A 
ATOM      3  C   UNL     1       2.110  12.112  18.470  0.00  0.00    +0.000 A 
ATOM      4  C   UNL     1       0.754  12.365  18.700  0.00  0.00    +0.000 A 
ATOM      5  C   UNL     1      -0.193  11.331  18.708  0.00  0.00    +0.000 A 
ATOM      6  C   UNL     1       0.269  10.036  18.390  0.00  0.00    +0.000 A 
ENDROOT
BRANCH   5   7
ATOM      7  C   UNL     1      -1.625  11.566  18.948  0.00  0.00    +0.000 A 
ATOM      8  N   UNL     1      -2.445  11.287  17.877  0.00  0.00    +0.000 NA
ATOM      9  C   UNL     1      -3.761  11.514  17.983  0.00  0.00    +0.000 A 
ATOM     10  N   UNL     1      -4.423  11.986  19.049  0.00  0.00    +0.000 NA
ATOM     11  C   UNL     1      -3.597  12.233  20.076  0.00  0.00    +0.000 A 
ATOM     12  N   UNL     1      -4.043  12.708  21.275  0.00  0.00    +0.000 N 
ATOM     13  C   UNL     1      -2.987  12.859  22.124  0.00  0.00    +0.000 A 
ATOM     14  C   UNL     1      -1.835  12.437  21.471  0.00  0.00    +0.000 A 
ATOM     15  C   UNL     1      -2.216  12.052  20.131  0.00  0.00    +0.000 A 
ATOM     16  H   UNL     1      -5.018  12.891  21.480  0.00  0.00    +0.000 HD
BRANCH  14  17
ATOM     17  C   UNL     1      -0.550  12.363  22.155  0.00  0.00    +0.000 C 
ATOM     18  O   UNL     1       0.443  12.986  21.814  0.00  0.00    +0.000 OA
BRANCH  17  19
ATOM     19  O   UNL     1      -0.571  11.426  23.153  0.00  0.00    +0.000 OA
BRANCH  19  20
ATOM     20  C   UNL     1      -0.679  10.066  22.713  0.00  0.00    +0.000 C 
ATOM     21  C   UNL     1       0.653   9.651  22.116  0.00  0.00    +0.000 C 
ENDBRANCH  19  20
ENDBRANCH  17  19
ENDBRANCH  14  17
ENDBRANCH   5   7
BRANCH   1  24
ATOM     22  C   UNL     1       2.325   7.508  18.631  0.00  0.00    +0.000 C 
ATOM     23  O   UNL     1       2.361   7.674  19.850  0.00  0.00    +0.000 OA
ATOM     24  N   UNL     1       1.994   8.485  17.714  0.00  0.00    +0.000 N 
ATOM     25  H   UNL     1       2.220   8.340  16.742  0.00  0.00    +0.000 HD
BRANCH  22  27
ATOM     26  C   UNL     1       3.891   5.853  17.551  0.00  0.00    +0.000 C 
ATOM     27  C   UNL     1       2.686   6.159  18.065  0.00  0.00    +0.000 C 
BRANCH  27  28
ATOM     28  C   UNL     1       1.605   5.118  18.177  0.00  0.00    +0.000 C 
BRANCH  28  29
ATOM     29  N   UNL     1       1.569   4.578  19.520  0.00  0.00    +0.000 N 
ATOM     30  C   UNL     1       1.204   3.280  19.777  0.00  0.00    +0.000 C 
ATOM     31  C   UNL     1       1.279   2.887  21.228  0.00  0.00    +0.000 C 
ATOM     32  O   UNL     1       0.853   2.486  18.910  0.00  0.00    +0.000 OA
ATOM     33  H   UNL     1       1.809   5.204  20.278  0.00  0.00    +0.000 HD
ENDBRANCH  28  29
ENDBRANCH  27  28
ENDBRANCH  22  27
ENDBRANCH   1  24
TORSDOF 8
ENDMDL
