MODEL 1
REMARK VINA RESULT:      -9.1      0.000      0.000
REMARK  Name = 
REMARK  7 active torsions:
REMARK  status: ('A' for Active; 'I' for Inactive)
REMARK    1  A    between atoms: C_1  and  C_2
REMARK    2  A    between atoms: C_5  and  N_6
REMARK    3  A    between atoms: N_6  and  N_7
REMARK    4  A    between atoms: C_8  and  C_9
REMARK    5  A    between atoms: C_8  and  C_11
REMARK    6  A    between atoms: C_11  and  C_13
REMARK    7  A    between atoms: C_21  and  C_22
REMARK                            x       y       z     vdW  Elec       q    Type
REMARK                         _______ _______ _______ _____ _____    ______ ____
ROOT
ATOM      1  N   UNL     1       7.287   4.777  16.866  0.00  0.00    +0.000 NA
ATOM      2  C   UNL     1       7.137   5.714  17.764  0.00  0.00    +0.000 C 
ENDROOT
BRANCH   1   3
ATOM      3  N   UNL     1       7.699   5.090  15.600  0.00  0.00    +0.000 N 
ATOM      4  H   UNL     1       8.673   5.284  15.367  0.00  0.00    +0.000 HD
BRANCH   3   9
ATOM      5  C   UNL     1       4.536   3.065  11.257  0.00  0.00    +0.000 C 
ATOM      6  C   UNL     1       5.367   3.612  12.381  0.00  0.00    +0.000 A 
ATOM      7  C   UNL     1       6.686   4.016  12.165  0.00  0.00    +0.000 A 
ATOM      8  C   UNL     1       7.456   4.517  13.220  0.00  0.00    +0.000 A 
ATOM      9  C   UNL     1       6.925   4.644  14.508  0.00  0.00    +0.000 A 
ATOM     10  C   UNL     1       5.608   4.214  14.720  0.00  0.00    +0.000 A 
ATOM     11  C   UNL     1       4.833   3.711  13.669  0.00  0.00    +0.000 A 
ENDBRANCH   3   9
ENDBRANCH   1   3
BRANCH   2  12
ATOM     12  C   UNL     1       7.445   7.073  17.381  0.00  0.00    +0.000 C 
ATOM     13  N   UNL     1       7.650   8.186  17.110  0.00  0.00    +0.000 NA
ENDBRANCH   2  12
BRANCH   2  14
ATOM     14  C   UNL     1       6.614   5.348  19.139  0.00  0.00    +0.000 C 
ATOM     15  O   UNL     1       7.374   5.435  20.098  0.00  0.00    +0.000 OA
BRANCH  14  16
ATOM     16  C   UNL     1       5.246   4.885  19.220  0.00  0.00    +0.000 A 
ATOM     17  O   UNL     1       4.990   3.718  19.879  0.00  0.00    +0.000 OA
ATOM     18  C   UNL     1       3.648   3.535  19.899  0.00  0.00    +0.000 A 
ATOM     19  C   UNL     1       2.997   2.467  20.506  0.00  0.00    +0.000 A 
ATOM     20  C   UNL     1       1.603   2.460  20.424  0.00  0.00    +0.000 A 
ATOM     21  C   UNL     1       0.916   3.483  19.766  0.00  0.00    +0.000 A 
ATOM     22  C   UNL     1       1.605   4.546  19.161  0.00  0.00    +0.000 A 
ATOM     23  C   UNL     1       3.012   4.568  19.226  0.00  0.00    +0.000 A 
ATOM     24  C   UNL     1       4.053   5.428  18.750  0.00  0.00    +0.000 A 
ATOM     25  C   UNL     1       3.886   6.655  17.927  0.00  0.00    +0.000 C 
ENDBRANCH  14  16
ENDBRANCH   2  14
TORSDOF 5
ENDMDL
MODEL 2
REMARK VINA RESULT:      -8.9      3.376      6.078
REMARK  Name = 
REMARK  7 active torsions:
REMARK  status: ('A' for Active; 'I' for Inactive)
REMARK    1  A    between atoms: C_1  and  C_2
REMARK    2  A    between atoms: C_5  and  N_6
REMARK    3  A    between atoms: N_6  and  N_7
REMARK    4  A    between atoms: C_8  and  C_9
REMARK    5  A    between atoms: C_8  and  C_11
REMARK    6  A    between atoms: C_11  and  C_13
REMARK    7  A    between atoms: C_21  and  C_22
REMARK                            x       y       z     vdW  Elec       q    Type
REMARK                         _______ _______ _______ _____ _____    ______ ____
ROOT
ATOM      1  N   UNL     1       8.044   7.797  17.887  0.00  0.00    +0.000 NA
ATOM      2  C   UNL     1       7.541   6.597  17.990  0.00  0.00    +0.000 C 
ENDROOT
BRANCH   1   3
ATOM      3  N   UNL     1       8.670   8.381  18.953  0.00  0.00    +0.000 N 
ATOM      4  H   UNL     1       9.297   7.870  19.574  0.00  0.00    +0.000 HD
BRANCH   3   9
ATOM      5  C   UNL     1       9.740  14.013  18.643  0.00  0.00    +0.000 C 
ATOM      6  C   UNL     1       9.451  12.544  18.743  0.00  0.00    +0.000 A 
ATOM      7  C   UNL     1       9.887  11.802  19.844  0.00  0.00    +0.000 A 
ATOM      8  C   UNL     1       9.621  10.432  19.925  0.00  0.00    +0.000 A 
ATOM      9  C   UNL     1       8.900   9.773  18.923  0.00  0.00    +0.000 A 
ATOM     10  C   UNL     1       8.487  10.520  17.812  0.00  0.00    +0.000 A 
ATOM     11  C   UNL     1       8.752  11.892  17.724  0.00  0.00    +0.000 A 
ENDBRANCH   3   9
ENDBRANCH   1   3
BRANCH   2  12
ATOM     12  C   UNL     1       7.694   5.906  19.250  0.00  0.00    +0.000 C 
ATOM     13  N   UNL     1       7.765   5.320  20.253  0.00  0.00    +0.000 NA
ENDBRANCH   2  12
BRANCH   2  14
ATOM     14  C   UNL     1       6.793   6.000  16.814  0.00  0.00    +0.000 C 
ATOM     15  O   UNL     1       7.303   6.065  15.701  0.00  0.00    +0.000 OA
BRANCH  14  16
ATOM     16  C   UNL     1       5.497   5.418  17.087  0.00  0.00    +0.000 A 
ATOM     17  O   UNL     1       5.384   4.058  17.108  0.00  0.00    +0.000 OA
ATOM     18  C   UNL     1       4.114   3.750  17.464  0.00  0.00    +0.000 A 
ATOM     19  C   UNL     1       3.620   2.460  17.621  0.00  0.00    +0.000 A 
ATOM     20  C   UNL     1       2.281   2.348  18.001  0.00  0.00    +0.000 A 
ATOM     21  C   UNL     1       1.496   3.485  18.212  0.00  0.00    +0.000 A 
ATOM     22  C   UNL     1       2.026   4.773  18.043  0.00  0.00    +0.000 A 
ATOM     23  C   UNL     1       3.373   4.908  17.652  0.00  0.00    +0.000 A 
ATOM     24  C   UNL     1       4.261   5.994  17.369  0.00  0.00    +0.000 A 
ATOM     25  C   UNL     1       3.926   7.443  17.384  0.00  0.00    +0.000 C 
ENDBRANCH  14  16
ENDBRANCH   2  14
TORSDOF 5
ENDMDL
MODEL 3
REMARK VINA RESULT:      -8.4      3.445      7.000
REMARK  Name = 
REMARK  7 active torsions:
REMARK  status: ('A' for Active; 'I' for Inactive)
REMARK    1  A    between atoms: C_1  and  C_2
REMARK    2  A    between atoms: C_5  and  N_6
REMARK    3  A    between atoms: N_6  and  N_7
REMARK    4  A    between atoms: C_8  and  C_9
REMARK    5  A    between atoms: C_8  and  C_11
REMARK    6  A    between atoms: C_11  and  C_13
REMARK    7  A    between atoms: C_21  and  C_22
REMARK                            x       y       z     vdW  Elec       q    Type
REMARK                         _______ _______ _______ _____ _____    ______ ____
ROOT
ATOM      1  N   UNL     1       3.108   5.127  20.304  0.00  0.00    +0.000 NA
ATOM      2  C   UNL     1       3.193   3.844  20.536  0.00  0.00    +0.000 C 
ENDROOT
BRANCH   1   3
ATOM      3  N   UNL     1       2.110   5.870  20.873  0.00  0.00    +0.000 N 
ATOM      4  H   UNL     1       1.816   5.751  21.843  0.00  0.00    +0.000 HD
BRANCH   3   9
ATOM      5  C   UNL     1       0.738  11.007  18.707  0.00  0.00    +0.000 C 
ATOM      6  C   UNL     1       1.118   9.668  19.269  0.00  0.00    +0.000 A 
ATOM      7  C   UNL     1       1.864   8.760  18.515  0.00  0.00    +0.000 A 
ATOM      8  C   UNL     1       2.206   7.511  19.043  0.00  0.00    +0.000 A 
ATOM      9  C   UNL     1       1.829   7.145  20.339  0.00  0.00    +0.000 A 
ATOM     10  C   UNL     1       1.060   8.053  21.080  0.00  0.00    +0.000 A 
ATOM     11  C   UNL     1       0.714   9.304  20.557  0.00  0.00    +0.000 A 
ENDBRANCH   3   9
ENDBRANCH   1   3
BRANCH   2  12
ATOM     12  C   UNL     1       2.222   3.253  21.428  0.00  0.00    +0.000 C 
ATOM     13  N   UNL     1       1.430   2.733  22.104  0.00  0.00    +0.000 NA
ENDBRANCH   2  12
BRANCH   2  14
ATOM     14  C   UNL     1       4.267   3.033  19.839  0.00  0.00    +0.000 C 
ATOM     15  O   UNL     1       4.720   2.047  20.411  0.00  0.00    +0.000 OA
BRANCH  14  16
ATOM     16  C   UNL     1       4.711   3.503  18.546  0.00  0.00    +0.000 A 
ATOM     17  O   UNL     1       5.979   3.993  18.429  0.00  0.00    +0.000 OA
ATOM     18  C   UNL     1       6.194   4.289  17.124  0.00  0.00    +0.000 A 
ATOM     19  C   UNL     1       7.384   4.787  16.604  0.00  0.00    +0.000 A 
ATOM     20  C   UNL     1       7.412   5.022  15.228  0.00  0.00    +0.000 A 
ATOM     21  C   UNL     1       6.294   4.760  14.431  0.00  0.00    +0.000 A 
ATOM     22  C   UNL     1       5.108   4.259  14.989  0.00  0.00    +0.000 A 
ATOM     23  C   UNL     1       5.056   4.022  16.376  0.00  0.00    +0.000 A 
ATOM     24  C   UNL     1       4.076   3.548  17.307  0.00  0.00    +0.000 A 
ATOM     25  C   UNL     1       2.670   3.172  17.001  0.00  0.00    +0.000 C 
ENDBRANCH  14  16
ENDBRANCH   2  14
TORSDOF 5
ENDMDL
MODEL 4
REMARK VINA RESULT:      -8.4      3.222      5.889
REMARK  Name = 
REMARK  7 active torsions:
REMARK  status: ('A' for Active; 'I' for Inactive)
REMARK    1  A    between atoms: C_1  and  C_2
REMARK    2  A    between atoms: C_5  and  N_6
REMARK    3  A    between atoms: N_6  and  N_7
REMARK    4  A    between atoms: C_8  and  C_9
REMARK    5  A    between atoms: C_8  and  C_11
REMARK    6  A    between atoms: C_11  and  C_13
REMARK    7  A    between atoms: C_21  and  C_22
REMARK                            x       y       z     vdW  Elec       q    Type
REMARK                         _______ _______ _______ _____ _____    ______ ____
ROOT
ATOM      1  N   UNL     1       7.360   7.841  17.389  0.00  0.00    +0.000 NA
ATOM      2  C   UNL     1       6.657   6.760  17.597  0.00  0.00    +0.000 C 
ENDROOT
BRANCH   1   3
ATOM      3  N   UNL     1       8.319   8.227  18.285  0.00  0.00    +0.000 N 
ATOM      4  H   UNL     1       9.059   7.602  18.607  0.00  0.00    +0.000 HD
BRANCH   3   9
ATOM      5  C   UNL     1       9.523  13.808  18.885  0.00  0.00    +0.000 C 
ATOM      6  C   UNL     1       9.215  12.350  18.708  0.00  0.00    +0.000 A 
ATOM      7  C   UNL     1       8.386  11.914  17.672  0.00  0.00    +0.000 A 
ATOM      8  C   UNL     1       8.097  10.554  17.520  0.00  0.00    +0.000 A 
ATOM      9  C   UNL     1       8.642   9.597  18.382  0.00  0.00    +0.000 A 
ATOM     10  C   UNL     1       9.455  10.046  19.432  0.00  0.00    +0.000 A 
ATOM     11  C   UNL     1       9.746  11.405  19.591  0.00  0.00    +0.000 A 
ENDBRANCH   3   9
ENDBRANCH   1   3
BRANCH   2  12
ATOM     12  C   UNL     1       6.946   5.982  18.780  0.00  0.00    +0.000 C 
ATOM     13  N   UNL     1       7.159   5.306  19.703  0.00  0.00    +0.000 NA
ENDBRANCH   2  12
BRANCH   2  14
ATOM     14  C   UNL     1       5.554   6.393  16.624  0.00  0.00    +0.000 C 
ATOM     15  O   UNL     1       5.633   6.798  15.468  0.00  0.00    +0.000 OA
BRANCH  14  16
ATOM     16  C   UNL     1       4.456   5.608  17.141  0.00  0.00    +0.000 A 
ATOM     17  O   UNL     1       4.481   4.255  16.968  0.00  0.00    +0.000 OA
ATOM     18  C   UNL     1       3.405   3.731  17.604  0.00  0.00    +0.000 A 
ATOM     19  C   UNL     1       3.102   2.376  17.676  0.00  0.00    +0.000 A 
ATOM     20  C   UNL     1       1.950   2.033  18.385  0.00  0.00    +0.000 A 
ATOM     21  C   UNL     1       1.158   3.013  18.988  0.00  0.00    +0.000 A 
ATOM     22  C   UNL     1       1.491   4.373  18.894  0.00  0.00    +0.000 A 
ATOM     23  C   UNL     1       2.647   4.741  18.176  0.00  0.00    +0.000 A 
ATOM     24  C   UNL     1       3.308   5.967  17.843  0.00  0.00    +0.000 A 
ATOM     25  C   UNL     1       2.857   7.342  18.188  0.00  0.00    +0.000 C 
ENDBRANCH  14  16
ENDBRANCH   2  14
TORSDOF 5
ENDMDL
MODEL 5
REMARK VINA RESULT:      -8.3      3.424      6.300
REMARK  Name = 
REMARK  7 active torsions:
REMARK  status: ('A' for Active; 'I' for Inactive)
REMARK    1  A    between atoms: C_1  and  C_2
REMARK    2  A    between atoms: C_5  and  N_6
REMARK    3  A    between atoms: N_6  and  N_7
REMARK    4  A    between atoms: C_8  and  C_9
REMARK    5  A    between atoms: C_8  and  C_11
REMARK    6  A    between atoms: C_11  and  C_13
REMARK    7  A    between atoms: C_21  and  C_22
REMARK                            x       y       z     vdW  Elec       q    Type
REMARK                         _______ _______ _______ _____ _____    ______ ____
ROOT
ATOM      1  N   UNL     1       8.164   7.881  18.074  0.00  0.00    +0.000 NA
ATOM      2  C   UNL     1       7.703   6.662  18.156  0.00  0.00    +0.000 C 
ENDROOT
BRANCH   1   3
ATOM      3  N   UNL     1       8.783   8.462  19.147  0.00  0.00    +0.000 N 
ATOM      4  H   UNL     1       9.399   7.947  19.776  0.00  0.00    +0.000 HD
BRANCH   3   9
ATOM      5  C   UNL     1       9.919  14.082  18.860  0.00  0.00    +0.000 C 
ATOM      6  C   UNL     1       9.610  12.617  18.953  0.00  0.00    +0.000 A 
ATOM      7  C   UNL     1       9.879  11.901  20.121  0.00  0.00    +0.000 A 
ATOM      8  C   UNL     1       9.596  10.533  20.196  0.00  0.00    +0.000 A 
ATOM      9  C   UNL     1       9.023   9.852  19.117  0.00  0.00    +0.000 A 
ATOM     10  C   UNL     1       8.778  10.573  17.941  0.00  0.00    +0.000 A 
ATOM     11  C   UNL     1       9.060  11.942  17.859  0.00  0.00    +0.000 A 
ENDBRANCH   3   9
ENDBRANCH   1   3
BRANCH   2  12
ATOM     12  C   UNL     1       7.895   5.949  19.399  0.00  0.00    +0.000 C 
ATOM     13  N   UNL     1       8.088   5.418  20.416  0.00  0.00    +0.000 NA
ENDBRANCH   2  12
BRANCH   2  14
ATOM     14  C   UNL     1       6.963   6.066  16.975  0.00  0.00    +0.000 C 
ATOM     15  O   UNL     1       7.444   6.197  15.854  0.00  0.00    +0.000 OA
BRANCH  14  16
ATOM     16  C   UNL     1       5.707   5.405  17.253  0.00  0.00    +0.000 A 
ATOM     17  O   UNL     1       4.929   5.880  18.268  0.00  0.00    +0.000 OA
ATOM     18  C   UNL     1       3.778   5.165  18.283  0.00  0.00    +0.000 A 
ATOM     19  C   UNL     1       2.720   5.374  19.161  0.00  0.00    +0.000 A 
ATOM     20  C   UNL     1       1.614   4.534  19.013  0.00  0.00    +0.000 A 
ATOM     21  C   UNL     1       1.589   3.545  18.026  0.00  0.00    +0.000 A 
ATOM     22  C   UNL     1       2.675   3.360  17.158  0.00  0.00    +0.000 A 
ATOM     23  C   UNL     1       3.804   4.192  17.295  0.00  0.00    +0.000 A 
ATOM     24  C   UNL     1       5.076   4.321  16.648  0.00  0.00    +0.000 A 
ATOM     25  C   UNL     1       5.603   3.470  15.549  0.00  0.00    +0.000 C 
ENDBRANCH  14  16
ENDBRANCH   2  14
TORSDOF 5
ENDMDL
MODEL 6
REMARK VINA RESULT:      -8.0      3.309      6.098
REMARK  Name = 
REMARK  7 active torsions:
REMARK  status: ('A' for Active; 'I' for Inactive)
REMARK    1  A    between atoms: C_1  and  C_2
REMARK    2  A    between atoms: C_5  and  N_6
REMARK    3  A    between atoms: N_6  and  N_7
REMARK    4  A    between atoms: C_8  and  C_9
REMARK    5  A    between atoms: C_8  and  C_11
REMARK    6  A    between atoms: C_11  and  C_13
REMARK    7  A    between atoms: C_21  and  C_22
REMARK                            x       y       z     vdW  Elec       q    Type
REMARK                         _______ _______ _______ _____ _____    ______ ____
ROOT
ATOM      1  N   UNL     1       7.499   8.059  17.680  0.00  0.00    +0.000 NA
ATOM      2  C   UNL     1       6.964   6.875  17.813  0.00  0.00    +0.000 C 
ENDROOT
BRANCH   1   3
ATOM      3  N   UNL     1       8.548   8.439  18.471  0.00  0.00    +0.000 N 
ATOM      4  H   UNL     1       9.355   7.840  18.645  0.00  0.00    +0.000 HD
BRANCH   3   9
ATOM      5  C   UNL     1       9.737  14.036  18.936  0.00  0.00    +0.000 C 
ATOM      6  C   UNL     1       9.418  12.573  18.835  0.00  0.00    +0.000 A 
ATOM      7  C   UNL     1       9.860  11.674  19.807  0.00  0.00    +0.000 A 
ATOM      8  C   UNL     1       9.565  10.311  19.700  0.00  0.00    +0.000 A 
ATOM      9  C   UNL     1       8.808   9.815  18.633  0.00  0.00    +0.000 A 
ATOM     10  C   UNL     1       8.388  10.722  17.650  0.00  0.00    +0.000 A 
ATOM     11  C   UNL     1       8.681  12.086  17.750  0.00  0.00    +0.000 A 
ENDBRANCH   3   9
ENDBRANCH   1   3
BRANCH   2  12
ATOM     12  C   UNL     1       7.533   5.982  18.797  0.00  0.00    +0.000 C 
ATOM     13  N   UNL     1       8.008   5.312  19.621  0.00  0.00    +0.000 NA
ENDBRANCH   2  12
BRANCH   2  14
ATOM     14  C   UNL     1       5.759   6.505  16.970  0.00  0.00    +0.000 C 
ATOM     15  O   UNL     1       5.716   6.892  15.807  0.00  0.00    +0.000 OA
BRANCH  14  16
ATOM     16  C   UNL     1       4.716   5.738  17.616  0.00  0.00    +0.000 A 
ATOM     17  O   UNL     1       4.086   6.276  18.699  0.00  0.00    +0.000 OA
ATOM     18  C   UNL     1       3.102   5.425  19.076  0.00  0.00    +0.000 A 
ATOM     19  C   UNL     1       2.219   5.640  20.129  0.00  0.00    +0.000 A 
ATOM     20  C   UNL     1       1.267   4.645  20.356  0.00  0.00    +0.000 A 
ATOM     21  C   UNL     1       1.215   3.502  19.554  0.00  0.00    +0.000 A 
ATOM     22  C   UNL     1       2.123   3.315  18.500  0.00  0.00    +0.000 A 
ATOM     23  C   UNL     1       3.097   4.304  18.258  0.00  0.00    +0.000 A 
ATOM     24  C   UNL     1       4.173   4.488  17.331  0.00  0.00    +0.000 A 
ATOM     25  C   UNL     1       4.609   3.536  16.276  0.00  0.00    +0.000 C 
ENDBRANCH  14  16
ENDBRANCH   2  14
TORSDOF 5
ENDMDL
MODEL 7
REMARK VINA RESULT:      -8.0      3.401      6.206
REMARK  Name = 
REMARK  7 active torsions:
REMARK  status: ('A' for Active; 'I' for Inactive)
REMARK    1  A    between atoms: C_1  and  C_2
REMARK    2  A    between atoms: C_5  and  N_6
REMARK    3  A    between atoms: N_6  and  N_7
REMARK    4  A    between atoms: C_8  and  C_9
REMARK    5  A    between atoms: C_8  and  C_11
REMARK    6  A    between atoms: C_11  and  C_13
REMARK    7  A    between atoms: C_21  and  C_22
REMARK                            x       y       z     vdW  Elec       q    Type
REMARK                         _______ _______ _______ _____ _____    ______ ____
ROOT
ATOM      1  N   UNL     1       7.588   8.110  17.733  0.00  0.00    +0.000 NA
ATOM      2  C   UNL     1       7.050   6.920  17.765  0.00  0.00    +0.000 C 
ENDROOT
BRANCH   1   3
ATOM      3  N   UNL     1       8.555   8.458  18.636  0.00  0.00    +0.000 N 
ATOM      4  H   UNL     1       9.266   7.805  18.965  0.00  0.00    +0.000 HD
BRANCH   3   9
ATOM      5  C   UNL     1       9.942  13.999  19.215  0.00  0.00    +0.000 C 
ATOM      6  C   UNL     1       9.590  12.550  19.045  0.00  0.00    +0.000 A 
ATOM      7  C   UNL     1       8.948  12.100  17.889  0.00  0.00    +0.000 A 
ATOM      8  C   UNL     1       8.616  10.749  17.742  0.00  0.00    +0.000 A 
ATOM      9  C   UNL     1       8.931   9.814  18.734  0.00  0.00    +0.000 A 
ATOM     10  C   UNL     1       9.554  10.279  19.900  0.00  0.00    +0.000 A 
ATOM     11  C   UNL     1       9.888  11.629  20.053  0.00  0.00    +0.000 A 
ENDBRANCH   3   9
ENDBRANCH   1   3
BRANCH   2  12
ATOM     12  C   UNL     1       7.528   5.988  18.761  0.00  0.00    +0.000 C 
ATOM     13  N   UNL     1       7.953   5.280  19.580  0.00  0.00    +0.000 NA
ENDBRANCH   2  12
BRANCH   2  14
ATOM     14  C   UNL     1       5.934   6.584  16.796  0.00  0.00    +0.000 C 
ATOM     15  O   UNL     1       5.902   7.161  15.714  0.00  0.00    +0.000 OA
BRANCH  14  16
ATOM     16  C   UNL     1       4.953   5.616  17.235  0.00  0.00    +0.000 A 
ATOM     17  O   UNL     1       4.052   5.986  18.190  0.00  0.00    +0.000 OA
ATOM     18  C   UNL     1       3.191   4.957  18.374  0.00  0.00    +0.000 A 
ATOM     19  C   UNL     1       2.111   4.966  19.251  0.00  0.00    +0.000 A 
ATOM     20  C   UNL     1       1.334   3.807  19.293  0.00  0.00    +0.000 A 
ATOM     21  C   UNL     1       1.637   2.708  18.486  0.00  0.00    +0.000 A 
ATOM     22  C   UNL     1       2.736   2.731  17.613  0.00  0.00    +0.000 A 
ATOM     23  C   UNL     1       3.538   3.888  17.561  0.00  0.00    +0.000 A 
ATOM     24  C   UNL     1       4.708   4.301  16.846  0.00  0.00    +0.000 A 
ATOM     25  C   UNL     1       5.493   3.487  15.881  0.00  0.00    +0.000 C 
ENDBRANCH  14  16
ENDBRANCH   2  14
TORSDOF 5
ENDMDL
MODEL 8
REMARK VINA RESULT:      -7.8      2.882      5.704
REMARK  Name = 
REMARK  7 active torsions:
REMARK  status: ('A' for Active; 'I' for Inactive)
REMARK    1  A    between atoms: C_1  and  C_2
REMARK    2  A    between atoms: C_5  and  N_6
REMARK    3  A    between atoms: N_6  and  N_7
REMARK    4  A    between atoms: C_8  and  C_9
REMARK    5  A    between atoms: C_8  and  C_11
REMARK    6  A    between atoms: C_11  and  C_13
REMARK    7  A    between atoms: C_21  and  C_22
REMARK                            x       y       z     vdW  Elec       q    Type
REMARK                         _______ _______ _______ _____ _____    ______ ____
ROOT
ATOM      1  N   UNL     1       7.559   7.324  18.041  0.00  0.00    +0.000 NA
ATOM      2  C   UNL     1       6.680   6.446  17.638  0.00  0.00    +0.000 C 
ENDROOT
BRANCH   1   3
ATOM      3  N   UNL     1       7.749   8.485  17.344  0.00  0.00    +0.000 N 
ATOM      4  H   UNL     1       7.191   8.739  16.528  0.00  0.00    +0.000 HD
BRANCH   3   9
ATOM      5  C   UNL     1      10.238  12.999  19.872  0.00  0.00    +0.000 C 
ATOM      6  C   UNL     1       9.578  11.814  19.230  0.00  0.00    +0.000 A 
ATOM      7  C   UNL     1       9.692  10.540  19.789  0.00  0.00    +0.000 A 
ATOM      8  C   UNL     1       9.080   9.440  19.179  0.00  0.00    +0.000 A 
ATOM      9  C   UNL     1       8.326   9.586  18.010  0.00  0.00    +0.000 A 
ATOM     10  C   UNL     1       8.237  10.865  17.443  0.00  0.00    +0.000 A 
ATOM     11  C   UNL     1       8.848  11.969  18.048  0.00  0.00    +0.000 A 
ENDBRANCH   3   9
ENDBRANCH   1   3
BRANCH   2  12
ATOM     12  C   UNL     1       5.907   6.756  16.457  0.00  0.00    +0.000 C 
ATOM     13  N   UNL     1       5.251   6.957  15.517  0.00  0.00    +0.000 NA
ENDBRANCH   2  12
BRANCH   2  14
ATOM     14  C   UNL     1       6.537   5.138  18.391  0.00  0.00    +0.000 C 
ATOM     15  O   UNL     1       7.555   4.545  18.735  0.00  0.00    +0.000 OA
BRANCH  14  16
ATOM     16  C   UNL     1       5.193   4.658  18.625  0.00  0.00    +0.000 A 
ATOM     17  O   UNL     1       4.593   4.950  19.814  0.00  0.00    +0.000 OA
ATOM     18  C   UNL     1       3.324   4.476  19.770  0.00  0.00    +0.000 A 
ATOM     19  C   UNL     1       2.388   4.607  20.790  0.00  0.00    +0.000 A 
ATOM     20  C   UNL     1       1.127   4.055  20.550  0.00  0.00    +0.000 A 
ATOM     21  C   UNL     1       0.840   3.415  19.343  0.00  0.00    +0.000 A 
ATOM     22  C   UNL     1       1.810   3.299  18.335  0.00  0.00    +0.000 A 
ATOM     23  C   UNL     1       3.090   3.841  18.559  0.00  0.00    +0.000 A 
ATOM     24  C   UNL     1       4.318   3.924  17.827  0.00  0.00    +0.000 A 
ATOM     25  C   UNL     1       4.593   3.348  16.484  0.00  0.00    +0.000 C 
ENDBRANCH  14  16
ENDBRANCH   2  14
TORSDOF 5
ENDMDL
MODEL 9
REMARK VINA RESULT:      -7.7      2.907      5.747
REMARK  Name = 
REMARK  7 active torsions:
REMARK  status: ('A' for Active; 'I' for Inactive)
REMARK    1  A    between atoms: C_1  and  C_2
REMARK    2  A    between atoms: C_5  and  N_6
REMARK    3  A    between atoms: N_6  and  N_7
REMARK    4  A    between atoms: C_8  and  C_9
REMARK    5  A    between atoms: C_8  and  C_11
REMARK    6  A    between atoms: C_11  and  C_13
REMARK    7  A    between atoms: C_21  and  C_22
REMARK                            x       y       z     vdW  Elec       q    Type
REMARK                         _______ _______ _______ _____ _____    ______ ____
ROOT
ATOM      1  N   UNL     1       7.619   7.678  18.525  0.00  0.00    +0.000 NA
ATOM      2  C   UNL     1       7.211   6.504  18.125  0.00  0.00    +0.000 C 
ENDROOT
BRANCH   1   3
ATOM      3  N   UNL     1       8.150   8.569  17.634  0.00  0.00    +0.000 N 
ATOM      4  H   UNL     1       7.901   8.576  16.644  0.00  0.00    +0.000 HD
BRANCH   3   9
ATOM      5  C   UNL     1       9.945  13.581  19.782  0.00  0.00    +0.000 C 
ATOM      6  C   UNL     1       9.486  12.275  19.202  0.00  0.00    +0.000 A 
ATOM      7  C   UNL     1       8.785  12.235  17.994  0.00  0.00    +0.000 A 
ATOM      8  C   UNL     1       8.354  11.015  17.465  0.00  0.00    +0.000 A 
ATOM      9  C   UNL     1       8.625   9.806  18.116  0.00  0.00    +0.000 A 
ATOM     10  C   UNL     1       9.309   9.858  19.339  0.00  0.00    +0.000 A 
ATOM     11  C   UNL     1       9.742  11.076  19.874  0.00  0.00    +0.000 A 
ENDBRANCH   3   9
ENDBRANCH   1   3
BRANCH   2  12
ATOM     12  C   UNL     1       7.315   6.195  16.717  0.00  0.00    +0.000 C 
ATOM     13  N   UNL     1       7.404   5.888  15.598  0.00  0.00    +0.000 NA
ENDBRANCH   2  12
BRANCH   2  14
ATOM     14  C   UNL     1       6.689   5.511  19.145  0.00  0.00    +0.000 C 
ATOM     15  O   UNL     1       7.394   5.237  20.111  0.00  0.00    +0.000 OA
BRANCH  14  16
ATOM     16  C   UNL     1       5.393   4.924  18.887  0.00  0.00    +0.000 A 
ATOM     17  O   UNL     1       5.202   3.606  19.183  0.00  0.00    +0.000 OA
ATOM     18  C   UNL     1       3.904   3.306  18.940  0.00  0.00    +0.000 A 
ATOM     19  C   UNL     1       3.319   2.062  19.148  0.00  0.00    +0.000 A 
ATOM     20  C   UNL     1       1.961   1.954  18.843  0.00  0.00    +0.000 A 
ATOM     21  C   UNL     1       1.243   3.050  18.359  0.00  0.00    +0.000 A 
ATOM     22  C   UNL     1       1.864   4.292  18.159  0.00  0.00    +0.000 A 
ATOM     23  C   UNL     1       3.236   4.421  18.453  0.00  0.00    +0.000 A 
ATOM     24  C   UNL     1       4.214   5.465  18.381  0.00  0.00    +0.000 A 
ATOM     25  C   UNL     1       4.002   6.847  17.875  0.00  0.00    +0.000 C 
ENDBRANCH  14  16
ENDBRANCH   2  14
TORSDOF 5
ENDMDL
