MODEL 1
REMARK VINA RESULT:      -8.4      0.000      0.000
REMARK  Name = 
REMARK  8 active torsions:
REMARK  status: ('A' for Active; 'I' for Inactive)
REMARK    1  A    between atoms: C_2  and  C_23
REMARK    2  A    between atoms: C_6  and  C_7
REMARK    3  A    between atoms: C_10  and  O_11
REMARK    4  A    between atoms: C_14  and  C_15
REMARK    5  A    between atoms: C_15  and  C_16
REMARK    6  A    between atoms: C_25  and  O_26
REMARK    7  A    between atoms: C_27  and  O_28
REMARK    8  A    between atoms: C_29  and  O_30
REMARK                            x       y       z     vdW  Elec       q    Type
REMARK                         _______ _______ _______ _____ _____    ______ ____
ROOT
ATOM      1  O   UNL     1       0.127   9.962  20.952  0.00  0.00    +0.000 OA
ATOM      2  C   UNL     1       0.474  10.453  19.880  0.00  0.00    +0.000 C 
ATOM      3  N   UNL     1       1.288   9.836  18.924  0.00  0.00    +0.000 N 
ATOM      4  C   UNL     1       1.945   8.609  19.077  0.00  0.00    +0.000 A 
ATOM      5  N   UNL     1       2.901   8.157  18.279  0.00  0.00    +0.000 NA
ATOM      6  C   UNL     1       3.339   6.854  18.667  0.00  0.00    +0.000 A 
ATOM      7  C   UNL     1       2.580   6.325  19.711  0.00  0.00    +0.000 A 
ATOM      8  S   UNL     1       1.551   7.560  20.348  0.00  0.00    +0.000 S 
ATOM      9  H   UNL     1       1.546  10.322  18.079  0.00  0.00    +0.000 HD
ENDROOT
BRANCH   6  10
ATOM     10  C   UNL     1       4.482   6.183  17.963  0.00  0.00    +0.000 A 
ATOM     11  C   UNL     1       4.660   6.369  16.572  0.00  0.00    +0.000 A 
ATOM     12  C   UNL     1       5.744   5.805  15.876  0.00  0.00    +0.000 A 
ATOM     13  C   UNL     1       6.674   5.020  16.556  0.00  0.00    +0.000 A 
ATOM     14  C   UNL     1       6.530   4.807  17.910  0.00  0.00    +0.000 A 
ATOM     15  C   UNL     1       5.445   5.382  18.603  0.00  0.00    +0.000 A 
BRANCH  13  16
ATOM     16  O   UNL     1       7.738   4.448  15.921  0.00  0.00    +0.000 OA
ATOM     17  H   UNL     1       8.347   4.085  16.584  0.00  0.00    +0.000 HD
ENDBRANCH  13  16
ENDBRANCH   6  10
BRANCH   2  18
ATOM     18  C   UNL     1       0.024  11.880  19.647  0.00  0.00    +0.000 A 
ATOM     19  C   UNL     1      -1.314  12.215  19.997  0.00  0.00    +0.000 A 
ATOM     20  C   UNL     1      -1.780  13.528  19.882  0.00  0.00    +0.000 A 
ATOM     21  C   UNL     1      -0.943  14.520  19.403  0.00  0.00    +0.000 A 
ATOM     22  C   UNL     1       0.353  14.194  19.012  0.00  0.00    +0.000 A 
ATOM     23  C   UNL     1       0.845  12.886  19.119  0.00  0.00    +0.000 A 
BRANCH  20  24
ATOM     24  O   UNL     1      -3.051  13.896  20.224  0.00  0.00    +0.000 OA
ATOM     25  H   UNL     1      -3.274  14.725  19.766  0.00  0.00    +0.000 HD
ENDBRANCH  20  24
BRANCH  21  26
ATOM     26  O   UNL     1      -1.358  15.823  19.301  0.00  0.00    +0.000 OA
ATOM     27  H   UNL     1      -1.808  15.856  18.420  0.00  0.00    +0.000 HD
ENDBRANCH  21  26
BRANCH  22  28
ATOM     28  O   UNL     1       1.162  15.178  18.511  0.00  0.00    +0.000 OA
ATOM     29  H   UNL     1       2.071  14.840  18.656  0.00  0.00    +0.000 HD
ENDBRANCH  22  28
ENDBRANCH   2  18
BRANCH   7  30
ATOM     30  C   UNL     1       2.436   4.955  20.335  0.00  0.00    +0.000 C 
BRANCH  30  31
ATOM     31  C   UNL     1       1.496   4.058  19.475  0.00  0.00    +0.000 C 
ATOM     32  C   UNL     1       1.573   4.325  17.961  0.00  0.00    +0.000 C 
ATOM     33  C   UNL     1       2.504   3.445  17.141  0.00  0.00    +0.000 C 
ATOM     34  C   UNL     1       2.573   1.988  17.555  0.00  0.00    +0.000 C 
ATOM     35  C   UNL     1       2.574   1.741  19.056  0.00  0.00    +0.000 C 
ATOM     36  C   UNL     1       1.576   2.573  19.846  0.00  0.00    +0.000 C 
ENDBRANCH  30  31
ENDBRANCH   7  30
TORSDOF 8
ENDMDL
MODEL 2
REMARK VINA RESULT:      -8.4      0.772      1.195
REMARK  Name = 
REMARK  8 active torsions:
REMARK  status: ('A' for Active; 'I' for Inactive)
REMARK    1  A    between atoms: C_2  and  C_23
REMARK    2  A    between atoms: C_6  and  C_7
REMARK    3  A    between atoms: C_10  and  O_11
REMARK    4  A    between atoms: C_14  and  C_15
REMARK    5  A    between atoms: C_15  and  C_16
REMARK    6  A    between atoms: C_25  and  O_26
REMARK    7  A    between atoms: C_27  and  O_28
REMARK    8  A    between atoms: C_29  and  O_30
REMARK                            x       y       z     vdW  Elec       q    Type
REMARK                         _______ _______ _______ _____ _____    ______ ____
ROOT
ATOM      1  O   UNL     1      -0.181   9.531  21.491  0.00  0.00    +0.000 OA
ATOM      2  C   UNL     1       0.040  10.098  20.423  0.00  0.00    +0.000 C 
ATOM      3  N   UNL     1       0.842   9.606  19.387  0.00  0.00    +0.000 N 
ATOM      4  C   UNL     1       1.626   8.447  19.438  0.00  0.00    +0.000 A 
ATOM      5  N   UNL     1       2.562   8.127  18.559  0.00  0.00    +0.000 NA
ATOM      6  C   UNL     1       3.153   6.861  18.855  0.00  0.00    +0.000 A 
ATOM      7  C   UNL     1       2.526   6.215  19.921  0.00  0.00    +0.000 A 
ATOM      8  S   UNL     1       1.427   7.313  20.682  0.00  0.00    +0.000 S 
ATOM      9  H   UNL     1       0.990  10.149  18.551  0.00  0.00    +0.000 HD
ENDROOT
BRANCH   6  10
ATOM     10  C   UNL     1       4.304   6.338  18.046  0.00  0.00    +0.000 A 
ATOM     11  C   UNL     1       5.255   5.479  18.646  0.00  0.00    +0.000 A 
ATOM     12  C   UNL     1       6.321   4.921  17.917  0.00  0.00    +0.000 A 
ATOM     13  C   UNL     1       6.474   5.224  16.566  0.00  0.00    +0.000 A 
ATOM     14  C   UNL     1       5.574   6.066  15.947  0.00  0.00    +0.000 A 
ATOM     15  C   UNL     1       4.503   6.616  16.682  0.00  0.00    +0.000 A 
BRANCH  13  16
ATOM     16  O   UNL     1       7.495   4.711  15.821  0.00  0.00    +0.000 OA
ATOM     17  H   UNL     1       7.532   5.172  14.968  0.00  0.00    +0.000 HD
ENDBRANCH  13  16
ENDBRANCH   6  10
BRANCH   2  18
ATOM     18  C   UNL     1      -0.564  11.480  20.288  0.00  0.00    +0.000 A 
ATOM     19  C   UNL     1      -1.532  11.874  21.254  0.00  0.00    +0.000 A 
ATOM     20  C   UNL     1      -2.079  13.160  21.240  0.00  0.00    +0.000 A 
ATOM     21  C   UNL     1      -1.695  14.065  20.266  0.00  0.00    +0.000 A 
ATOM     22  C   UNL     1      -0.785  13.675  19.288  0.00  0.00    +0.000 A 
ATOM     23  C   UNL     1      -0.221  12.392  19.280  0.00  0.00    +0.000 A 
BRANCH  20  24
ATOM     24  O   UNL     1      -2.998  13.585  22.159  0.00  0.00    +0.000 OA
ATOM     25  H   UNL     1      -2.545  14.122  22.833  0.00  0.00    +0.000 HD
ENDBRANCH  20  24
BRANCH  21  26
ATOM     26  O   UNL     1      -2.192  15.343  20.237  0.00  0.00    +0.000 OA
ATOM     27  H   UNL     1      -1.665  15.813  20.931  0.00  0.00    +0.000 HD
ENDBRANCH  21  26
BRANCH  22  28
ATOM     28  O   UNL     1      -0.437  14.569  18.311  0.00  0.00    +0.000 OA
ATOM     29  H   UNL     1      -0.298  14.014  17.514  0.00  0.00    +0.000 HD
ENDBRANCH  22  28
ENDBRANCH   2  18
BRANCH   7  30
ATOM     30  C   UNL     1       2.562   4.814  20.488  0.00  0.00    +0.000 C 
BRANCH  30  31
ATOM     31  C   UNL     1       1.626   3.871  19.675  0.00  0.00    +0.000 C 
ATOM     32  C   UNL     1       1.506   4.225  18.181  0.00  0.00    +0.000 C 
ATOM     33  C   UNL     1       2.423   3.495  17.213  0.00  0.00    +0.000 C 
ATOM     34  C   UNL     1       2.682   2.033  17.521  0.00  0.00    +0.000 C 
ATOM     35  C   UNL     1       2.875   1.706  18.994  0.00  0.00    +0.000 C 
ATOM     36  C   UNL     1       1.893   2.384  19.937  0.00  0.00    +0.000 C 
ENDBRANCH  30  31
ENDBRANCH   7  30
TORSDOF 8
ENDMDL
MODEL 3
REMARK VINA RESULT:      -8.4      0.999      1.626
REMARK  Name = 
REMARK  8 active torsions:
REMARK  status: ('A' for Active; 'I' for Inactive)
REMARK    1  A    between atoms: C_2  and  C_23
REMARK    2  A    between atoms: C_6  and  C_7
REMARK    3  A    between atoms: C_10  and  O_11
REMARK    4  A    between atoms: C_14  and  C_15
REMARK    5  A    between atoms: C_15  and  C_16
REMARK    6  A    between atoms: C_25  and  O_26
REMARK    7  A    between atoms: C_27  and  O_28
REMARK    8  A    between atoms: C_29  and  O_30
REMARK                            x       y       z     vdW  Elec       q    Type
REMARK                         _______ _______ _______ _____ _____    ______ ____
ROOT
ATOM      1  O   UNL     1      -0.145   9.157  21.755  0.00  0.00    +0.000 OA
ATOM      2  C   UNL     1       0.094   9.757  20.710  0.00  0.00    +0.000 C 
ATOM      3  N   UNL     1       0.906   9.293  19.669  0.00  0.00    +0.000 N 
ATOM      4  C   UNL     1       1.681   8.128  19.692  0.00  0.00    +0.000 A 
ATOM      5  N   UNL     1       2.627   7.829  18.815  0.00  0.00    +0.000 NA
ATOM      6  C   UNL     1       3.205   6.550  19.077  0.00  0.00    +0.000 A 
ATOM      7  C   UNL     1       2.558   5.874  20.112  0.00  0.00    +0.000 A 
ATOM      8  S   UNL     1       1.457   6.954  20.894  0.00  0.00    +0.000 S 
ATOM      9  H   UNL     1       1.070   9.863  18.853  0.00  0.00    +0.000 HD
ENDROOT
BRANCH   6  10
ATOM     10  C   UNL     1       4.363   6.045  18.266  0.00  0.00    +0.000 A 
ATOM     11  C   UNL     1       4.531   6.481  16.931  0.00  0.00    +0.000 A 
ATOM     12  C   UNL     1       5.629   6.078  16.148  0.00  0.00    +0.000 A 
ATOM     13  C   UNL     1       6.581   5.210  16.678  0.00  0.00    +0.000 A 
ATOM     14  C   UNL     1       6.447   4.756  17.973  0.00  0.00    +0.000 A 
ATOM     15  C   UNL     1       5.349   5.169  18.755  0.00  0.00    +0.000 A 
BRANCH  13  16
ATOM     16  O   UNL     1       7.657   4.789  15.954  0.00  0.00    +0.000 OA
ATOM     17  H   UNL     1       7.798   3.841  16.112  0.00  0.00    +0.000 HD
ENDBRANCH  13  16
ENDBRANCH   6  10
BRANCH   2  18
ATOM     18  C   UNL     1      -0.498  11.147  20.613  0.00  0.00    +0.000 A 
ATOM     19  C   UNL     1      -0.335  11.849  19.386  0.00  0.00    +0.000 A 
ATOM     20  C   UNL     1      -0.917  13.106  19.193  0.00  0.00    +0.000 A 
ATOM     21  C   UNL     1      -1.647  13.693  20.211  0.00  0.00    +0.000 A 
ATOM     22  C   UNL     1      -1.772  13.037  21.432  0.00  0.00    +0.000 A 
ATOM     23  C   UNL     1      -1.200  11.777  21.650  0.00  0.00    +0.000 A 
BRANCH  20  24
ATOM     24  O   UNL     1      -0.800  13.806  18.025  0.00  0.00    +0.000 OA
ATOM     25  H   UNL     1      -0.678  14.749  18.232  0.00  0.00    +0.000 HD
ENDBRANCH  20  24
BRANCH  21  26
ATOM     26  O   UNL     1      -2.253  14.912  20.049  0.00  0.00    +0.000 OA
ATOM     27  H   UNL     1      -3.161  14.773  20.419  0.00  0.00    +0.000 HD
ENDBRANCH  21  26
BRANCH  22  28
ATOM     28  O   UNL     1      -2.471  13.642  22.442  0.00  0.00    +0.000 OA
ATOM     29  H   UNL     1      -3.216  14.088  21.985  0.00  0.00    +0.000 HD
ENDBRANCH  22  28
ENDBRANCH   2  18
BRANCH   7  30
ATOM     30  C   UNL     1       2.577   4.455  20.633  0.00  0.00    +0.000 C 
BRANCH  30  31
ATOM     31  C   UNL     1       1.669   3.539  19.757  0.00  0.00    +0.000 C 
ATOM     32  C   UNL     1       1.401   4.077  18.340  0.00  0.00    +0.000 C 
ATOM     33  C   UNL     1       2.302   3.579  17.221  0.00  0.00    +0.000 C 
ATOM     34  C   UNL     1       2.716   2.123  17.302  0.00  0.00    +0.000 C 
ATOM     35  C   UNL     1       3.052   1.622  18.698  0.00  0.00    +0.000 C 
ATOM     36  C   UNL     1       2.090   2.065  19.790  0.00  0.00    +0.000 C 
ENDBRANCH  30  31
ENDBRANCH   7  30
TORSDOF 8
ENDMDL
MODEL 4
REMARK VINA RESULT:      -8.3      1.034      1.206
REMARK  Name = 
REMARK  8 active torsions:
REMARK  status: ('A' for Active; 'I' for Inactive)
REMARK    1  A    between atoms: C_2  and  C_23
REMARK    2  A    between atoms: C_6  and  C_7
REMARK    3  A    between atoms: C_10  and  O_11
REMARK    4  A    between atoms: C_14  and  C_15
REMARK    5  A    between atoms: C_15  and  C_16
REMARK    6  A    between atoms: C_25  and  O_26
REMARK    7  A    between atoms: C_27  and  O_28
REMARK    8  A    between atoms: C_29  and  O_30
REMARK                            x       y       z     vdW  Elec       q    Type
REMARK                         _______ _______ _______ _____ _____    ______ ____
ROOT
ATOM      1  O   UNL     1       0.006   9.083  21.570  0.00  0.00    +0.000 OA
ATOM      2  C   UNL     1       0.214   9.602  20.476  0.00  0.00    +0.000 C 
ATOM      3  N   UNL     1       1.028   9.082  19.465  0.00  0.00    +0.000 N 
ATOM      4  C   UNL     1       1.842   7.947  19.572  0.00  0.00    +0.000 A 
ATOM      5  N   UNL     1       2.787   7.609  18.709  0.00  0.00    +0.000 NA
ATOM      6  C   UNL     1       3.411   6.374  19.066  0.00  0.00    +0.000 A 
ATOM      7  C   UNL     1       2.799   5.765  20.163  0.00  0.00    +0.000 A 
ATOM      8  S   UNL     1       1.671   6.870  20.869  0.00  0.00    +0.000 S 
ATOM      9  H   UNL     1       1.164   9.587  18.604  0.00  0.00    +0.000 HD
ENDROOT
BRANCH   6  10
ATOM     10  C   UNL     1       4.576   5.843  18.283  0.00  0.00    +0.000 A 
ATOM     11  C   UNL     1       4.631   6.038  16.884  0.00  0.00    +0.000 A 
ATOM     12  C   UNL     1       5.726   5.605  16.113  0.00  0.00    +0.000 A 
ATOM     13  C   UNL     1       6.791   4.946  16.725  0.00  0.00    +0.000 A 
ATOM     14  C   UNL     1       6.768   4.728  18.086  0.00  0.00    +0.000 A 
ATOM     15  C   UNL     1       5.672   5.171  18.854  0.00  0.00    +0.000 A 
BRANCH  13  16
ATOM     16  O   UNL     1       7.869   4.504  16.017  0.00  0.00    +0.000 OA
ATOM     17  H   UNL     1       8.466   5.250  15.844  0.00  0.00    +0.000 HD
ENDBRANCH  13  16
ENDBRANCH   6  10
BRANCH   2  18
ATOM     18  C   UNL     1      -0.425  10.960  20.274  0.00  0.00    +0.000 A 
ATOM     19  C   UNL     1      -1.119  11.534  21.377  0.00  0.00    +0.000 A 
ATOM     20  C   UNL     1      -1.670  12.815  21.292  0.00  0.00    +0.000 A 
ATOM     21  C   UNL     1      -1.564  13.538  20.117  0.00  0.00    +0.000 A 
ATOM     22  C   UNL     1      -0.930  12.968  19.017  0.00  0.00    +0.000 A 
ATOM     23  C   UNL     1      -0.368  11.686  19.076  0.00  0.00    +0.000 A 
BRANCH  20  24
ATOM     24  O   UNL     1      -2.328  13.410  22.333  0.00  0.00    +0.000 OA
ATOM     25  H   UNL     1      -2.783  12.725  22.852  0.00  0.00    +0.000 HD
ENDBRANCH  20  24
BRANCH  21  26
ATOM     26  O   UNL     1      -2.070  14.807  20.006  0.00  0.00    +0.000 OA
ATOM     27  H   UNL     1      -1.865  15.060  19.071  0.00  0.00    +0.000 HD
ENDBRANCH  21  26
BRANCH  22  28
ATOM     28  O   UNL     1      -0.858  13.681  17.850  0.00  0.00    +0.000 OA
ATOM     29  H   UNL     1      -1.013  13.012  17.149  0.00  0.00    +0.000 HD
ENDBRANCH  22  28
ENDBRANCH   2  18
BRANCH   7  30
ATOM     30  C   UNL     1       2.870   4.395  20.797  0.00  0.00    +0.000 C 
BRANCH  30  31
ATOM     31  C   UNL     1       2.043   3.365  19.969  0.00  0.00    +0.000 C 
ATOM     32  C   UNL     1       1.114   3.995  18.915  0.00  0.00    +0.000 C 
ATOM     33  C   UNL     1       1.644   4.109  17.495  0.00  0.00    +0.000 C 
ATOM     34  C   UNL     1       2.496   2.953  17.011  0.00  0.00    +0.000 C 
ATOM     35  C   UNL     1       3.466   2.388  18.038  0.00  0.00    +0.000 C 
ATOM     36  C   UNL     1       2.889   2.205  19.433  0.00  0.00    +0.000 C 
ENDBRANCH  30  31
ENDBRANCH   7  30
TORSDOF 8
ENDMDL
MODEL 5
REMARK VINA RESULT:      -8.3      0.307      1.735
REMARK  Name = 
REMARK  8 active torsions:
REMARK  status: ('A' for Active; 'I' for Inactive)
REMARK    1  A    between atoms: C_2  and  C_23
REMARK    2  A    between atoms: C_6  and  C_7
REMARK    3  A    between atoms: C_10  and  O_11
REMARK    4  A    between atoms: C_14  and  C_15
REMARK    5  A    between atoms: C_15  and  C_16
REMARK    6  A    between atoms: C_25  and  O_26
REMARK    7  A    between atoms: C_27  and  O_28
REMARK    8  A    between atoms: C_29  and  O_30
REMARK                            x       y       z     vdW  Elec       q    Type
REMARK                         _______ _______ _______ _____ _____    ______ ____
ROOT
ATOM      1  O   UNL     1      -0.015   9.730  21.314  0.00  0.00    +0.000 OA
ATOM      2  C   UNL     1       0.301  10.273  20.258  0.00  0.00    +0.000 C 
ATOM      3  N   UNL     1       1.120   9.722  19.267  0.00  0.00    +0.000 N 
ATOM      4  C   UNL     1       1.819   8.513  19.362  0.00  0.00    +0.000 A 
ATOM      5  N   UNL     1       2.777   8.124  18.534  0.00  0.00    +0.000 NA
ATOM      6  C   UNL     1       3.264   6.823  18.865  0.00  0.00    +0.000 A 
ATOM      7  C   UNL     1       2.538   6.228  19.897  0.00  0.00    +0.000 A 
ATOM      8  S   UNL     1       1.478   7.402  20.596  0.00  0.00    +0.000 S 
ATOM      9  H   UNL     1       1.349  10.249  18.439  0.00  0.00    +0.000 HD
ENDROOT
BRANCH   6  10
ATOM     10  C   UNL     1       4.417   6.218  18.119  0.00  0.00    +0.000 A 
ATOM     11  C   UNL     1       5.311   5.349  18.787  0.00  0.00    +0.000 A 
ATOM     12  C   UNL     1       6.376   4.716  18.121  0.00  0.00    +0.000 A 
ATOM     13  C   UNL     1       6.585   4.952  16.763  0.00  0.00    +0.000 A 
ATOM     14  C   UNL     1       5.741   5.800  16.078  0.00  0.00    +0.000 A 
ATOM     15  C   UNL     1       4.671   6.426  16.751  0.00  0.00    +0.000 A 
BRANCH  13  16
ATOM     16  O   UNL     1       7.607   4.365  16.077  0.00  0.00    +0.000 OA
ATOM     17  H   UNL     1       7.276   4.041  15.224  0.00  0.00    +0.000 HD
ENDBRANCH  13  16
ENDBRANCH   6  10
BRANCH   2  18
ATOM     18  C   UNL     1      -0.199  11.692  20.088  0.00  0.00    +0.000 A 
ATOM     19  C   UNL     1       0.739  12.677  19.668  0.00  0.00    +0.000 A 
ATOM     20  C   UNL     1       0.338  13.992  19.417  0.00  0.00    +0.000 A 
ATOM     21  C   UNL     1      -0.985  14.358  19.595  0.00  0.00    +0.000 A 
ATOM     22  C   UNL     1      -1.901  13.416  20.052  0.00  0.00    +0.000 A 
ATOM     23  C   UNL     1      -1.525  12.091  20.310  0.00  0.00    +0.000 A 
BRANCH  20  24
ATOM     24  O   UNL     1       1.202  14.964  18.995  0.00  0.00    +0.000 OA
ATOM     25  H   UNL     1       0.841  15.834  19.237  0.00  0.00    +0.000 HD
ENDBRANCH  20  24
BRANCH  21  26
ATOM     26  O   UNL     1      -1.419  15.632  19.334  0.00  0.00    +0.000 OA
ATOM     27  H   UNL     1      -0.581  16.138  19.186  0.00  0.00    +0.000 HD
ENDBRANCH  21  26
BRANCH  22  28
ATOM     28  O   UNL     1      -3.201  13.797  20.254  0.00  0.00    +0.000 OA
ATOM     29  H   UNL     1      -3.719  13.210  19.663  0.00  0.00    +0.000 HD
ENDBRANCH  22  28
ENDBRANCH   2  18
BRANCH   7  30
ATOM     30  C   UNL     1       2.448   4.831  20.468  0.00  0.00    +0.000 C 
BRANCH  30  31
ATOM     31  C   UNL     1       1.519   3.939  19.591  0.00  0.00    +0.000 C 
ATOM     32  C   UNL     1       1.514   4.305  18.095  0.00  0.00    +0.000 C 
ATOM     33  C   UNL     1       2.453   3.531  17.183  0.00  0.00    +0.000 C 
ATOM     34  C   UNL     1       2.616   2.057  17.497  0.00  0.00    +0.000 C 
ATOM     35  C   UNL     1       2.696   1.715  18.977  0.00  0.00    +0.000 C 
ATOM     36  C   UNL     1       1.693   2.440  19.860  0.00  0.00    +0.000 C 
ENDBRANCH  30  31
ENDBRANCH   7  30
TORSDOF 8
ENDMDL
MODEL 6
REMARK VINA RESULT:      -7.8      1.628      1.922
REMARK  Name = 
REMARK  8 active torsions:
REMARK  status: ('A' for Active; 'I' for Inactive)
REMARK    1  A    between atoms: C_2  and  C_23
REMARK    2  A    between atoms: C_6  and  C_7
REMARK    3  A    between atoms: C_10  and  O_11
REMARK    4  A    between atoms: C_14  and  C_15
REMARK    5  A    between atoms: C_15  and  C_16
REMARK    6  A    between atoms: C_25  and  O_26
REMARK    7  A    between atoms: C_27  and  O_28
REMARK    8  A    between atoms: C_29  and  O_30
REMARK                            x       y       z     vdW  Elec       q    Type
REMARK                         _______ _______ _______ _____ _____    ______ ____
ROOT
ATOM      1  O   UNL     1       0.370   8.864  21.539  0.00  0.00    +0.000 OA
ATOM      2  C   UNL     1       0.296   9.369  20.421  0.00  0.00    +0.000 C 
ATOM      3  N   UNL     1       0.981   8.936  19.281  0.00  0.00    +0.000 N 
ATOM      4  C   UNL     1       1.960   7.935  19.245  0.00  0.00    +0.000 A 
ATOM      5  N   UNL     1       2.772   7.706  18.224  0.00  0.00    +0.000 NA
ATOM      6  C   UNL     1       3.625   6.587  18.470  0.00  0.00    +0.000 A 
ATOM      7  C   UNL     1       3.320   5.935  19.665  0.00  0.00    +0.000 A 
ATOM      8  S   UNL     1       2.189   6.891  20.560  0.00  0.00    +0.000 S 
ATOM      9  H   UNL     1       0.882   9.425  18.405  0.00  0.00    +0.000 HD
ENDROOT
BRANCH   6  10
ATOM     10  C   UNL     1       4.694   6.202  17.489  0.00  0.00    +0.000 A 
ATOM     11  C   UNL     1       5.995   6.741  17.617  0.00  0.00    +0.000 A 
ATOM     12  C   UNL     1       7.044   6.371  16.756  0.00  0.00    +0.000 A 
ATOM     13  C   UNL     1       6.812   5.459  15.728  0.00  0.00    +0.000 A 
ATOM     14  C   UNL     1       5.554   4.918  15.565  0.00  0.00    +0.000 A 
ATOM     15  C   UNL     1       4.509   5.288  16.437  0.00  0.00    +0.000 A 
BRANCH  13  16
ATOM     16  O   UNL     1       7.796   5.075  14.865  0.00  0.00    +0.000 OA
ATOM     17  H   UNL     1       8.648   5.419  15.179  0.00  0.00    +0.000 HD
ENDBRANCH  13  16
ENDBRANCH   6  10
BRANCH   2  18
ATOM     18  C   UNL     1      -0.563  10.613  20.330  0.00  0.00    +0.000 A 
ATOM     19  C   UNL     1      -1.218  10.874  19.093  0.00  0.00    +0.000 A 
ATOM     20  C   UNL     1      -2.086  11.960  18.954  0.00  0.00    +0.000 A 
ATOM     21  C   UNL     1      -2.304  12.813  20.022  0.00  0.00    +0.000 A 
ATOM     22  C   UNL     1      -1.632  12.595  21.221  0.00  0.00    +0.000 A 
ATOM     23  C   UNL     1      -0.757  11.513  21.387  0.00  0.00    +0.000 A 
BRANCH  20  24
ATOM     24  O   UNL     1      -2.749  12.236  17.791  0.00  0.00    +0.000 OA
ATOM     25  H   UNL     1      -3.124  11.411  17.437  0.00  0.00    +0.000 HD
ENDBRANCH  20  24
BRANCH  21  26
ATOM     26  O   UNL     1      -3.169  13.873  19.930  0.00  0.00    +0.000 OA
ATOM     27  H   UNL     1      -2.774  14.434  19.217  0.00  0.00    +0.000 HD
ENDBRANCH  21  26
BRANCH  22  28
ATOM     28  O   UNL     1      -1.832  13.463  22.261  0.00  0.00    +0.000 OA
ATOM     29  H   UNL     1      -2.733  13.247  22.585  0.00  0.00    +0.000 HD
ENDBRANCH  22  28
ENDBRANCH   2  18
BRANCH   7  30
ATOM     30  C   UNL     1       3.707   4.613  20.287  0.00  0.00    +0.000 C 
BRANCH  30  31
ATOM     31  C   UNL     1       2.636   3.526  19.972  0.00  0.00    +0.000 C 
ATOM     32  C   UNL     1       1.530   3.983  19.003  0.00  0.00    +0.000 C 
ATOM     33  C   UNL     1       1.713   3.661  17.529  0.00  0.00    +0.000 C 
ATOM     34  C   UNL     1       2.342   2.316  17.219  0.00  0.00    +0.000 C 
ATOM     35  C   UNL     1       3.485   1.909  18.135  0.00  0.00    +0.000 C 
ATOM     36  C   UNL     1       3.245   2.165  19.615  0.00  0.00    +0.000 C 
ENDBRANCH  30  31
ENDBRANCH   7  30
TORSDOF 8
ENDMDL
MODEL 7
REMARK VINA RESULT:      -7.7      1.769      2.730
REMARK  Name = 
REMARK  8 active torsions:
REMARK  status: ('A' for Active; 'I' for Inactive)
REMARK    1  A    between atoms: C_2  and  C_23
REMARK    2  A    between atoms: C_6  and  C_7
REMARK    3  A    between atoms: C_10  and  O_11
REMARK    4  A    between atoms: C_14  and  C_15
REMARK    5  A    between atoms: C_15  and  C_16
REMARK    6  A    between atoms: C_25  and  O_26
REMARK    7  A    between atoms: C_27  and  O_28
REMARK    8  A    between atoms: C_29  and  O_30
REMARK                            x       y       z     vdW  Elec       q    Type
REMARK                         _______ _______ _______ _____ _____    ______ ____
ROOT
ATOM      1  O   UNL     1       1.525   8.102  20.996  0.00  0.00    +0.000 OA
ATOM      2  C   UNL     1       1.280   8.588  19.895  0.00  0.00    +0.000 C 
ATOM      3  N   UNL     1       1.785   8.137  18.671  0.00  0.00    +0.000 N 
ATOM      4  C   UNL     1       2.751   7.138  18.503  0.00  0.00    +0.000 A 
ATOM      5  N   UNL     1       3.400   6.894  17.374  0.00  0.00    +0.000 NA
ATOM      6  C   UNL     1       4.286   5.781  17.505  0.00  0.00    +0.000 A 
ATOM      7  C   UNL     1       4.170   5.149  18.744  0.00  0.00    +0.000 A 
ATOM      8  S   UNL     1       3.183   6.116  19.784  0.00  0.00    +0.000 S 
ATOM      9  H   UNL     1       1.551   8.611  17.813  0.00  0.00    +0.000 HD
ENDROOT
BRANCH   6  10
ATOM     10  C   UNL     1       5.195   5.382  16.379  0.00  0.00    +0.000 A 
ATOM     11  C   UNL     1       4.697   4.588  15.320  0.00  0.00    +0.000 A 
ATOM     12  C   UNL     1       5.494   4.231  14.217  0.00  0.00    +0.000 A 
ATOM     13  C   UNL     1       6.822   4.647  14.154  0.00  0.00    +0.000 A 
ATOM     14  C   UNL     1       7.347   5.414  15.172  0.00  0.00    +0.000 A 
ATOM     15  C   UNL     1       6.541   5.775  16.272  0.00  0.00    +0.000 A 
BRANCH  13  16
ATOM     16  O   UNL     1       7.633   4.320  13.107  0.00  0.00    +0.000 OA
ATOM     17  H   UNL     1       7.096   3.943  12.392  0.00  0.00    +0.000 HD
ENDBRANCH  13  16
ENDBRANCH   6  10
BRANCH   2  18
ATOM     18  C   UNL     1       0.411   9.828  19.916  0.00  0.00    +0.000 A 
ATOM     19  C   UNL     1       0.029  10.387  18.664  0.00  0.00    +0.000 A 
ATOM     20  C   UNL     1      -0.833  11.486  18.599  0.00  0.00    +0.000 A 
ATOM     21  C   UNL     1      -1.311  12.059  19.765  0.00  0.00    +0.000 A 
ATOM     22  C   UNL     1      -0.906  11.550  20.995  0.00  0.00    +0.000 A 
ATOM     23  C   UNL     1      -0.044  10.449  21.087  0.00  0.00    +0.000 A 
BRANCH  20  24
ATOM     24  O   UNL     1      -1.239  12.042  17.419  0.00  0.00    +0.000 OA
ATOM     25  H   UNL     1      -0.705  11.672  16.695  0.00  0.00    +0.000 HD
ENDBRANCH  20  24
BRANCH  21  26
ATOM     26  O   UNL     1      -2.178  13.121  19.739  0.00  0.00    +0.000 OA
ATOM     27  H   UNL     1      -2.995  12.745  19.324  0.00  0.00    +0.000 HD
ENDBRANCH  21  26
BRANCH  22  28
ATOM     28  O   UNL     1      -1.362  12.145  22.141  0.00  0.00    +0.000 OA
ATOM     29  H   UNL     1      -2.056  11.534  22.470  0.00  0.00    +0.000 HD
ENDBRANCH  22  28
ENDBRANCH   2  18
BRANCH   7  30
ATOM     30  C   UNL     1       4.654   3.838  19.320  0.00  0.00    +0.000 C 
BRANCH  30  31
ATOM     31  C   UNL     1       3.616   2.707  19.054  0.00  0.00    +0.000 C 
ATOM     32  C   UNL     1       2.810   2.277  20.293  0.00  0.00    +0.000 C 
ATOM     33  C   UNL     1       1.452   2.927  20.504  0.00  0.00    +0.000 C 
ATOM     34  C   UNL     1       0.639   3.184  19.251  0.00  0.00    +0.000 C 
ATOM     35  C   UNL     1       1.435   3.682  18.054  0.00  0.00    +0.000 C 
ATOM     36  C   UNL     1       2.752   2.961  17.813  0.00  0.00    +0.000 C 
ENDBRANCH  30  31
ENDBRANCH   7  30
TORSDOF 8
ENDMDL
MODEL 8
REMARK VINA RESULT:      -7.7      2.704     10.331
REMARK  Name = 
REMARK  8 active torsions:
REMARK  status: ('A' for Active; 'I' for Inactive)
REMARK    1  A    between atoms: C_2  and  C_23
REMARK    2  A    between atoms: C_6  and  C_7
REMARK    3  A    between atoms: C_10  and  O_11
REMARK    4  A    between atoms: C_14  and  C_15
REMARK    5  A    between atoms: C_15  and  C_16
REMARK    6  A    between atoms: C_25  and  O_26
REMARK    7  A    between atoms: C_27  and  O_28
REMARK    8  A    between atoms: C_29  and  O_30
REMARK                            x       y       z     vdW  Elec       q    Type
REMARK                         _______ _______ _______ _____ _____    ______ ____
ROOT
ATOM      1  O   UNL     1       3.570   8.014  17.532  0.00  0.00    +0.000 OA
ATOM      2  C   UNL     1       2.755   7.326  18.143  0.00  0.00    +0.000 C 
ATOM      3  N   UNL     1       1.638   7.804  18.835  0.00  0.00    +0.000 N 
ATOM      4  C   UNL     1       1.325   9.151  19.054  0.00  0.00    +0.000 A 
ATOM      5  N   UNL     1       0.415   9.588  19.912  0.00  0.00    +0.000 NA
ATOM      6  C   UNL     1       0.293  11.010  19.872  0.00  0.00    +0.000 A 
ATOM      7  C   UNL     1       1.068  11.585  18.864  0.00  0.00    +0.000 A 
ATOM      8  S   UNL     1       2.118  10.382  18.200  0.00  0.00    +0.000 S 
ATOM      9  H   UNL     1       1.032   7.170  19.333  0.00  0.00    +0.000 HD
ENDROOT
BRANCH   6  10
ATOM     10  C   UNL     1      -0.612  11.734  20.827  0.00  0.00    +0.000 A 
ATOM     11  C   UNL     1      -1.674  12.524  20.329  0.00  0.00    +0.000 A 
ATOM     12  C   UNL     1      -2.580  13.179  21.182  0.00  0.00    +0.000 A 
ATOM     13  C   UNL     1      -2.435  13.074  22.565  0.00  0.00    +0.000 A 
ATOM     14  C   UNL     1      -1.406  12.321  23.089  0.00  0.00    +0.000 A 
ATOM     15  C   UNL     1      -0.505  11.660  22.227  0.00  0.00    +0.000 A 
BRANCH  13  16
ATOM     16  O   UNL     1      -3.285  13.696  23.430  0.00  0.00    +0.000 OA
ATOM     17  H   UNL     1      -2.771  14.239  24.050  0.00  0.00    +0.000 HD
ENDBRANCH  13  16
ENDBRANCH   6  10
BRANCH   2  18
ATOM     18  C   UNL     1       3.068   5.845  18.191  0.00  0.00    +0.000 A 
ATOM     19  C   UNL     1       4.409   5.463  18.472  0.00  0.00    +0.000 A 
ATOM     20  C   UNL     1       4.761   4.117  18.607  0.00  0.00    +0.000 A 
ATOM     21  C   UNL     1       3.801   3.132  18.448  0.00  0.00    +0.000 A 
ATOM     22  C   UNL     1       2.496   3.493  18.126  0.00  0.00    +0.000 A 
ATOM     23  C   UNL     1       2.118   4.835  17.986  0.00  0.00    +0.000 A 
BRANCH  20  24
ATOM     24  O   UNL     1       6.033   3.707  18.894  0.00  0.00    +0.000 OA
ATOM     25  H   UNL     1       6.643   4.453  18.761  0.00  0.00    +0.000 HD
ENDBRANCH  20  24
BRANCH  21  26
ATOM     26  O   UNL     1       4.104   1.804  18.599  0.00  0.00    +0.000 OA
ATOM     27  H   UNL     1       5.051   1.746  18.316  0.00  0.00    +0.000 HD
ENDBRANCH  21  26
BRANCH  22  28
ATOM     28  O   UNL     1       1.562   2.508  17.941  0.00  0.00    +0.000 OA
ATOM     29  H   UNL     1       1.967   1.713  18.349  0.00  0.00    +0.000 HD
ENDBRANCH  22  28
ENDBRANCH   2  18
BRANCH   7  30
ATOM     30  C   UNL     1       1.141  12.954  18.226  0.00  0.00    +0.000 C 
BRANCH  30  31
ATOM     31  C   UNL     1       2.084  13.888  19.042  0.00  0.00    +0.000 C 
ATOM     32  C   UNL     1       3.391  14.261  18.319  0.00  0.00    +0.000 C 
ATOM     33  C   UNL     1       3.415  15.572  17.549  0.00  0.00    +0.000 C 
ATOM     34  C   UNL     1       2.663  16.726  18.183  0.00  0.00    +0.000 C 
ATOM     35  C   UNL     1       1.336  16.358  18.828  0.00  0.00    +0.000 C 
ATOM     36  C   UNL     1       1.356  15.087  19.661  0.00  0.00    +0.000 C 
ENDBRANCH  30  31
ENDBRANCH   7  30
TORSDOF 8
ENDMDL
MODEL 9
REMARK VINA RESULT:      -7.7      2.605     10.322
REMARK  Name = 
REMARK  8 active torsions:
REMARK  status: ('A' for Active; 'I' for Inactive)
REMARK    1  A    between atoms: C_2  and  C_23
REMARK    2  A    between atoms: C_6  and  C_7
REMARK    3  A    between atoms: C_10  and  O_11
REMARK    4  A    between atoms: C_14  and  C_15
REMARK    5  A    between atoms: C_15  and  C_16
REMARK    6  A    between atoms: C_25  and  O_26
REMARK    7  A    between atoms: C_27  and  O_28
REMARK    8  A    between atoms: C_29  and  O_30
REMARK                            x       y       z     vdW  Elec       q    Type
REMARK                         _______ _______ _______ _____ _____    ______ ____
ROOT
ATOM      1  O   UNL     1       3.461   8.285  17.584  0.00  0.00    +0.000 OA
ATOM      2  C   UNL     1       2.727   7.543  18.232  0.00  0.00    +0.000 C 
ATOM      3  N   UNL     1       1.595   7.938  18.953  0.00  0.00    +0.000 N 
ATOM      4  C   UNL     1       1.177   9.258  19.162  0.00  0.00    +0.000 A 
ATOM      5  N   UNL     1       0.261   9.632  20.042  0.00  0.00    +0.000 NA
ATOM      6  C   UNL     1       0.019  11.038  19.985  0.00  0.00    +0.000 A 
ATOM      7  C   UNL     1       0.710  11.657  18.943  0.00  0.00    +0.000 A 
ATOM      8  S   UNL     1       1.837  10.534  18.263  0.00  0.00    +0.000 S 
ATOM      9  H   UNL     1       1.062   7.264  19.480  0.00  0.00    +0.000 HD
ENDROOT
BRANCH   6  10
ATOM     10  C   UNL     1      -0.913  11.701  20.957  0.00  0.00    +0.000 A 
ATOM     11  C   UNL     1      -2.131  12.255  20.499  0.00  0.00    +0.000 A 
ATOM     12  C   UNL     1      -3.062  12.840  21.378  0.00  0.00    +0.000 A 
ATOM     13  C   UNL     1      -2.787  12.901  22.743  0.00  0.00    +0.000 A 
ATOM     14  C   UNL     1      -1.605  12.380  23.226  0.00  0.00    +0.000 A 
ATOM     15  C   UNL     1      -0.681  11.788  22.341  0.00  0.00    +0.000 A 
BRANCH  13  16
ATOM     16  O   UNL     1      -3.656  13.463  23.631  0.00  0.00    +0.000 OA
ATOM     17  H   UNL     1      -4.360  12.827  23.835  0.00  0.00    +0.000 HD
ENDBRANCH  13  16
ENDBRANCH   6  10
BRANCH   2  18
ATOM     18  C   UNL     1       3.164   6.094  18.293  0.00  0.00    +0.000 A 
ATOM     19  C   UNL     1       2.180   5.097  18.044  0.00  0.00    +0.000 A 
ATOM     20  C   UNL     1       2.522   3.742  18.008  0.00  0.00    +0.000 A 
ATOM     21  C   UNL     1       3.830   3.352  18.236  0.00  0.00    +0.000 A 
ATOM     22  C   UNL     1       4.792   4.315  18.527  0.00  0.00    +0.000 A 
ATOM     23  C   UNL     1       4.475   5.680  18.568  0.00  0.00    +0.000 A 
BRANCH  20  24
ATOM     24  O   UNL     1       1.612   2.753  17.756  0.00  0.00    +0.000 OA
ATOM     25  H   UNL     1       0.813   2.917  18.286  0.00  0.00    +0.000 HD
ENDBRANCH  20  24
BRANCH  21  26
ATOM     26  O   UNL     1       4.207   2.035  18.183  0.00  0.00    +0.000 OA
ATOM     27  H   UNL     1       3.538   1.578  18.753  0.00  0.00    +0.000 HD
ENDBRANCH  21  26
BRANCH  22  28
ATOM     28  O   UNL     1       6.076   3.915  18.781  0.00  0.00    +0.000 OA
ATOM     29  H   UNL     1       5.979   3.006  19.137  0.00  0.00    +0.000 HD
ENDBRANCH  22  28
ENDBRANCH   2  18
BRANCH   7  30
ATOM     30  C   UNL     1       0.648  13.016  18.282  0.00  0.00    +0.000 C 
BRANCH  30  31
ATOM     31  C   UNL     1       1.055  14.133  19.289  0.00  0.00    +0.000 C 
ATOM     32  C   UNL     1       2.449  14.737  19.040  0.00  0.00    +0.000 C 
ATOM     33  C   UNL     1       2.522  16.010  18.213  0.00  0.00    +0.000 C 
ATOM     34  C   UNL     1       1.404  17.010  18.435  0.00  0.00    +0.000 C 
ATOM     35  C   UNL     1       0.019  16.406  18.602  0.00  0.00    +0.000 C 
ATOM     36  C   UNL     1      -0.044  15.181  19.502  0.00  0.00    +0.000 C 
ENDBRANCH  30  31
ENDBRANCH   7  30
TORSDOF 8
ENDMDL
