MODEL 1
REMARK VINA RESULT:      -8.9      0.000      0.000
REMARK  Name = 
REMARK  4 active torsions:
REMARK  status: ('A' for Active; 'I' for Inactive)
REMARK    1  A    between atoms: N_2  and  C_4
REMARK    2  A    between atoms: C_8  and  C_9
REMARK    3  A    between atoms: C_16  and  C_17
REMARK    4  A    between atoms: N_22  and  C_23
REMARK                            x       y       z     vdW  Elec       q    Type
REMARK                         _______ _______ _______ _____ _____    ______ ____
ROOT
ATOM      1  C   UNL     1       2.626   5.841  18.578  0.00  0.00    +0.000 A 
ATOM      2  N   UNL     1       1.728   4.855  18.965  0.00  0.00    +0.000 NA
ATOM      3  C   UNL     1       2.362   3.752  18.700  0.00  0.00    +0.000 A 
ATOM      4  S   UNL     1       1.974   2.066  18.857  0.00  0.00    +0.000 S 
ATOM      5  C   UNL     1       3.564   1.675  18.193  0.00  0.00    +0.000 A 
ATOM      6  C   UNL     1       4.292   2.766  17.902  0.00  0.00    +0.000 A 
ATOM      7  N   UNL     1       3.608   3.935  18.180  0.00  0.00    +0.000 N 
ATOM      8  C   UNL     1       3.829   5.292  18.087  0.00  0.00    +0.000 A 
ENDROOT
BRANCH   8   9
ATOM      9  C   UNL     1       5.080   5.900  17.643  0.00  0.00    +0.000 A 
ATOM     10  C   UNL     1       5.731   6.915  18.303  0.00  0.00    +0.000 A 
ATOM     11  C   UNL     1       6.920   7.320  17.746  0.00  0.00    +0.000 A 
ATOM     12  N   UNL     1       7.469   6.746  16.659  0.00  0.00    +0.000 NA
ATOM     13  C   UNL     1       6.767   5.768  16.075  0.00  0.00    +0.000 A 
ATOM     14  N   UNL     1       7.354   5.122  14.992  0.00  0.00    +0.000 N 
ATOM     15  N   UNL     1       5.576   5.353  16.526  0.00  0.00    +0.000 NA
ATOM     16  H   UNL     1       8.291   5.459  14.833  0.00  0.00    +0.000 HD
BRANCH  14  17
ATOM     17  C   UNL     1       6.730   4.501  13.898  0.00  0.00    +0.000 A 
ATOM     18  C   UNL     1       5.430   3.983  13.969  0.00  0.00    +0.000 A 
ATOM     19  C   UNL     1       4.844   3.346  12.876  0.00  0.00    +0.000 A 
ATOM     20  C   UNL     1       5.562   3.192  11.697  0.00  0.00    +0.000 A 
ATOM     21  C   UNL     1       6.866   3.677  11.612  0.00  0.00    +0.000 A 
ATOM     22  C   UNL     1       7.444   4.329  12.706  0.00  0.00    +0.000 A 
ENDBRANCH  14  17
ENDBRANCH   8   9
BRANCH   1  27
ATOM     23  C   UNL     1       1.484   9.111  20.068  0.00  0.00    +0.000 A 
ATOM     24  C   UNL     1       1.564   9.976  18.972  0.00  0.00    +0.000 A 
ATOM     25  C   UNL     1       1.966   9.476  17.737  0.00  0.00    +0.000 A 
ATOM     26  C   UNL     1       2.290   8.123  17.602  0.00  0.00    +0.000 A 
ATOM     27  C   UNL     1       2.264   7.252  18.702  0.00  0.00    +0.000 A 
ATOM     28  C   UNL     1       1.833   7.755  19.942  0.00  0.00    +0.000 A 
BRANCH  23  30
ATOM     29  O   UNL     1       0.588   8.821  22.190  0.00  0.00    +0.000 OA
ATOM     30  N   UNL     1       1.021   9.635  21.359  0.00  0.00    +0.000 N 
ATOM     31  O   UNL     1       1.097  10.855  21.553  0.00  0.00    +0.000 OA
ENDBRANCH  23  30
ENDBRANCH   1  27
TORSDOF 4
ENDMDL
MODEL 2
REMARK VINA RESULT:      -8.2      7.203     10.813
REMARK  Name = 
REMARK  4 active torsions:
REMARK  status: ('A' for Active; 'I' for Inactive)
REMARK    1  A    between atoms: N_2  and  C_4
REMARK    2  A    between atoms: C_8  and  C_9
REMARK    3  A    between atoms: C_16  and  C_17
REMARK    4  A    between atoms: N_22  and  C_23
REMARK                            x       y       z     vdW  Elec       q    Type
REMARK                         _______ _______ _______ _____ _____    ______ ____
ROOT
ATOM      1  C   UNL     1       0.059  12.865  21.537  0.00  0.00    +0.000 A 
ATOM      2  N   UNL     1       1.204  13.636  21.693  0.00  0.00    +0.000 NA
ATOM      3  C   UNL     1       0.746  14.852  21.704  0.00  0.00    +0.000 A 
ATOM      4  S   UNL     1       1.482  16.420  21.842  0.00  0.00    +0.000 S 
ATOM      5  C   UNL     1      -0.125  17.144  21.721  0.00  0.00    +0.000 A 
ATOM      6  C   UNL     1      -1.103  16.232  21.598  0.00  0.00    +0.000 A 
ATOM      7  N   UNL     1      -0.608  14.941  21.579  0.00  0.00    +0.000 N 
ATOM      8  C   UNL     1      -1.105  13.660  21.472  0.00  0.00    +0.000 A 
ENDROOT
BRANCH   8   9
ATOM      9  C   UNL     1      -2.524  13.324  21.394  0.00  0.00    +0.000 A 
ATOM     10  C   UNL     1      -3.431  13.534  22.404  0.00  0.00    +0.000 A 
ATOM     11  C   UNL     1      -4.730  13.190  22.117  0.00  0.00    +0.000 A 
ATOM     12  N   UNL     1      -5.134  12.729  20.918  0.00  0.00    +0.000 NA
ATOM     13  C   UNL     1      -4.184  12.550  19.992  0.00  0.00    +0.000 A 
ATOM     14  N   UNL     1      -4.596  12.139  18.728  0.00  0.00    +0.000 N 
ATOM     15  N   UNL     1      -2.889  12.811  20.212  0.00  0.00    +0.000 NA
ATOM     16  H   UNL     1      -5.602  12.089  18.674  0.00  0.00    +0.000 HD
BRANCH  14  17
ATOM     17  C   UNL     1      -3.891  11.382  17.780  0.00  0.00    +0.000 A 
ATOM     18  C   UNL     1      -2.738  10.655  18.105  0.00  0.00    +0.000 A 
ATOM     19  C   UNL     1      -2.040   9.934  17.137  0.00  0.00    +0.000 A 
ATOM     20  C   UNL     1      -2.470   9.951  15.816  0.00  0.00    +0.000 A 
ATOM     21  C   UNL     1      -3.600  10.687  15.465  0.00  0.00    +0.000 A 
ATOM     22  C   UNL     1      -4.306  11.397  16.442  0.00  0.00    +0.000 A 
ENDBRANCH  14  17
ENDBRANCH   8   9
BRANCH   1  27
ATOM     23  C   UNL     1       0.884   9.415  20.258  0.00  0.00    +0.000 A 
ATOM     24  C   UNL     1       0.378   8.597  21.275  0.00  0.00    +0.000 A 
ATOM     25  C   UNL     1      -0.259   9.181  22.366  0.00  0.00    +0.000 A 
ATOM     26  C   UNL     1      -0.385  10.571  22.440  0.00  0.00    +0.000 A 
ATOM     27  C   UNL     1       0.161  11.408  21.455  0.00  0.00    +0.000 A 
ATOM     28  C   UNL     1       0.782  10.815  20.343  0.00  0.00    +0.000 A 
BRANCH  23  30
ATOM     29  O   UNL     1       2.208   7.777  19.281  0.00  0.00    +0.000 OA
ATOM     30  N   UNL     1       1.520   8.793  19.091  0.00  0.00    +0.000 N 
ATOM     31  O   UNL     1       1.327   9.306  17.981  0.00  0.00    +0.000 OA
ENDBRANCH  23  30
ENDBRANCH   1  27
TORSDOF 4
ENDMDL
MODEL 3
REMARK VINA RESULT:      -8.2      5.282      8.497
REMARK  Name = 
REMARK  4 active torsions:
REMARK  status: ('A' for Active; 'I' for Inactive)
REMARK    1  A    between atoms: N_2  and  C_4
REMARK    2  A    between atoms: C_8  and  C_9
REMARK    3  A    between atoms: C_16  and  C_17
REMARK    4  A    between atoms: N_22  and  C_23
REMARK                            x       y       z     vdW  Elec       q    Type
REMARK                         _______ _______ _______ _____ _____    ______ ____
ROOT
ATOM      1  C   UNL     1      -0.732  12.373  18.895  0.00  0.00    +0.000 A 
ATOM      2  N   UNL     1      -0.326  13.514  18.215  0.00  0.00    +0.000 NA
ATOM      3  C   UNL     1       0.660  13.957  18.936  0.00  0.00    +0.000 A 
ATOM      4  S   UNL     1       1.719  15.330  18.823  0.00  0.00    +0.000 S 
ATOM      5  C   UNL     1       2.517  14.789  20.304  0.00  0.00    +0.000 A 
ATOM      6  C   UNL     1       1.994  13.655  20.797  0.00  0.00    +0.000 A 
ATOM      7  N   UNL     1       0.941  13.193  20.029  0.00  0.00    +0.000 N 
ATOM      8  C   UNL     1       0.056  12.136  20.041  0.00  0.00    +0.000 A 
ENDROOT
BRANCH   8   9
ATOM      9  C   UNL     1       0.076  11.049  21.016  0.00  0.00    +0.000 A 
ATOM     10  C   UNL     1      -0.408  11.144  22.299  0.00  0.00    +0.000 A 
ATOM     11  C   UNL     1      -0.337   9.994  23.047  0.00  0.00    +0.000 A 
ATOM     12  N   UNL     1       0.118   8.820  22.571  0.00  0.00    +0.000 NA
ATOM     13  C   UNL     1       0.575   8.817  21.313  0.00  0.00    +0.000 A 
ATOM     14  N   UNL     1       0.985   7.596  20.786  0.00  0.00    +0.000 N 
ATOM     15  N   UNL     1       0.589   9.909  20.537  0.00  0.00    +0.000 NA
ATOM     16  H   UNL     1       0.815   6.845  21.438  0.00  0.00    +0.000 HD
BRANCH  14  17
ATOM     17  C   UNL     1       1.951   7.347  19.799  0.00  0.00    +0.000 A 
ATOM     18  C   UNL     1       2.138   8.195  18.700  0.00  0.00    +0.000 A 
ATOM     19  C   UNL     1       3.086   7.909  17.718  0.00  0.00    +0.000 A 
ATOM     20  C   UNL     1       3.848   6.751  17.807  0.00  0.00    +0.000 A 
ATOM     21  C   UNL     1       3.661   5.880  18.878  0.00  0.00    +0.000 A 
ATOM     22  C   UNL     1       2.719   6.178  19.868  0.00  0.00    +0.000 A 
ENDBRANCH  14  17
ENDBRANCH   8   9
BRANCH   1  27
ATOM     23  C   UNL     1      -4.258  11.176  18.299  0.00  0.00    +0.000 A 
ATOM     24  C   UNL     1      -4.056  10.084  17.448  0.00  0.00    +0.000 A 
ATOM     25  C   UNL     1      -2.758   9.726  17.094  0.00  0.00    +0.000 A 
ATOM     26  C   UNL     1      -1.673  10.456  17.585  0.00  0.00    +0.000 A 
ATOM     27  C   UNL     1      -1.859  11.585  18.398  0.00  0.00    +0.000 A 
ATOM     28  C   UNL     1      -3.169  11.929  18.774  0.00  0.00    +0.000 A 
BRANCH  23  30
ATOM     29  O   UNL     1      -5.774  12.503  19.452  0.00  0.00    +0.000 OA
ATOM     30  N   UNL     1      -5.625  11.525  18.701  0.00  0.00    +0.000 N 
ATOM     31  O   UNL     1      -6.554  10.836  18.263  0.00  0.00    +0.000 OA
ENDBRANCH  23  30
ENDBRANCH   1  27
TORSDOF 4
ENDMDL
MODEL 4
REMARK VINA RESULT:      -8.1      5.162      8.238
REMARK  Name = 
REMARK  4 active torsions:
REMARK  status: ('A' for Active; 'I' for Inactive)
REMARK    1  A    between atoms: N_2  and  C_4
REMARK    2  A    between atoms: C_8  and  C_9
REMARK    3  A    between atoms: C_16  and  C_17
REMARK    4  A    between atoms: N_22  and  C_23
REMARK                            x       y       z     vdW  Elec       q    Type
REMARK                         _______ _______ _______ _____ _____    ______ ____
ROOT
ATOM      1  C   UNL     1      -0.420  12.252  18.842  0.00  0.00    +0.000 A 
ATOM      2  N   UNL     1       0.030  13.376  18.160  0.00  0.00    +0.000 NA
ATOM      3  C   UNL     1       1.050  13.765  18.865  0.00  0.00    +0.000 A 
ATOM      4  S   UNL     1       2.175  15.083  18.740  0.00  0.00    +0.000 S 
ATOM      5  C   UNL     1       2.972  14.494  20.203  0.00  0.00    +0.000 A 
ATOM      6  C   UNL     1       2.402  13.383  20.699  0.00  0.00    +0.000 A 
ATOM      7  N   UNL     1       1.313  12.981  19.948  0.00  0.00    +0.000 N 
ATOM      8  C   UNL     1       0.376  11.969  19.971  0.00  0.00    +0.000 A 
ENDROOT
BRANCH   8   9
ATOM      9  C   UNL     1       0.359  10.876  20.939  0.00  0.00    +0.000 A 
ATOM     10  C   UNL     1      -0.121  10.979  22.223  0.00  0.00    +0.000 A 
ATOM     11  C   UNL     1      -0.089   9.823  22.963  0.00  0.00    +0.000 A 
ATOM     12  N   UNL     1       0.325   8.637  22.480  0.00  0.00    +0.000 NA
ATOM     13  C   UNL     1       0.782   8.627  21.222  0.00  0.00    +0.000 A 
ATOM     14  N   UNL     1       1.150   7.396  20.688  0.00  0.00    +0.000 N 
ATOM     15  N   UNL     1       0.833   9.722  20.453  0.00  0.00    +0.000 NA
ATOM     16  H   UNL     1       0.956   6.647  21.335  0.00  0.00    +0.000 HD
BRANCH  14  17
ATOM     17  C   UNL     1       2.108   7.120  19.699  0.00  0.00    +0.000 A 
ATOM     18  C   UNL     1       2.981   6.027  19.783  0.00  0.00    +0.000 A 
ATOM     19  C   UNL     1       3.943   5.793  18.801  0.00  0.00    +0.000 A 
ATOM     20  C   UNL     1       4.065   6.667  17.728  0.00  0.00    +0.000 A 
ATOM     21  C   UNL     1       3.224   7.774  17.637  0.00  0.00    +0.000 A 
ATOM     22  C   UNL     1       2.251   7.997  18.617  0.00  0.00    +0.000 A 
ENDBRANCH  14  17
ENDBRANCH   8   9
BRANCH   1  27
ATOM     23  C   UNL     1      -4.014  11.265  18.269  0.00  0.00    +0.000 A 
ATOM     24  C   UNL     1      -3.882  10.144  17.443  0.00  0.00    +0.000 A 
ATOM     25  C   UNL     1      -2.609   9.697  17.099  0.00  0.00    +0.000 A 
ATOM     26  C   UNL     1      -1.480  10.370  17.574  0.00  0.00    +0.000 A 
ATOM     27  C   UNL     1      -1.595  11.526  18.362  0.00  0.00    +0.000 A 
ATOM     28  C   UNL     1      -2.880  11.959  18.728  0.00  0.00    +0.000 A 
BRANCH  23  30
ATOM     29  O   UNL     1      -6.284  10.888  18.575  0.00  0.00    +0.000 OA
ATOM     30  N   UNL     1      -5.357  11.709  18.662  0.00  0.00    +0.000 N 
ATOM     31  O   UNL     1      -5.490  12.870  19.067  0.00  0.00    +0.000 OA
ENDBRANCH  23  30
ENDBRANCH   1  27
TORSDOF 4
ENDMDL
MODEL 5
REMARK VINA RESULT:      -7.9      5.320      8.626
REMARK  Name = 
REMARK  4 active torsions:
REMARK  status: ('A' for Active; 'I' for Inactive)
REMARK    1  A    between atoms: N_2  and  C_4
REMARK    2  A    between atoms: C_8  and  C_9
REMARK    3  A    between atoms: C_16  and  C_17
REMARK    4  A    between atoms: N_22  and  C_23
REMARK                            x       y       z     vdW  Elec       q    Type
REMARK                         _______ _______ _______ _____ _____    ______ ____
ROOT
ATOM      1  C   UNL     1      -0.510  12.816  19.109  0.00  0.00    +0.000 A 
ATOM      2  N   UNL     1       0.048  13.908  18.457  0.00  0.00    +0.000 NA
ATOM      3  C   UNL     1       1.140  14.129  19.126  0.00  0.00    +0.000 A 
ATOM      4  S   UNL     1       2.416  15.302  19.005  0.00  0.00    +0.000 S 
ATOM      5  C   UNL     1       3.196  14.543  20.397  0.00  0.00    +0.000 A 
ATOM      6  C   UNL     1       2.512  13.489  20.871  0.00  0.00    +0.000 A 
ATOM      7  N   UNL     1       1.348  13.264  20.158  0.00  0.00    +0.000 N 
ATOM      8  C   UNL     1       0.293  12.378  20.183  0.00  0.00    +0.000 A 
ENDROOT
BRANCH   8   9
ATOM      9  C   UNL     1       0.180  11.248  21.100  0.00  0.00    +0.000 A 
ATOM     10  C   UNL     1      -0.361  11.318  22.362  0.00  0.00    +0.000 A 
ATOM     11  C   UNL     1      -0.416  10.132  23.052  0.00  0.00    +0.000 A 
ATOM     12  N   UNL     1      -0.028   8.950  22.538  0.00  0.00    +0.000 NA
ATOM     13  C   UNL     1       0.493   8.971  21.305  0.00  0.00    +0.000 A 
ATOM     14  N   UNL     1       0.836   7.749  20.736  0.00  0.00    +0.000 N 
ATOM     15  N   UNL     1       0.629  10.095  20.588  0.00  0.00    +0.000 NA
ATOM     16  H   UNL     1       0.577   6.983  21.340  0.00  0.00    +0.000 HD
BRANCH  14  17
ATOM     17  C   UNL     1       1.831   7.472  19.786  0.00  0.00    +0.000 A 
ATOM     18  C   UNL     1       2.054   8.293  18.672  0.00  0.00    +0.000 A 
ATOM     19  C   UNL     1       3.030   7.980  17.726  0.00  0.00    +0.000 A 
ATOM     20  C   UNL     1       3.784   6.821  17.867  0.00  0.00    +0.000 A 
ATOM     21  C   UNL     1       3.562   5.978  18.953  0.00  0.00    +0.000 A 
ATOM     22  C   UNL     1       2.592   6.304  19.907  0.00  0.00    +0.000 A 
ENDBRANCH  14  17
ENDBRANCH   8   9
BRANCH   1  27
ATOM     23  C   UNL     1      -3.096  11.105  16.962  0.00  0.00    +0.000 A 
ATOM     24  C   UNL     1      -4.242  11.191  17.760  0.00  0.00    +0.000 A 
ATOM     25  C   UNL     1      -4.169  11.836  18.991  0.00  0.00    +0.000 A 
ATOM     26  C   UNL     1      -2.958  12.387  19.420  0.00  0.00    +0.000 A 
ATOM     27  C   UNL     1      -1.788  12.266  18.656  0.00  0.00    +0.000 A 
ATOM     28  C   UNL     1      -1.870  11.636  17.402  0.00  0.00    +0.000 A 
BRANCH  23  30
ATOM     29  O   UNL     1      -3.699  11.106  14.720  0.00  0.00    +0.000 OA
ATOM     30  N   UNL     1      -3.187  10.458  15.647  0.00  0.00    +0.000 N 
ATOM     31  O   UNL     1      -2.740   9.310  15.532  0.00  0.00    +0.000 OA
ENDBRANCH  23  30
ENDBRANCH   1  27
TORSDOF 4
ENDMDL
MODEL 6
REMARK VINA RESULT:      -7.8      6.835     10.461
REMARK  Name = 
REMARK  4 active torsions:
REMARK  status: ('A' for Active; 'I' for Inactive)
REMARK    1  A    between atoms: N_2  and  C_4
REMARK    2  A    between atoms: C_8  and  C_9
REMARK    3  A    between atoms: C_16  and  C_17
REMARK    4  A    between atoms: N_22  and  C_23
REMARK                            x       y       z     vdW  Elec       q    Type
REMARK                         _______ _______ _______ _____ _____    ______ ____
ROOT
ATOM      1  C   UNL     1       1.009  13.273  20.307  0.00  0.00    +0.000 A 
ATOM      2  N   UNL     1       2.134  14.086  20.291  0.00  0.00    +0.000 NA
ATOM      3  C   UNL     1       1.687  15.226  20.725  0.00  0.00    +0.000 A 
ATOM      4  S   UNL     1       2.408  16.782  21.002  0.00  0.00    +0.000 S 
ATOM      5  C   UNL     1       0.833  17.375  21.543  0.00  0.00    +0.000 A 
ATOM      6  C   UNL     1      -0.122  16.431  21.506  0.00  0.00    +0.000 A 
ATOM      7  N   UNL     1       0.360  15.224  21.036  0.00  0.00    +0.000 N 
ATOM      8  C   UNL     1      -0.128  13.960  20.783  0.00  0.00    +0.000 A 
ENDROOT
BRANCH   8   9
ATOM      9  C   UNL     1      -1.496  13.529  21.056  0.00  0.00    +0.000 A 
ATOM     10  C   UNL     1      -2.139  13.691  22.261  0.00  0.00    +0.000 A 
ATOM     11  C   UNL     1      -3.441  13.257  22.302  0.00  0.00    +0.000 A 
ATOM     12  N   UNL     1      -4.096  12.754  21.238  0.00  0.00    +0.000 NA
ATOM     13  C   UNL     1      -3.394  12.626  20.106  0.00  0.00    +0.000 A 
ATOM     14  N   UNL     1      -4.076  12.171  18.982  0.00  0.00    +0.000 N 
ATOM     15  N   UNL     1      -2.105  12.976  20.000  0.00  0.00    +0.000 NA
ATOM     16  H   UNL     1      -5.059  12.054  19.177  0.00  0.00    +0.000 HD
BRANCH  14  17
ATOM     17  C   UNL     1      -3.577  11.450  17.886  0.00  0.00    +0.000 A 
ATOM     18  C   UNL     1      -4.205  11.455  16.633  0.00  0.00    +0.000 A 
ATOM     19  C   UNL     1      -3.704  10.707  15.569  0.00  0.00    +0.000 A 
ATOM     20  C   UNL     1      -2.576   9.916  15.748  0.00  0.00    +0.000 A 
ATOM     21  C   UNL     1      -1.950   9.876  16.992  0.00  0.00    +0.000 A 
ATOM     22  C   UNL     1      -2.447  10.640  18.053  0.00  0.00    +0.000 A 
ENDBRANCH  14  17
ENDBRANCH   8   9
BRANCH   1  27
ATOM     23  C   UNL     1       0.846   9.506  20.309  0.00  0.00    +0.000 A 
ATOM     24  C   UNL     1       1.261   9.194  19.010  0.00  0.00    +0.000 A 
ATOM     25  C   UNL     1       1.622  10.223  18.145  0.00  0.00    +0.000 A 
ATOM     26  C   UNL     1       1.563  11.551  18.574  0.00  0.00    +0.000 A 
ATOM     27  C   UNL     1       1.100  11.885  19.857  0.00  0.00    +0.000 A 
ATOM     28  C   UNL     1       0.761  10.843  20.737  0.00  0.00    +0.000 A 
BRANCH  23  30
ATOM     29  O   UNL     1      -0.460   8.586  21.994  0.00  0.00    +0.000 OA
ATOM     30  N   UNL     1       0.504   8.416  21.231  0.00  0.00    +0.000 N 
ATOM     31  O   UNL     1       1.187   7.385  21.190  0.00  0.00    +0.000 OA
ENDBRANCH  23  30
ENDBRANCH   1  27
TORSDOF 4
ENDMDL
MODEL 7
REMARK VINA RESULT:      -7.8      8.286     11.736
REMARK  Name = 
REMARK  4 active torsions:
REMARK  status: ('A' for Active; 'I' for Inactive)
REMARK    1  A    between atoms: N_2  and  C_4
REMARK    2  A    between atoms: C_8  and  C_9
REMARK    3  A    between atoms: C_16  and  C_17
REMARK    4  A    between atoms: N_22  and  C_23
REMARK                            x       y       z     vdW  Elec       q    Type
REMARK                         _______ _______ _______ _____ _____    ______ ____
ROOT
ATOM      1  C   UNL     1      -2.237  13.836  21.488  0.00  0.00    +0.000 A 
ATOM      2  N   UNL     1      -1.540  14.949  21.939  0.00  0.00    +0.000 NA
ATOM      3  C   UNL     1      -2.483  15.796  22.226  0.00  0.00    +0.000 A 
ATOM      4  S   UNL     1      -2.503  17.425  22.831  0.00  0.00    +0.000 S 
ATOM      5  C   UNL     1      -4.269  17.390  22.761  0.00  0.00    +0.000 A 
ATOM      6  C   UNL     1      -4.752  16.218  22.319  0.00  0.00    +0.000 A 
ATOM      7  N   UNL     1      -3.743  15.325  22.009  0.00  0.00    +0.000 N 
ATOM      8  C   UNL     1      -3.633  14.037  21.529  0.00  0.00    +0.000 A 
ENDROOT
BRANCH   8   9
ATOM      9  C   UNL     1      -4.763  13.160  21.240  0.00  0.00    +0.000 A 
ATOM     10  C   UNL     1      -5.823  12.948  22.090  0.00  0.00    +0.000 A 
ATOM     11  C   UNL     1      -6.809  12.119  21.614  0.00  0.00    +0.000 A 
ATOM     12  N   UNL     1      -6.801  11.577  20.383  0.00  0.00    +0.000 NA
ATOM     13  C   UNL     1      -5.729  11.830  19.622  0.00  0.00    +0.000 A 
ATOM     14  N   UNL     1      -5.738  11.332  18.322  0.00  0.00    +0.000 N 
ATOM     15  N   UNL     1      -4.701  12.584  20.033  0.00  0.00    +0.000 NA
ATOM     16  H   UNL     1      -6.616  10.882  18.113  0.00  0.00    +0.000 HD
BRANCH  14  17
ATOM     17  C   UNL     1      -4.649  10.958  17.519  0.00  0.00    +0.000 A 
ATOM     18  C   UNL     1      -4.394  11.552  16.276  0.00  0.00    +0.000 A 
ATOM     19  C   UNL     1      -3.322  11.143  15.484  0.00  0.00    +0.000 A 
ATOM     20  C   UNL     1      -2.499  10.109  15.914  0.00  0.00    +0.000 A 
ATOM     21  C   UNL     1      -2.749   9.487  17.135  0.00  0.00    +0.000 A 
ATOM     22  C   UNL     1      -3.817   9.911  17.933  0.00  0.00    +0.000 A 
ENDBRANCH  14  17
ENDBRANCH   8   9
BRANCH   1  27
ATOM     23  C   UNL     1      -0.268  10.621  21.562  0.00  0.00    +0.000 A 
ATOM     24  C   UNL     1      -0.108  10.344  20.200  0.00  0.00    +0.000 A 
ATOM     25  C   UNL     1      -0.623  11.231  19.259  0.00  0.00    +0.000 A 
ATOM     26  C   UNL     1      -1.296  12.382  19.678  0.00  0.00    +0.000 A 
ATOM     27  C   UNL     1      -1.510  12.649  21.039  0.00  0.00    +0.000 A 
ATOM     28  C   UNL     1      -0.967  11.765  21.987  0.00  0.00    +0.000 A 
BRANCH  23  30
ATOM     29  O   UNL     1       0.055   9.908  23.748  0.00  0.00    +0.000 OA
ATOM     30  N   UNL     1       0.312   9.703  22.551  0.00  0.00    +0.000 N 
ATOM     31  O   UNL     1       1.013   8.772  22.138  0.00  0.00    +0.000 OA
ENDBRANCH  23  30
ENDBRANCH   1  27
TORSDOF 4
ENDMDL
MODEL 8
REMARK VINA RESULT:      -7.7      8.642     11.286
REMARK  Name = 
REMARK  4 active torsions:
REMARK  status: ('A' for Active; 'I' for Inactive)
REMARK    1  A    between atoms: N_2  and  C_4
REMARK    2  A    between atoms: C_8  and  C_9
REMARK    3  A    between atoms: C_16  and  C_17
REMARK    4  A    between atoms: N_22  and  C_23
REMARK                            x       y       z     vdW  Elec       q    Type
REMARK                         _______ _______ _______ _____ _____    ______ ____
ROOT
ATOM      1  C   UNL     1       7.471  15.658  18.721  0.00  0.00    +0.000 A 
ATOM      2  N   UNL     1       7.716  16.959  18.301  0.00  0.00    +0.000 NA
ATOM      3  C   UNL     1       9.007  16.991  18.161  0.00  0.00    +0.000 A 
ATOM      4  S   UNL     1      10.143  18.217  17.689  0.00  0.00    +0.000 S 
ATOM      5  C   UNL     1      11.445  17.042  17.903  0.00  0.00    +0.000 A 
ATOM      6  C   UNL     1      11.003  15.835  18.291  0.00  0.00    +0.000 A 
ATOM      7  N   UNL     1       9.629  15.812  18.445  0.00  0.00    +0.000 N 
ATOM      8  C   UNL     1       8.659  14.904  18.812  0.00  0.00    +0.000 A 
ENDROOT
BRANCH   8   9
ATOM      9  C   UNL     1       8.913  13.500  19.124  0.00  0.00    +0.000 A 
ATOM     10  C   UNL     1       9.210  12.535  18.192  0.00  0.00    +0.000 A 
ATOM     11  C   UNL     1       9.459  11.281  18.693  0.00  0.00    +0.000 A 
ATOM     12  N   UNL     1       9.475  10.991  20.008  0.00  0.00    +0.000 NA
ATOM     13  C   UNL     1       9.169  11.988  20.847  0.00  0.00    +0.000 A 
ATOM     14  N   UNL     1       9.248  11.719  22.210  0.00  0.00    +0.000 N 
ATOM     15  N   UNL     1       8.863  13.224  20.434  0.00  0.00    +0.000 NA
ATOM     16  H   UNL     1       9.597  10.788  22.377  0.00  0.00    +0.000 HD
BRANCH  14  17
ATOM     17  C   UNL     1       8.522  12.301  23.261  0.00  0.00    +0.000 A 
ATOM     18  C   UNL     1       8.678  13.643  23.630  0.00  0.00    +0.000 A 
ATOM     19  C   UNL     1       7.965  14.189  24.698  0.00  0.00    +0.000 A 
ATOM     20  C   UNL     1       7.100  13.389  25.433  0.00  0.00    +0.000 A 
ATOM     21  C   UNL     1       6.947  12.045  25.100  0.00  0.00    +0.000 A 
ATOM     22  C   UNL     1       7.653  11.506  24.019  0.00  0.00    +0.000 A 
ENDBRANCH  14  17
ENDBRANCH   8   9
BRANCH   1  27
ATOM     23  C   UNL     1       4.398  14.600  20.633  0.00  0.00    +0.000 A 
ATOM     24  C   UNL     1       3.469  14.400  19.607  0.00  0.00    +0.000 A 
ATOM     25  C   UNL     1       3.863  14.587  18.285  0.00  0.00    +0.000 A 
ATOM     26  C   UNL     1       5.174  14.973  17.994  0.00  0.00    +0.000 A 
ATOM     27  C   UNL     1       6.104  15.227  19.013  0.00  0.00    +0.000 A 
ATOM     28  C   UNL     1       5.711  15.014  20.345  0.00  0.00    +0.000 A 
BRANCH  23  30
ATOM     29  O   UNL     1       2.883  14.799  22.380  0.00  0.00    +0.000 OA
ATOM     30  N   UNL     1       3.989  14.364  22.023  0.00  0.00    +0.000 N 
ATOM     31  O   UNL     1       4.762  13.737  22.758  0.00  0.00    +0.000 OA
ENDBRANCH  23  30
ENDBRANCH   1  27
TORSDOF 4
ENDMDL
MODEL 9
REMARK VINA RESULT:      -7.7      5.350      8.660
REMARK  Name = 
REMARK  4 active torsions:
REMARK  status: ('A' for Active; 'I' for Inactive)
REMARK    1  A    between atoms: N_2  and  C_4
REMARK    2  A    between atoms: C_8  and  C_9
REMARK    3  A    between atoms: C_16  and  C_17
REMARK    4  A    between atoms: N_22  and  C_23
REMARK                            x       y       z     vdW  Elec       q    Type
REMARK                         _______ _______ _______ _____ _____    ______ ____
ROOT
ATOM      1  C   UNL     1      -0.935  12.777  19.271  0.00  0.00    +0.000 A 
ATOM      2  N   UNL     1      -0.421  13.828  18.523  0.00  0.00    +0.000 NA
ATOM      3  C   UNL     1       0.767  13.997  19.021  0.00  0.00    +0.000 A 
ATOM      4  S   UNL     1       2.072  15.096  18.691  0.00  0.00    +0.000 S 
ATOM      5  C   UNL     1       3.006  14.313  19.970  0.00  0.00    +0.000 A 
ATOM      6  C   UNL     1       2.344  13.305  20.560  0.00  0.00    +0.000 A 
ATOM      7  N   UNL     1       1.079  13.136  20.029  0.00  0.00    +0.000 N 
ATOM      8  C   UNL     1      -0.007  12.309  20.226  0.00  0.00    +0.000 A 
ENDROOT
BRANCH   8   9
ATOM      9  C   UNL     1      -0.044  11.199  21.174  0.00  0.00    +0.000 A 
ATOM     10  C   UNL     1      -0.534  11.283  22.455  0.00  0.00    +0.000 A 
ATOM     11  C   UNL     1      -0.520  10.113  23.174  0.00  0.00    +0.000 A 
ATOM     12  N   UNL     1      -0.114   8.932  22.672  0.00  0.00    +0.000 NA
ATOM     13  C   UNL     1       0.353   8.940  21.418  0.00  0.00    +0.000 A 
ATOM     14  N   UNL     1       0.713   7.715  20.864  0.00  0.00    +0.000 N 
ATOM     15  N   UNL     1       0.422  10.049  20.670  0.00  0.00    +0.000 NA
ATOM     16  H   UNL     1       0.505   6.957  21.495  0.00  0.00    +0.000 HD
BRANCH  14  17
ATOM     17  C   UNL     1       1.676   7.448  19.879  0.00  0.00    +0.000 A 
ATOM     18  C   UNL     1       2.511   6.324  19.930  0.00  0.00    +0.000 A 
ATOM     19  C   UNL     1       3.480   6.097  18.952  0.00  0.00    +0.000 A 
ATOM     20  C   UNL     1       3.648   7.009  17.918  0.00  0.00    +0.000 A 
ATOM     21  C   UNL     1       2.845   8.147  17.861  0.00  0.00    +0.000 A 
ATOM     22  C   UNL     1       1.865   8.363  18.835  0.00  0.00    +0.000 A 
ENDBRANCH  14  17
ENDBRANCH   8   9
BRANCH   1  27
ATOM     23  C   UNL     1      -4.632  12.161  19.681  0.00  0.00    +0.000 A 
ATOM     24  C   UNL     1      -4.925  11.378  18.559  0.00  0.00    +0.000 A 
ATOM     25  C   UNL     1      -3.899  11.030  17.684  0.00  0.00    +0.000 A 
ATOM     26  C   UNL     1      -2.594  11.465  17.929  0.00  0.00    +0.000 A 
ATOM     27  C   UNL     1      -2.292  12.293  19.021  0.00  0.00    +0.000 A 
ATOM     28  C   UNL     1      -3.325  12.622  19.916  0.00  0.00    +0.000 A 
BRANCH  23  30
ATOM     29  O   UNL     1      -5.577  12.131  21.801  0.00  0.00    +0.000 OA
ATOM     30  N   UNL     1      -5.710  12.493  20.621  0.00  0.00    +0.000 N 
ATOM     31  O   UNL     1      -6.684  13.122  20.190  0.00  0.00    +0.000 OA
ENDBRANCH  23  30
ENDBRANCH   1  27
TORSDOF 4
ENDMDL
