MODEL 1
REMARK VINA RESULT:      -6.4      0.000      0.000
REMARK  Name = 
REMARK  6 active torsions:
REMARK  status: ('A' for Active; 'I' for Inactive)
REMARK    1  A    between atoms: C_1  and  C_2
REMARK    2  A    between atoms: C_2  and  O_3
REMARK    3  A    between atoms: O_3  and  C_4
REMARK    4  A    between atoms: C_10  and  C_11
REMARK    5  A    between atoms: C_14  and  O_15
REMARK    6  A    between atoms: O_15  and  C_16
REMARK                            x       y       z     vdW  Elec       q    Type
REMARK                         _______ _______ _______ _____ _____    ______ ____
ROOT
ATOM      1  C   UNL     1       4.605   2.054  20.527  0.00  0.00    +0.000 C 
ATOM      2  O   UNL     1       3.689   2.311  21.292  0.00  0.00    +0.000 OA
ATOM      3  N   UNL     1       4.979   2.732  19.410  0.00  0.00    +0.000 N 
ATOM      4  C   UNL     1       4.466   3.929  18.984  0.00  0.00    +0.000 A 
ATOM      5  N   UNL     1       4.815   4.502  17.854  0.00  0.00    +0.000 NA
ATOM      6  N   UNL     1       4.172   5.716  17.670  0.00  0.00    +0.000 NA
ATOM      7  C   UNL     1       3.411   6.041  18.698  0.00  0.00    +0.000 A 
ATOM      8  S   UNL     1       3.372   4.836  19.918  0.00  0.00    +0.000 S 
ATOM      9  H   UNL     1       5.718   2.337  18.847  0.00  0.00    +0.000 HD
ENDROOT
BRANCH   7  10
ATOM     10  C   UNL     1       2.625   7.273  18.823  0.00  0.00    +0.000 A 
ATOM     11  C   UNL     1       1.973   7.556  20.029  0.00  0.00    +0.000 A 
ATOM     12  C   UNL     1       1.201   8.714  20.167  0.00  0.00    +0.000 A 
ATOM     13  C   UNL     1       1.076   9.614  19.108  0.00  0.00    +0.000 A 
ATOM     14  C   UNL     1       1.712   9.341  17.899  0.00  0.00    +0.000 A 
ATOM     15  C   UNL     1       2.480   8.180  17.759  0.00  0.00    +0.000 A 
BRANCH  13  16
ATOM     16  O   UNL     1       0.276  10.696  19.355  0.00  0.00    +0.000 OA
ATOM     17  C   UNL     1      -0.481  10.645  20.559  0.00  0.00    +0.000 C 
ENDBRANCH  13  16
ENDBRANCH   7  10
BRANCH   1  18
ATOM     18  O   UNL     1       5.455   1.003  20.707  0.00  0.00    +0.000 OA
BRANCH  18  20
ATOM     19  C   UNL     1       6.613  -0.552  22.136  0.00  0.00    +0.000 C 
ATOM     20  C   UNL     1       5.656   0.627  22.078  0.00  0.00    +0.000 C 
ENDBRANCH  18  20
ENDBRANCH   1  18
TORSDOF 4
ENDMDL
MODEL 2
REMARK VINA RESULT:      -6.4      3.754      4.649
REMARK  Name = 
REMARK  6 active torsions:
REMARK  status: ('A' for Active; 'I' for Inactive)
REMARK    1  A    between atoms: C_1  and  C_2
REMARK    2  A    between atoms: C_2  and  O_3
REMARK    3  A    between atoms: O_3  and  C_4
REMARK    4  A    between atoms: C_10  and  C_11
REMARK    5  A    between atoms: C_14  and  O_15
REMARK    6  A    between atoms: O_15  and  C_16
REMARK                            x       y       z     vdW  Elec       q    Type
REMARK                         _______ _______ _______ _____ _____    ______ ____
ROOT
ATOM      1  C   UNL     1       6.180   4.930  15.437  0.00  0.00    +0.000 C 
ATOM      2  O   UNL     1       6.510   6.105  15.461  0.00  0.00    +0.000 OA
ATOM      3  N   UNL     1       5.217   4.314  16.172  0.00  0.00    +0.000 N 
ATOM      4  C   UNL     1       4.329   4.930  17.015  0.00  0.00    +0.000 A 
ATOM      5  N   UNL     1       3.467   4.275  17.759  0.00  0.00    +0.000 NA
ATOM      6  N   UNL     1       2.667   5.131  18.499  0.00  0.00    +0.000 NA
ATOM      7  C   UNL     1       2.914   6.401  18.237  0.00  0.00    +0.000 A 
ATOM      8  S   UNL     1       4.204   6.623  17.127  0.00  0.00    +0.000 S 
ATOM      9  H   UNL     1       5.125   3.314  16.080  0.00  0.00    +0.000 HD
ENDROOT
BRANCH   7  10
ATOM     10  C   UNL     1       2.220   7.547  18.831  0.00  0.00    +0.000 A 
ATOM     11  C   UNL     1       1.944   8.671  18.044  0.00  0.00    +0.000 A 
ATOM     12  C   UNL     1       1.300   9.785  18.593  0.00  0.00    +0.000 A 
ATOM     13  C   UNL     1       0.912   9.792  19.933  0.00  0.00    +0.000 A 
ATOM     14  C   UNL     1       1.188   8.684  20.731  0.00  0.00    +0.000 A 
ATOM     15  C   UNL     1       1.837   7.571  20.183  0.00  0.00    +0.000 A 
BRANCH  13  16
ATOM     16  O   UNL     1       0.314  10.946  20.359  0.00  0.00    +0.000 OA
ATOM     17  C   UNL     1       0.240  11.997  19.403  0.00  0.00    +0.000 C 
ENDBRANCH  13  16
ENDBRANCH   7  10
BRANCH   1  18
ATOM     18  O   UNL     1       6.744   4.014  14.598  0.00  0.00    +0.000 OA
BRANCH  18  20
ATOM     19  C   UNL     1       6.886   3.945  12.195  0.00  0.00    +0.000 C 
ATOM     20  C   UNL     1       5.988   3.753  13.405  0.00  0.00    +0.000 C 
ENDBRANCH  18  20
ENDBRANCH   1  18
TORSDOF 4
ENDMDL
MODEL 3
REMARK VINA RESULT:      -6.3      3.804      4.377
REMARK  Name = 
REMARK  6 active torsions:
REMARK  status: ('A' for Active; 'I' for Inactive)
REMARK    1  A    between atoms: C_1  and  C_2
REMARK    2  A    between atoms: C_2  and  O_3
REMARK    3  A    between atoms: O_3  and  C_4
REMARK    4  A    between atoms: C_10  and  C_11
REMARK    5  A    between atoms: C_14  and  O_15
REMARK    6  A    between atoms: O_15  and  C_16
REMARK                            x       y       z     vdW  Elec       q    Type
REMARK                         _______ _______ _______ _____ _____    ______ ____
ROOT
ATOM      1  C   UNL     1       6.391   5.233  15.855  0.00  0.00    +0.000 C 
ATOM      2  O   UNL     1       6.819   6.356  16.074  0.00  0.00    +0.000 OA
ATOM      3  N   UNL     1       5.255   4.660  16.333  0.00  0.00    +0.000 N 
ATOM      4  C   UNL     1       4.287   5.286  17.073  0.00  0.00    +0.000 A 
ATOM      5  N   UNL     1       3.244   4.663  17.573  0.00  0.00    +0.000 NA
ATOM      6  N   UNL     1       2.403   5.526  18.256  0.00  0.00    +0.000 NA
ATOM      7  C   UNL     1       2.812   6.780  18.192  0.00  0.00    +0.000 A 
ATOM      8  S   UNL     1       4.301   6.964  17.359  0.00  0.00    +0.000 S 
ATOM      9  H   UNL     1       5.090   3.691  16.110  0.00  0.00    +0.000 HD
ENDROOT
BRANCH   7  10
ATOM     10  C   UNL     1       2.128   7.933  18.785  0.00  0.00    +0.000 A 
ATOM     11  C   UNL     1       1.762   7.899  20.136  0.00  0.00    +0.000 A 
ATOM     12  C   UNL     1       1.090   8.978  20.720  0.00  0.00    +0.000 A 
ATOM     13  C   UNL     1       0.783  10.113  19.969  0.00  0.00    +0.000 A 
ATOM     14  C   UNL     1       1.132  10.157  18.622  0.00  0.00    +0.000 A 
ATOM     15  C   UNL     1       1.800   9.075  18.036  0.00  0.00    +0.000 A 
BRANCH  13  16
ATOM     16  O   UNL     1       0.104  11.090  20.644  0.00  0.00    +0.000 OA
ATOM     17  C   UNL     1      -1.198  11.392  20.156  0.00  0.00    +0.000 C 
ENDBRANCH  13  16
ENDBRANCH   7  10
BRANCH   1  18
ATOM     18  O   UNL     1       7.014   4.346  15.026  0.00  0.00    +0.000 OA
BRANCH  18  20
ATOM     19  C   UNL     1       6.601   3.996  12.680  0.00  0.00    +0.000 C 
ATOM     20  C   UNL     1       6.142   3.687  14.094  0.00  0.00    +0.000 C 
ENDBRANCH  18  20
ENDBRANCH   1  18
TORSDOF 4
ENDMDL
MODEL 4
REMARK VINA RESULT:      -6.3      3.820      4.821
REMARK  Name = 
REMARK  6 active torsions:
REMARK  status: ('A' for Active; 'I' for Inactive)
REMARK    1  A    between atoms: C_1  and  C_2
REMARK    2  A    between atoms: C_2  and  O_3
REMARK    3  A    between atoms: O_3  and  C_4
REMARK    4  A    between atoms: C_10  and  C_11
REMARK    5  A    between atoms: C_14  and  O_15
REMARK    6  A    between atoms: O_15  and  C_16
REMARK                            x       y       z     vdW  Elec       q    Type
REMARK                         _______ _______ _______ _____ _____    ______ ____
ROOT
ATOM      1  C   UNL     1       6.235   4.354  14.642  0.00  0.00    +0.000 C 
ATOM      2  O   UNL     1       6.346   5.563  14.513  0.00  0.00    +0.000 OA
ATOM      3  N   UNL     1       5.597   3.670  15.628  0.00  0.00    +0.000 N 
ATOM      4  C   UNL     1       4.835   4.220  16.626  0.00  0.00    +0.000 A 
ATOM      5  N   UNL     1       4.302   3.515  17.598  0.00  0.00    +0.000 NA
ATOM      6  N   UNL     1       3.557   4.303  18.461  0.00  0.00    +0.000 NA
ATOM      7  C   UNL     1       3.506   5.564  18.071  0.00  0.00    +0.000 A 
ATOM      8  S   UNL     1       4.439   5.874  16.665  0.00  0.00    +0.000 S 
ATOM      9  H   UNL     1       5.666   2.664  15.622  0.00  0.00    +0.000 HD
ENDROOT
BRANCH   7  10
ATOM     10  C   UNL     1       2.776   6.639  18.749  0.00  0.00    +0.000 A 
ATOM     11  C   UNL     1       2.302   6.438  20.051  0.00  0.00    +0.000 A 
ATOM     12  C   UNL     1       1.586   7.441  20.711  0.00  0.00    +0.000 A 
ATOM     13  C   UNL     1       1.339   8.665  20.088  0.00  0.00    +0.000 A 
ATOM     14  C   UNL     1       1.795   8.875  18.790  0.00  0.00    +0.000 A 
ATOM     15  C   UNL     1       2.508   7.870  18.126  0.00  0.00    +0.000 A 
BRANCH  13  16
ATOM     16  O   UNL     1       0.608   9.555  20.825  0.00  0.00    +0.000 OA
ATOM     17  C   UNL     1      -0.205   8.994  21.850  0.00  0.00    +0.000 C 
ENDBRANCH  13  16
ENDBRANCH   7  10
BRANCH   1  18
ATOM     18  O   UNL     1       6.741   3.458  13.746  0.00  0.00    +0.000 OA
BRANCH  18  20
ATOM     19  C   UNL     1       5.167   3.212  11.940  0.00  0.00    +0.000 C 
ATOM     20  C   UNL     1       6.503   3.793  12.370  0.00  0.00    +0.000 C 
ENDBRANCH  18  20
ENDBRANCH   1  18
TORSDOF 4
ENDMDL
MODEL 5
REMARK VINA RESULT:      -6.2      3.916      7.453
REMARK  Name = 
REMARK  6 active torsions:
REMARK  status: ('A' for Active; 'I' for Inactive)
REMARK    1  A    between atoms: C_1  and  C_2
REMARK    2  A    between atoms: C_2  and  O_3
REMARK    3  A    between atoms: O_3  and  C_4
REMARK    4  A    between atoms: C_10  and  C_11
REMARK    5  A    between atoms: C_14  and  O_15
REMARK    6  A    between atoms: O_15  and  C_16
REMARK                            x       y       z     vdW  Elec       q    Type
REMARK                         _______ _______ _______ _____ _____    ______ ____
ROOT
ATOM      1  C   UNL     1       1.113   9.075  20.062  0.00  0.00    +0.000 C 
ATOM      2  O   UNL     1       1.104   9.503  18.918  0.00  0.00    +0.000 OA
ATOM      3  N   UNL     1       1.640   7.907  20.516  0.00  0.00    +0.000 N 
ATOM      4  C   UNL     1       2.386   7.021  19.784  0.00  0.00    +0.000 A 
ATOM      5  N   UNL     1       2.807   5.869  20.256  0.00  0.00    +0.000 NA
ATOM      6  N   UNL     1       3.562   5.173  19.326  0.00  0.00    +0.000 NA
ATOM      7  C   UNL     1       3.733   5.855  18.208  0.00  0.00    +0.000 A 
ATOM      8  S   UNL     1       2.907   7.359  18.200  0.00  0.00    +0.000 S 
ATOM      9  H   UNL     1       1.493   7.673  21.486  0.00  0.00    +0.000 HD
ENDROOT
BRANCH   7  10
ATOM     10  C   UNL     1       4.506   5.409  17.045  0.00  0.00    +0.000 A 
ATOM     11  C   UNL     1       5.064   6.358  16.181  0.00  0.00    +0.000 A 
ATOM     12  C   UNL     1       5.788   5.957  15.054  0.00  0.00    +0.000 A 
ATOM     13  C   UNL     1       5.976   4.603  14.775  0.00  0.00    +0.000 A 
ATOM     14  C   UNL     1       5.418   3.647  15.620  0.00  0.00    +0.000 A 
ATOM     15  C   UNL     1       4.689   4.048  16.746  0.00  0.00    +0.000 A 
BRANCH  13  16
ATOM     16  O   UNL     1       6.680   4.336  13.632  0.00  0.00    +0.000 OA
ATOM     17  C   UNL     1       6.070   3.425  12.727  0.00  0.00    +0.000 C 
ENDBRANCH  13  16
ENDBRANCH   7  10
BRANCH   1  18
ATOM     18  O   UNL     1       0.589   9.759  21.119  0.00  0.00    +0.000 OA
BRANCH  18  20
ATOM     19  C   UNL     1      -0.218   9.570  23.380  0.00  0.00    +0.000 C 
ATOM     20  C   UNL     1       0.880   9.186  22.404  0.00  0.00    +0.000 C 
ENDBRANCH  18  20
ENDBRANCH   1  18
TORSDOF 4
ENDMDL
MODEL 6
REMARK VINA RESULT:      -6.2      3.700      4.612
REMARK  Name = 
REMARK  6 active torsions:
REMARK  status: ('A' for Active; 'I' for Inactive)
REMARK    1  A    between atoms: C_1  and  C_2
REMARK    2  A    between atoms: C_2  and  O_3
REMARK    3  A    between atoms: O_3  and  C_4
REMARK    4  A    between atoms: C_10  and  C_11
REMARK    5  A    between atoms: C_14  and  O_15
REMARK    6  A    between atoms: O_15  and  C_16
REMARK                            x       y       z     vdW  Elec       q    Type
REMARK                         _______ _______ _______ _____ _____    ______ ____
ROOT
ATOM      1  C   UNL     1       5.805   5.517  15.608  0.00  0.00    +0.000 C 
ATOM      2  O   UNL     1       5.590   6.664  15.247  0.00  0.00    +0.000 OA
ATOM      3  N   UNL     1       5.417   4.916  16.764  0.00  0.00    +0.000 N 
ATOM      4  C   UNL     1       4.589   5.453  17.714  0.00  0.00    +0.000 A 
ATOM      5  N   UNL     1       4.308   4.854  18.849  0.00  0.00    +0.000 NA
ATOM      6  N   UNL     1       3.427   5.595  19.621  0.00  0.00    +0.000 NA
ATOM      7  C   UNL     1       3.029   6.696  19.011  0.00  0.00    +0.000 A 
ATOM      8  S   UNL     1       3.778   6.931  17.485  0.00  0.00    +0.000 S 
ATOM      9  H   UNL     1       5.746   3.978  16.937  0.00  0.00    +0.000 HD
ENDROOT
BRANCH   7  10
ATOM     10  C   UNL     1       2.079   7.675  19.548  0.00  0.00    +0.000 A 
ATOM     11  C   UNL     1       1.707   8.776  18.768  0.00  0.00    +0.000 A 
ATOM     12  C   UNL     1       0.818   9.733  19.266  0.00  0.00    +0.000 A 
ATOM     13  C   UNL     1       0.277   9.603  20.545  0.00  0.00    +0.000 A 
ATOM     14  C   UNL     1       0.646   8.518  21.337  0.00  0.00    +0.000 A 
ATOM     15  C   UNL     1       1.540   7.562  20.841  0.00  0.00    +0.000 A 
BRANCH  13  16
ATOM     16  O   UNL     1      -0.560  10.615  20.929  0.00  0.00    +0.000 OA
ATOM     17  C   UNL     1      -0.566  10.924  22.317  0.00  0.00    +0.000 C 
ENDBRANCH  13  16
ENDBRANCH   7  10
BRANCH   1  18
ATOM     18  O   UNL     1       6.482   4.610  14.848  0.00  0.00    +0.000 OA
BRANCH  18  20
ATOM     19  C   UNL     1       6.462   3.715  12.612  0.00  0.00    +0.000 C 
ATOM     20  C   UNL     1       5.670   3.908  13.893  0.00  0.00    +0.000 C 
ENDBRANCH  18  20
ENDBRANCH   1  18
TORSDOF 4
ENDMDL
MODEL 7
REMARK VINA RESULT:      -6.2      0.517      1.219
REMARK  Name = 
REMARK  6 active torsions:
REMARK  status: ('A' for Active; 'I' for Inactive)
REMARK    1  A    between atoms: C_1  and  C_2
REMARK    2  A    between atoms: C_2  and  O_3
REMARK    3  A    between atoms: O_3  and  C_4
REMARK    4  A    between atoms: C_10  and  C_11
REMARK    5  A    between atoms: C_14  and  O_15
REMARK    6  A    between atoms: O_15  and  C_16
REMARK                            x       y       z     vdW  Elec       q    Type
REMARK                         _______ _______ _______ _____ _____    ______ ____
ROOT
ATOM      1  C   UNL     1       4.503   2.107  20.261  0.00  0.00    +0.000 C 
ATOM      2  O   UNL     1       3.400   2.190  20.779  0.00  0.00    +0.000 OA
ATOM      3  N   UNL     1       5.094   2.978  19.401  0.00  0.00    +0.000 N 
ATOM      4  C   UNL     1       4.606   4.206  19.036  0.00  0.00    +0.000 A 
ATOM      5  N   UNL     1       5.184   4.976  18.142  0.00  0.00    +0.000 NA
ATOM      6  N   UNL     1       4.507   6.173  17.975  0.00  0.00    +0.000 NA
ATOM      7  C   UNL     1       3.478   6.287  18.795  0.00  0.00    +0.000 A 
ATOM      8  S   UNL     1       3.230   4.893  19.764  0.00  0.00    +0.000 S 
ATOM      9  H   UNL     1       5.984   2.717  19.007  0.00  0.00    +0.000 HD
ENDROOT
BRANCH   7  10
ATOM     10  C   UNL     1       2.582   7.443  18.886  0.00  0.00    +0.000 A 
ATOM     11  C   UNL     1       2.396   8.262  17.766  0.00  0.00    +0.000 A 
ATOM     12  C   UNL     1       1.562   9.383  17.834  0.00  0.00    +0.000 A 
ATOM     13  C   UNL     1       0.891   9.698  19.016  0.00  0.00    +0.000 A 
ATOM     14  C   UNL     1       1.074   8.898  20.141  0.00  0.00    +0.000 A 
ATOM     15  C   UNL     1       1.912   7.779  20.075  0.00  0.00    +0.000 A 
BRANCH  13  16
ATOM     16  O   UNL     1       0.124  10.830  18.966  0.00  0.00    +0.000 OA
ATOM     17  C   UNL     1       0.460  11.850  19.899  0.00  0.00    +0.000 C 
ENDBRANCH  13  16
ENDBRANCH   7  10
BRANCH   1  18
ATOM     18  O   UNL     1       5.366   1.079  20.504  0.00  0.00    +0.000 OA
BRANCH  18  20
ATOM     19  C   UNL     1       6.402  -0.412  22.086  0.00  0.00    +0.000 C 
ATOM     20  C   UNL     1       5.772   0.954  21.876  0.00  0.00    +0.000 C 
ENDBRANCH  18  20
ENDBRANCH   1  18
TORSDOF 4
ENDMDL
MODEL 8
REMARK VINA RESULT:      -6.1      4.007      8.123
REMARK  Name = 
REMARK  6 active torsions:
REMARK  status: ('A' for Active; 'I' for Inactive)
REMARK    1  A    between atoms: C_1  and  C_2
REMARK    2  A    between atoms: C_2  and  O_3
REMARK    3  A    between atoms: O_3  and  C_4
REMARK    4  A    between atoms: C_10  and  C_11
REMARK    5  A    between atoms: C_14  and  O_15
REMARK    6  A    between atoms: O_15  and  C_16
REMARK                            x       y       z     vdW  Elec       q    Type
REMARK                         _______ _______ _______ _____ _____    ______ ____
ROOT
ATOM      1  C   UNL     1       0.279  10.720  21.660  0.00  0.00    +0.000 C 
ATOM      2  O   UNL     1       0.774   9.862  22.375  0.00  0.00    +0.000 OA
ATOM      3  N   UNL     1       0.438  10.889  20.321  0.00  0.00    +0.000 N 
ATOM      4  C   UNL     1       1.102  10.039  19.475  0.00  0.00    +0.000 A 
ATOM      5  N   UNL     1       1.288  10.291  18.199  0.00  0.00    +0.000 NA
ATOM      6  N   UNL     1       1.963   9.263  17.561  0.00  0.00    +0.000 NA
ATOM      7  C   UNL     1       2.205   8.246  18.367  0.00  0.00    +0.000 A 
ATOM      8  S   UNL     1       1.692   8.526  19.981  0.00  0.00    +0.000 S 
ATOM      9  H   UNL     1       0.014  11.699  19.897  0.00  0.00    +0.000 HD
ENDROOT
BRANCH   7  10
ATOM     10  C   UNL     1       2.874   6.997  17.991  0.00  0.00    +0.000 A 
ATOM     11  C   UNL     1       4.129   7.045  17.372  0.00  0.00    +0.000 A 
ATOM     12  C   UNL     1       4.777   5.868  16.985  0.00  0.00    +0.000 A 
ATOM     13  C   UNL     1       4.190   4.624  17.218  0.00  0.00    +0.000 A 
ATOM     14  C   UNL     1       2.938   4.561  17.823  0.00  0.00    +0.000 A 
ATOM     15  C   UNL     1       2.286   5.739  18.206  0.00  0.00    +0.000 A 
BRANCH  13  16
ATOM     16  O   UNL     1       4.910   3.549  16.772  0.00  0.00    +0.000 OA
ATOM     17  C   UNL     1       5.787   3.798  15.680  0.00  0.00    +0.000 C 
ENDBRANCH  13  16
ENDBRANCH   7  10
BRANCH   1  18
ATOM     18  O   UNL     1      -0.578  11.674  22.123  0.00  0.00    +0.000 OA
BRANCH  18  20
ATOM     19  C   UNL     1      -2.619  12.237  23.271  0.00  0.00    +0.000 C 
ATOM     20  C   UNL     1      -1.514  11.208  23.107  0.00  0.00    +0.000 C 
ENDBRANCH  18  20
ENDBRANCH   1  18
TORSDOF 4
ENDMDL
MODEL 9
REMARK VINA RESULT:      -6.1      3.625      4.459
REMARK  Name = 
REMARK  6 active torsions:
REMARK  status: ('A' for Active; 'I' for Inactive)
REMARK    1  A    between atoms: C_1  and  C_2
REMARK    2  A    between atoms: C_2  and  O_3
REMARK    3  A    between atoms: O_3  and  C_4
REMARK    4  A    between atoms: C_10  and  C_11
REMARK    5  A    between atoms: C_14  and  O_15
REMARK    6  A    between atoms: O_15  and  C_16
REMARK                            x       y       z     vdW  Elec       q    Type
REMARK                         _______ _______ _______ _____ _____    ______ ____
ROOT
ATOM      1  C   UNL     1       5.232   5.187  15.797  0.00  0.00    +0.000 C 
ATOM      2  O   UNL     1       5.364   6.379  15.567  0.00  0.00    +0.000 OA
ATOM      3  N   UNL     1       4.598   4.601  16.846  0.00  0.00    +0.000 N 
ATOM      4  C   UNL     1       3.863   5.246  17.805  0.00  0.00    +0.000 A 
ATOM      5  N   UNL     1       3.332   4.635  18.841  0.00  0.00    +0.000 NA
ATOM      6  N   UNL     1       2.616   5.506  19.645  0.00  0.00    +0.000 NA
ATOM      7  C   UNL     1       2.581   6.730  19.152  0.00  0.00    +0.000 A 
ATOM      8  S   UNL     1       3.498   6.905  17.712  0.00  0.00    +0.000 S 
ATOM      9  H   UNL     1       4.648   3.597  16.922  0.00  0.00    +0.000 HD
ENDROOT
BRANCH   7  10
ATOM     10  C   UNL     1       1.883   7.872  19.750  0.00  0.00    +0.000 A 
ATOM     11  C   UNL     1       1.610   7.874  21.123  0.00  0.00    +0.000 A 
ATOM     12  C   UNL     1       0.927   8.942  21.712  0.00  0.00    +0.000 A 
ATOM     13  C   UNL     1       0.513  10.031  20.944  0.00  0.00    +0.000 A 
ATOM     14  C   UNL     1       0.770  10.039  19.575  0.00  0.00    +0.000 A 
ATOM     15  C   UNL     1       1.449   8.968  18.984  0.00  0.00    +0.000 A 
BRANCH  13  16
ATOM     16  O   UNL     1      -0.166  11.002  21.628  0.00  0.00    +0.000 OA
ATOM     17  C   UNL     1      -0.795  10.585  22.834  0.00  0.00    +0.000 C 
ENDBRANCH  13  16
ENDBRANCH   7  10
BRANCH   1  18
ATOM     18  O   UNL     1       5.708   4.211  14.971  0.00  0.00    +0.000 OA
BRANCH  18  20
ATOM     19  C   UNL     1       6.640   3.846  12.781  0.00  0.00    +0.000 C 
ATOM     20  C   UNL     1       6.740   4.643  14.070  0.00  0.00    +0.000 C 
ENDBRANCH  18  20
ENDBRANCH   1  18
TORSDOF 4
ENDMDL
