MODEL 1
REMARK VINA RESULT:      -6.5      0.000      0.000
REMARK  Name = 
REMARK  23 active torsions:
REMARK  status: ('A' for Active; 'I' for Inactive)
REMARK    1  A    between atoms: C_1  and  C_2
REMARK    2  A    between atoms: C_2  and  C_3
REMARK    3  A    between atoms: C_3  and  C_4
REMARK    4  A    between atoms: C_4  and  C_5
REMARK    5  A    between atoms: C_5  and  C_6
REMARK    6  A    between atoms: C_6  and  C_7
REMARK    7  A    between atoms: C_7  and  C_8
REMARK    8  A    between atoms: C_8  and  C_9
REMARK    9  A    between atoms: C_9  and  C_10
REMARK   10  A    between atoms: C_10  and  C_11
REMARK   11  A    between atoms: C_11  and  C_12
REMARK   12  A    between atoms: N_14  and  C_15
REMARK   13  A    between atoms: C_15  and  C_16
REMARK   14  A    between atoms: C_20  and  O_21
REMARK   15  A    between atoms: C_23  and  C_24
REMARK   16  A    between atoms: N_26  and  CA_27
REMARK   17  A    between atoms: CA_27  and  CB_28
REMARK   18  A    between atoms: CA_27  and  C_33
REMARK   19  A    between atoms: CB_28  and  CG_29
REMARK   20  A    between atoms: CG_29  and  CD_30
REMARK   21  A    between atoms: CD_30  and  CE_31
REMARK   22  A    between atoms: CE_31  and  NZ_32
REMARK   23  A    between atoms: C_33  and  OXT_35
REMARK                            x       y       z     vdW  Elec       q    Type
REMARK                         _______ _______ _______ _____ _____    ______ ____
ROOT
ATOM      1  C   UNK A   0       7.203   5.301  18.876  0.00  0.00    +0.000 C 
ATOM      2  O   UNK A   0       7.037   5.089  20.069  0.00  0.00    +0.000 OA
ATOM      3  N   UNK A   0       6.519   4.567  17.874  0.00  0.00    +0.000 N 
ATOM      4  C   UNK A   0       6.785   4.760  16.459  0.00  0.00    +0.000 C 
ATOM      5  C   UNK A   0       5.412   5.006  15.849  0.00  0.00    +0.000 C 
ATOM      6  C   UNK A   0       4.468   4.126  16.656  0.00  0.00    +0.000 C 
ATOM      7  C   UNK A   0       5.200   3.878  18.021  0.00  0.00    +0.000 C 
ENDROOT
BRANCH   7   8
ATOM      8  C   UNK A   0       4.362   4.253  19.278  0.00  0.00    +0.000 C 
ATOM      9  O   UNK A   0       4.233   3.511  20.233  0.00  0.00    +0.000 OA
ATOM     10  N   LYS A   1       3.807   5.528  19.321  0.00  0.00    +0.000 N 
ATOM     11  H   LYS A   1       3.944   6.062  18.475  0.00  0.00    +0.000 HD
BRANCH  10  12
ATOM     12  CA  LYS A   1       2.841   6.102  20.312  0.00  0.00    +0.000 C 
BRANCH  12  13
ATOM     13  C   LYS A   1       2.021   7.342  19.839  0.00  0.00    +0.000 C 
ATOM     14  O   LYS A   1       1.389   8.102  20.565  0.00  0.00    +0.000 OA
BRANCH  13  15
ATOM     15  OXT LYS A   1       2.206   7.621  18.522  0.00  0.00    +0.000 OA
ATOM     16  HXT LYS A   1       3.145   7.509  18.245  0.00  0.00    +0.000 HD
ENDBRANCH  13  15
ENDBRANCH  12  13
BRANCH  12  17
ATOM     17  CB  LYS A   1       1.838   5.041  20.824  0.00  0.00    +0.000 C 
BRANCH  17  18
ATOM     18  CG  LYS A   1       0.807   4.397  19.908  0.00  0.00    +0.000 C 
BRANCH  18  19
ATOM     19  CD  LYS A   1       0.908   2.887  19.978  0.00  0.00    +0.000 C 
BRANCH  19  20
ATOM     20  CE  LYS A   1       1.230   2.342  18.602  0.00  0.00    +0.000 C 
BRANCH  20  21
ATOM     21  NZ  LYS A   1       2.357   1.426  18.668  0.00  0.00    +0.000 NA
ATOM     22  HZ1 LYS A   1       2.114   0.562  18.184  0.00  0.00    +0.000 HD
ATOM     23  HZ2 LYS A   1       2.505   1.175  19.644  0.00  0.00    +0.000 HD
ENDBRANCH  20  21
ENDBRANCH  19  20
ENDBRANCH  18  19
ENDBRANCH  17  18
ENDBRANCH  12  17
ENDBRANCH  10  12
ENDBRANCH   7   8
BRANCH   5  24
ATOM     24  O   UNK A   0       5.015   6.362  15.981  0.00  0.00    +0.000 OA
ATOM     25  H   UNK A   0       5.146   6.630  16.909  0.00  0.00    +0.000 HD
ENDBRANCH   5  24
BRANCH   1  26
ATOM     26  C   UNK A   0       8.223   6.397  18.357  0.00  0.00    +0.000 C 
BRANCH  26  29
ATOM     27  C   UNK A   0       8.079   8.831  17.969  0.00  0.00    +0.000 C 
ATOM     28  O   UNK A   0       7.472   8.656  16.953  0.00  0.00    +0.000 OA
ATOM     29  N   UNK A   0       8.480   7.778  18.809  0.00  0.00    +0.000 N 
ATOM     30  H   UNK A   0       9.247   7.926  19.447  0.00  0.00    +0.000 HD
BRANCH  27  31
ATOM     31  C   UNK A   0       8.499  10.233  18.444  0.00  0.00    +0.000 C 
BRANCH  31  32
ATOM     32  C   UNK A   0       9.486  10.234  19.634  0.00  0.00    +0.000 C 
BRANCH  32  33
ATOM     33  C   UNK A   0       9.994  11.646  19.921  0.00  0.00    +0.000 C 
BRANCH  33  34
ATOM     34  C   UNK A   0      11.485  11.830  19.643  0.00  0.00    +0.000 C 
BRANCH  34  35
ATOM     35  C   UNK A   0      11.764  11.710  18.141  0.00  0.00    +0.000 C 
BRANCH  35  36
ATOM     36  C   UNK A   0      10.982  12.751  17.345  0.00  0.00    +0.000 C 
BRANCH  36  37
ATOM     37  C   UNK A   0      11.718  14.088  17.326  0.00  0.00    +0.000 C 
BRANCH  37  38
ATOM     38  C   UNK A   0      10.730  15.247  17.237  0.00  0.00    +0.000 C 
BRANCH  38  39
ATOM     39  C   UNK A   0      10.770  16.100  18.502  0.00  0.00    +0.000 C 
BRANCH  39  41
ATOM     40  C   UNK A   0      10.926  15.384  20.898  0.00  0.00    +0.000 C 
ATOM     41  C   UNK A   0      10.055  15.401  19.654  0.00  0.00    +0.000 C 
ENDBRANCH  39  41
ENDBRANCH  38  39
ENDBRANCH  37  38
ENDBRANCH  36  37
ENDBRANCH  35  36
ENDBRANCH  34  35
ENDBRANCH  33  34
ENDBRANCH  32  33
ENDBRANCH  31  32
ENDBRANCH  27  31
ENDBRANCH  26  29
ENDBRANCH   1  26
TORSDOF 22
ENDMDL
MODEL 2
REMARK VINA RESULT:      -6.4      5.073      9.072
REMARK  Name = 
REMARK  23 active torsions:
REMARK  status: ('A' for Active; 'I' for Inactive)
REMARK    1  A    between atoms: C_1  and  C_2
REMARK    2  A    between atoms: C_2  and  C_3
REMARK    3  A    between atoms: C_3  and  C_4
REMARK    4  A    between atoms: C_4  and  C_5
REMARK    5  A    between atoms: C_5  and  C_6
REMARK    6  A    between atoms: C_6  and  C_7
REMARK    7  A    between atoms: C_7  and  C_8
REMARK    8  A    between atoms: C_8  and  C_9
REMARK    9  A    between atoms: C_9  and  C_10
REMARK   10  A    between atoms: C_10  and  C_11
REMARK   11  A    between atoms: C_11  and  C_12
REMARK   12  A    between atoms: N_14  and  C_15
REMARK   13  A    between atoms: C_15  and  C_16
REMARK   14  A    between atoms: C_20  and  O_21
REMARK   15  A    between atoms: C_23  and  C_24
REMARK   16  A    between atoms: N_26  and  CA_27
REMARK   17  A    between atoms: CA_27  and  CB_28
REMARK   18  A    between atoms: CA_27  and  C_33
REMARK   19  A    between atoms: CB_28  and  CG_29
REMARK   20  A    between atoms: CG_29  and  CD_30
REMARK   21  A    between atoms: CD_30  and  CE_31
REMARK   22  A    between atoms: CE_31  and  NZ_32
REMARK   23  A    between atoms: C_33  and  OXT_35
REMARK                            x       y       z     vdW  Elec       q    Type
REMARK                         _______ _______ _______ _____ _____    ______ ____
ROOT
ATOM      1  C   UNK A   0       2.091   6.261  20.112  0.00  0.00    +0.000 C 
ATOM      2  O   UNK A   0       2.886   6.972  19.515  0.00  0.00    +0.000 OA
ATOM      3  N   UNK A   0       1.979   4.870  19.858  0.00  0.00    +0.000 N 
ATOM      4  C   UNK A   0       0.971   4.046  20.504  0.00  0.00    +0.000 C 
ATOM      5  C   UNK A   0       1.760   2.889  21.102  0.00  0.00    +0.000 C 
ATOM      6  C   UNK A   0       2.884   2.633  20.108  0.00  0.00    +0.000 C 
ATOM      7  C   UNK A   0       3.049   3.977  19.316  0.00  0.00    +0.000 C 
ENDROOT
BRANCH   7   8
ATOM      8  C   UNK A   0       4.495   4.552  19.318  0.00  0.00    +0.000 C 
ATOM      9  O   UNK A   0       5.306   4.300  20.188  0.00  0.00    +0.000 OA
ATOM     10  N   LYS A   1       4.879   5.324  18.226  0.00  0.00    +0.000 N 
ATOM     11  H   LYS A   1       4.133   5.502  17.568  0.00  0.00    +0.000 HD
BRANCH  10  12
ATOM     12  CA  LYS A   1       6.132   6.123  18.031  0.00  0.00    +0.000 C 
BRANCH  12  13
ATOM     13  C   LYS A   1       7.467   5.421  18.431  0.00  0.00    +0.000 C 
ATOM     14  O   LYS A   1       7.897   4.375  17.956  0.00  0.00    +0.000 OA
BRANCH  13  15
ATOM     15  OXT LYS A   1       8.228   6.178  19.265  0.00  0.00    +0.000 OA
ATOM     16  HXT LYS A   1       8.839   5.630  19.812  0.00  0.00    +0.000 HD
ENDBRANCH  13  15
ENDBRANCH  12  13
BRANCH  12  17
ATOM     17  CB  LYS A   1       6.279   6.622  16.574  0.00  0.00    +0.000 C 
BRANCH  17  18
ATOM     18  CG  LYS A   1       5.591   5.925  15.409  0.00  0.00    +0.000 C 
BRANCH  18  19
ATOM     19  CD  LYS A   1       6.559   5.003  14.697  0.00  0.00    +0.000 C 
BRANCH  19  20
ATOM     20  CE  LYS A   1       5.828   3.756  14.249  0.00  0.00    +0.000 C 
BRANCH  20  21
ATOM     21  NZ  LYS A   1       6.289   3.338  12.936  0.00  0.00    +0.000 NA
ATOM     22  HZ1 LYS A   1       6.908   2.534  13.038  0.00  0.00    +0.000 HD
ATOM     23  HZ2 LYS A   1       6.857   4.088  12.546  0.00  0.00    +0.000 HD
ENDBRANCH  20  21
ENDBRANCH  19  20
ENDBRANCH  18  19
ENDBRANCH  17  18
ENDBRANCH  12  17
ENDBRANCH  10  12
ENDBRANCH   7   8
BRANCH   5  24
ATOM     24  O   UNK A   0       2.318   3.231  22.362  0.00  0.00    +0.000 OA
ATOM     25  H   UNK A   0       2.319   4.203  22.442  0.00  0.00    +0.000 HD
ENDBRANCH   5  24
BRANCH   1  26
ATOM     26  C   UNK A   0       1.096   6.849  21.197  0.00  0.00    +0.000 C 
BRANCH  26  29
ATOM     27  C   UNK A   0       0.760   9.177  21.947  0.00  0.00    +0.000 C 
ATOM     28  O   UNK A   0       1.822   9.176  22.499  0.00  0.00    +0.000 OA
ATOM     29  N   UNK A   0       0.285   8.081  21.207  0.00  0.00    +0.000 N 
ATOM     30  H   UNK A   0      -0.707   7.989  21.050  0.00  0.00    +0.000 HD
BRANCH  27  31
ATOM     31  C   UNK A   0      -0.202  10.376  22.018  0.00  0.00    +0.000 C 
BRANCH  31  32
ATOM     32  C   UNK A   0       0.291  11.633  21.267  0.00  0.00    +0.000 C 
BRANCH  32  33
ATOM     33  C   UNK A   0      -0.388  11.757  19.904  0.00  0.00    +0.000 C 
BRANCH  33  34
ATOM     34  C   UNK A   0       0.336  11.005  18.788  0.00  0.00    +0.000 C 
BRANCH  34  35
ATOM     35  C   UNK A   0      -0.674  10.287  17.888  0.00  0.00    +0.000 C 
BRANCH  35  36
ATOM     36  C   UNK A   0      -2.024  10.130  18.582  0.00  0.00    +0.000 C 
BRANCH  36  37
ATOM     37  C   UNK A   0      -3.105   9.721  17.585  0.00  0.00    +0.000 C 
BRANCH  37  38
ATOM     38  C   UNK A   0      -3.821  10.948  17.030  0.00  0.00    +0.000 C 
BRANCH  38  39
ATOM     39  C   UNK A   0      -3.397  11.227  15.590  0.00  0.00    +0.000 C 
BRANCH  39  41
ATOM     40  C   UNK A   0      -3.512   9.880  13.481  0.00  0.00    +0.000 C 
ATOM     41  C   UNK A   0      -2.956   9.944  14.893  0.00  0.00    +0.000 C 
ENDBRANCH  39  41
ENDBRANCH  38  39
ENDBRANCH  37  38
ENDBRANCH  36  37
ENDBRANCH  35  36
ENDBRANCH  34  35
ENDBRANCH  33  34
ENDBRANCH  32  33
ENDBRANCH  31  32
ENDBRANCH  27  31
ENDBRANCH  26  29
ENDBRANCH   1  26
TORSDOF 22
ENDMDL
MODEL 3
REMARK VINA RESULT:      -6.4      1.806      2.212
REMARK  Name = 
REMARK  23 active torsions:
REMARK  status: ('A' for Active; 'I' for Inactive)
REMARK    1  A    between atoms: C_1  and  C_2
REMARK    2  A    between atoms: C_2  and  C_3
REMARK    3  A    between atoms: C_3  and  C_4
REMARK    4  A    between atoms: C_4  and  C_5
REMARK    5  A    between atoms: C_5  and  C_6
REMARK    6  A    between atoms: C_6  and  C_7
REMARK    7  A    between atoms: C_7  and  C_8
REMARK    8  A    between atoms: C_8  and  C_9
REMARK    9  A    between atoms: C_9  and  C_10
REMARK   10  A    between atoms: C_10  and  C_11
REMARK   11  A    between atoms: C_11  and  C_12
REMARK   12  A    between atoms: N_14  and  C_15
REMARK   13  A    between atoms: C_15  and  C_16
REMARK   14  A    between atoms: C_20  and  O_21
REMARK   15  A    between atoms: C_23  and  C_24
REMARK   16  A    between atoms: N_26  and  CA_27
REMARK   17  A    between atoms: CA_27  and  CB_28
REMARK   18  A    between atoms: CA_27  and  C_33
REMARK   19  A    between atoms: CB_28  and  CG_29
REMARK   20  A    between atoms: CG_29  and  CD_30
REMARK   21  A    between atoms: CD_30  and  CE_31
REMARK   22  A    between atoms: CE_31  and  NZ_32
REMARK   23  A    between atoms: C_33  and  OXT_35
REMARK                            x       y       z     vdW  Elec       q    Type
REMARK                         _______ _______ _______ _____ _____    ______ ____
ROOT
ATOM      1  C   UNK A   0       7.305   5.875  18.697  0.00  0.00    +0.000 C 
ATOM      2  O   UNK A   0       7.136   5.559  19.865  0.00  0.00    +0.000 OA
ATOM      3  N   UNK A   0       6.802   5.100  17.621  0.00  0.00    +0.000 N 
ATOM      4  C   UNK A   0       7.082   5.429  16.234  0.00  0.00    +0.000 C 
ATOM      5  C   UNK A   0       5.711   5.468  15.573  0.00  0.00    +0.000 C 
ATOM      6  C   UNK A   0       4.911   4.383  16.282  0.00  0.00    +0.000 C 
ATOM      7  C   UNK A   0       5.624   4.180  17.664  0.00  0.00    +0.000 C 
ENDROOT
BRANCH   7   8
ATOM      8  C   UNK A   0       4.685   4.316  18.898  0.00  0.00    +0.000 C 
ATOM      9  O   UNK A   0       4.635   3.487  19.786  0.00  0.00    +0.000 OA
ATOM     10  N   LYS A   1       3.936   5.484  19.007  0.00  0.00    +0.000 N 
ATOM     11  H   LYS A   1       4.022   6.101  18.212  0.00  0.00    +0.000 HD
BRANCH  10  12
ATOM     12  CA  LYS A   1       2.852   5.819  19.985  0.00  0.00    +0.000 C 
BRANCH  12  13
ATOM     13  C   LYS A   1       2.178   7.217  19.817  0.00  0.00    +0.000 C 
ATOM     14  O   LYS A   1       1.605   7.846  20.700  0.00  0.00    +0.000 OA
BRANCH  13  15
ATOM     15  OXT LYS A   1       2.430   7.778  18.605  0.00  0.00    +0.000 OA
ATOM     16  HXT LYS A   1       2.064   8.691  18.533  0.00  0.00    +0.000 HD
ENDBRANCH  13  15
ENDBRANCH  12  13
BRANCH  12  17
ATOM     17  CB  LYS A   1       1.730   4.753  19.994  0.00  0.00    +0.000 C 
BRANCH  17  18
ATOM     18  CG  LYS A   1       1.294   4.031  18.727  0.00  0.00    +0.000 C 
BRANCH  18  19
ATOM     19  CD  LYS A   1       0.804   2.636  19.056  0.00  0.00    +0.000 C 
BRANCH  19  20
ATOM     20  CE  LYS A   1       1.937   1.649  18.867  0.00  0.00    +0.000 C 
BRANCH  20  21
ATOM     21  NZ  LYS A   1       2.597   1.868  17.591  0.00  0.00    +0.000 NA
ATOM     22  HZ1 LYS A   1       2.191   1.244  16.893  0.00  0.00    +0.000 HD
ATOM     23  HZ2 LYS A   1       3.573   1.591  17.687  0.00  0.00    +0.000 HD
ENDBRANCH  20  21
ENDBRANCH  19  20
ENDBRANCH  18  19
ENDBRANCH  17  18
ENDBRANCH  12  17
ENDBRANCH  10  12
ENDBRANCH   7   8
BRANCH   5  24
ATOM     24  O   UNK A   0       5.072   6.721  15.764  0.00  0.00    +0.000 OA
ATOM     25  H   UNK A   0       4.351   6.602  16.410  0.00  0.00    +0.000 HD
ENDBRANCH   5  24
BRANCH   1  26
ATOM     26  C   UNK A   0       8.130   7.167  18.292  0.00  0.00    +0.000 C 
BRANCH  26  29
ATOM     27  C   UNK A   0       8.715   9.537  18.659  0.00  0.00    +0.000 C 
ATOM     28  O   UNK A   0       8.108   9.862  17.680  0.00  0.00    +0.000 OA
ATOM     29  N   UNK A   0       8.770   8.210  19.116  0.00  0.00    +0.000 N 
ATOM     30  H   UNK A   0       9.531   7.930  19.716  0.00  0.00    +0.000 HD
BRANCH  27  31
ATOM     31  C   UNK A   0       9.516  10.546  19.500  0.00  0.00    +0.000 C 
BRANCH  31  32
ATOM     32  C   UNK A   0      10.544  11.374  18.695  0.00  0.00    +0.000 C 
BRANCH  32  33
ATOM     33  C   UNK A   0      11.280  12.360  19.601  0.00  0.00    +0.000 C 
BRANCH  33  34
ATOM     34  C   UNK A   0      11.249  13.800  19.091  0.00  0.00    +0.000 C 
BRANCH  34  35
ATOM     35  C   UNK A   0      10.167  13.962  18.019  0.00  0.00    +0.000 C 
BRANCH  35  36
ATOM     36  C   UNK A   0       9.920  15.432  17.694  0.00  0.00    +0.000 C 
BRANCH  36  37
ATOM     37  C   UNK A   0       8.473  15.819  17.985  0.00  0.00    +0.000 C 
BRANCH  37  38
ATOM     38  C   UNK A   0       7.741  14.684  18.693  0.00  0.00    +0.000 C 
BRANCH  38  39
ATOM     39  C   UNK A   0       6.292  15.063  18.986  0.00  0.00    +0.000 C 
BRANCH  39  41
ATOM     40  C   UNK A   0       4.149  15.482  17.757  0.00  0.00    +0.000 C 
ATOM     41  C   UNK A   0       5.366  14.581  17.874  0.00  0.00    +0.000 C 
ENDBRANCH  39  41
ENDBRANCH  38  39
ENDBRANCH  37  38
ENDBRANCH  36  37
ENDBRANCH  35  36
ENDBRANCH  34  35
ENDBRANCH  33  34
ENDBRANCH  32  33
ENDBRANCH  31  32
ENDBRANCH  27  31
ENDBRANCH  26  29
ENDBRANCH   1  26
TORSDOF 22
ENDMDL
MODEL 4
REMARK VINA RESULT:      -6.3      5.201      8.503
REMARK  Name = 
REMARK  23 active torsions:
REMARK  status: ('A' for Active; 'I' for Inactive)
REMARK    1  A    between atoms: C_1  and  C_2
REMARK    2  A    between atoms: C_2  and  C_3
REMARK    3  A    between atoms: C_3  and  C_4
REMARK    4  A    between atoms: C_4  and  C_5
REMARK    5  A    between atoms: C_5  and  C_6
REMARK    6  A    between atoms: C_6  and  C_7
REMARK    7  A    between atoms: C_7  and  C_8
REMARK    8  A    between atoms: C_8  and  C_9
REMARK    9  A    between atoms: C_9  and  C_10
REMARK   10  A    between atoms: C_10  and  C_11
REMARK   11  A    between atoms: C_11  and  C_12
REMARK   12  A    between atoms: N_14  and  C_15
REMARK   13  A    between atoms: C_15  and  C_16
REMARK   14  A    between atoms: C_20  and  O_21
REMARK   15  A    between atoms: C_23  and  C_24
REMARK   16  A    between atoms: N_26  and  CA_27
REMARK   17  A    between atoms: CA_27  and  CB_28
REMARK   18  A    between atoms: CA_27  and  C_33
REMARK   19  A    between atoms: CB_28  and  CG_29
REMARK   20  A    between atoms: CG_29  and  CD_30
REMARK   21  A    between atoms: CD_30  and  CE_31
REMARK   22  A    between atoms: CE_31  and  NZ_32
REMARK   23  A    between atoms: C_33  and  OXT_35
REMARK                            x       y       z     vdW  Elec       q    Type
REMARK                         _______ _______ _______ _____ _____    ______ ____
ROOT
ATOM      1  C   UNK A   0       2.276   6.005  19.712  0.00  0.00    +0.000 C 
ATOM      2  O   UNK A   0       3.032   6.620  18.973  0.00  0.00    +0.000 OA
ATOM      3  N   UNK A   0       2.028   4.618  19.559  0.00  0.00    +0.000 N 
ATOM      4  C   UNK A   0       1.061   3.910  20.381  0.00  0.00    +0.000 C 
ATOM      5  C   UNK A   0       1.837   2.723  20.936  0.00  0.00    +0.000 C 
ATOM      6  C   UNK A   0       2.791   2.329  19.817  0.00  0.00    +0.000 C 
ATOM      7  C   UNK A   0       2.944   3.616  18.932  0.00  0.00    +0.000 C 
ENDROOT
BRANCH   7   8
ATOM      8  C   UNK A   0       4.415   4.070  18.707  0.00  0.00    +0.000 C 
ATOM      9  O   UNK A   0       5.311   3.825  19.491  0.00  0.00    +0.000 OA
ATOM     10  N   LYS A   1       4.709   4.719  17.511  0.00  0.00    +0.000 N 
ATOM     11  H   LYS A   1       3.900   4.902  16.935  0.00  0.00    +0.000 HD
BRANCH  10  12
ATOM     12  CA  LYS A   1       5.980   5.395  17.095  0.00  0.00    +0.000 C 
BRANCH  12  13
ATOM     13  C   LYS A   1       7.306   4.742  17.595  0.00  0.00    +0.000 C 
ATOM     14  O   LYS A   1       8.098   4.110  16.903  0.00  0.00    +0.000 OA
BRANCH  13  15
ATOM     15  OXT LYS A   1       7.608   5.083  18.875  0.00  0.00    +0.000 OA
ATOM     16  HXT LYS A   1       7.059   4.593  19.531  0.00  0.00    +0.000 HD
ENDBRANCH  13  15
ENDBRANCH  12  13
BRANCH  12  17
ATOM     17  CB  LYS A   1       6.078   5.545  15.558  0.00  0.00    +0.000 C 
BRANCH  17  18
ATOM     18  CG  LYS A   1       5.654   4.433  14.610  0.00  0.00    +0.000 C 
BRANCH  18  19
ATOM     19  CD  LYS A   1       6.765   4.121  13.629  0.00  0.00    +0.000 C 
BRANCH  19  20
ATOM     20  CE  LYS A   1       6.163   3.730  12.296  0.00  0.00    +0.000 C 
BRANCH  20  21
ATOM     21  NZ  LYS A   1       6.015   2.288  12.206  0.00  0.00    +0.000 NA
ATOM     22  HZ1 LYS A   1       6.197   1.875  13.121  0.00  0.00    +0.000 HD
ATOM     23  HZ2 LYS A   1       6.740   1.932  11.585  0.00  0.00    +0.000 HD
ENDBRANCH  20  21
ENDBRANCH  19  20
ENDBRANCH  18  19
ENDBRANCH  17  18
ENDBRANCH  12  17
ENDBRANCH  10  12
ENDBRANCH   7   8
BRANCH   5  24
ATOM     24  O   UNK A   0       2.587   3.079  22.087  0.00  0.00    +0.000 OA
ATOM     25  H   UNK A   0       2.236   2.580  22.847  0.00  0.00    +0.000 HD
ENDBRANCH   5  24
BRANCH   1  26
ATOM     26  C   UNK A   0       1.487   6.724  20.884  0.00  0.00    +0.000 C 
BRANCH  26  29
ATOM     27  C   UNK A   0       0.309   8.710  21.760  0.00  0.00    +0.000 C 
ATOM     28  O   UNK A   0      -0.726   8.110  21.790  0.00  0.00    +0.000 OA
ATOM     29  N   UNK A   0       1.522   8.117  21.369  0.00  0.00    +0.000 N 
ATOM     30  H   UNK A   0       2.272   8.707  21.042  0.00  0.00    +0.000 HD
BRANCH  27  31
ATOM     31  C   UNK A   0       0.406  10.201  22.125  0.00  0.00    +0.000 C 
BRANCH  31  32
ATOM     32  C   UNK A   0      -0.820  11.042  21.699  0.00  0.00    +0.000 C 
BRANCH  32  33
ATOM     33  C   UNK A   0      -1.510  11.656  22.916  0.00  0.00    +0.000 C 
BRANCH  33  34
ATOM     34  C   UNK A   0      -2.232  12.968  22.613  0.00  0.00    +0.000 C 
BRANCH  34  35
ATOM     35  C   UNK A   0      -2.171  13.901  23.827  0.00  0.00    +0.000 C 
BRANCH  35  36
ATOM     36  C   UNK A   0      -1.043  14.919  23.692  0.00  0.00    +0.000 C 
BRANCH  36  37
ATOM     37  C   UNK A   0      -0.809  15.281  22.227  0.00  0.00    +0.000 C 
BRANCH  37  38
ATOM     38  C   UNK A   0       0.683  15.378  21.925  0.00  0.00    +0.000 C 
BRANCH  38  39
ATOM     39  C   UNK A   0       1.214  14.066  21.356  0.00  0.00    +0.000 C 
BRANCH  39  41
ATOM     40  C   UNK A   0       1.159  14.991  19.029  0.00  0.00    +0.000 C 
ATOM     41  C   UNK A   0       0.720  13.849  19.930  0.00  0.00    +0.000 C 
ENDBRANCH  39  41
ENDBRANCH  38  39
ENDBRANCH  37  38
ENDBRANCH  36  37
ENDBRANCH  35  36
ENDBRANCH  34  35
ENDBRANCH  33  34
ENDBRANCH  32  33
ENDBRANCH  31  32
ENDBRANCH  27  31
ENDBRANCH  26  29
ENDBRANCH   1  26
TORSDOF 22
ENDMDL
MODEL 5
REMARK VINA RESULT:      -6.3      4.834      9.366
REMARK  Name = 
REMARK  23 active torsions:
REMARK  status: ('A' for Active; 'I' for Inactive)
REMARK    1  A    between atoms: C_1  and  C_2
REMARK    2  A    between atoms: C_2  and  C_3
REMARK    3  A    between atoms: C_3  and  C_4
REMARK    4  A    between atoms: C_4  and  C_5
REMARK    5  A    between atoms: C_5  and  C_6
REMARK    6  A    between atoms: C_6  and  C_7
REMARK    7  A    between atoms: C_7  and  C_8
REMARK    8  A    between atoms: C_8  and  C_9
REMARK    9  A    between atoms: C_9  and  C_10
REMARK   10  A    between atoms: C_10  and  C_11
REMARK   11  A    between atoms: C_11  and  C_12
REMARK   12  A    between atoms: N_14  and  C_15
REMARK   13  A    between atoms: C_15  and  C_16
REMARK   14  A    between atoms: C_20  and  O_21
REMARK   15  A    between atoms: C_23  and  C_24
REMARK   16  A    between atoms: N_26  and  CA_27
REMARK   17  A    between atoms: CA_27  and  CB_28
REMARK   18  A    between atoms: CA_27  and  C_33
REMARK   19  A    between atoms: CB_28  and  CG_29
REMARK   20  A    between atoms: CG_29  and  CD_30
REMARK   21  A    between atoms: CD_30  and  CE_31
REMARK   22  A    between atoms: CE_31  and  NZ_32
REMARK   23  A    between atoms: C_33  and  OXT_35
REMARK                            x       y       z     vdW  Elec       q    Type
REMARK                         _______ _______ _______ _____ _____    ______ ____
ROOT
ATOM      1  C   UNK A   0       2.995   5.923  18.229  0.00  0.00    +0.000 C 
ATOM      2  O   UNK A   0       3.946   6.282  17.550  0.00  0.00    +0.000 OA
ATOM      3  N   UNK A   0       2.276   4.732  17.957  0.00  0.00    +0.000 N 
ATOM      4  C   UNK A   0       1.092   4.354  18.710  0.00  0.00    +0.000 C 
ATOM      5  C   UNK A   0       1.376   2.929  19.166  0.00  0.00    +0.000 C 
ATOM      6  C   UNK A   0       2.167   2.309  18.023  0.00  0.00    +0.000 C 
ATOM      7  C   UNK A   0       2.798   3.521  17.252  0.00  0.00    +0.000 C 
ENDROOT
BRANCH   7   8
ATOM      8  C   UNK A   0       4.342   3.436  17.075  0.00  0.00    +0.000 C 
ATOM      9  O   UNK A   0       5.081   2.970  17.921  0.00  0.00    +0.000 OA
ATOM     10  N   LYS A   1       4.871   3.849  15.856  0.00  0.00    +0.000 N 
ATOM     11  H   LYS A   1       4.187   4.244  15.226  0.00  0.00    +0.000 HD
BRANCH  10  12
ATOM     12  CA  LYS A   1       6.306   4.024  15.462  0.00  0.00    +0.000 C 
BRANCH  12  13
ATOM     13  C   LYS A   1       6.579   4.286  13.948  0.00  0.00    +0.000 C 
ATOM     14  O   LYS A   1       7.276   5.186  13.491  0.00  0.00    +0.000 OA
BRANCH  13  15
ATOM     15  OXT LYS A   1       6.098   3.296  13.149  0.00  0.00    +0.000 OA
ATOM     16  HXT LYS A   1       5.123   3.182  13.245  0.00  0.00    +0.000 HD
ENDBRANCH  13  15
ENDBRANCH  12  13
BRANCH  12  17
ATOM     17  CB  LYS A   1       6.993   5.152  16.267  0.00  0.00    +0.000 C 
BRANCH  17  18
ATOM     18  CG  LYS A   1       7.790   4.869  17.533  0.00  0.00    +0.000 C 
BRANCH  18  19
ATOM     19  CD  LYS A   1       7.808   6.089  18.430  0.00  0.00    +0.000 C 
BRANCH  19  20
ATOM     20  CE  LYS A   1       7.344   5.698  19.818  0.00  0.00    +0.000 C 
BRANCH  20  21
ATOM     21  NZ  LYS A   1       6.051   5.037  19.757  0.00  0.00    +0.000 NA
ATOM     22  HZ1 LYS A   1       5.930   4.462  20.590  0.00  0.00    +0.000 HD
ATOM     23  HZ2 LYS A   1       6.061   4.395  18.966  0.00  0.00    +0.000 HD
ENDBRANCH  20  21
ENDBRANCH  19  20
ENDBRANCH  18  19
ENDBRANCH  17  18
ENDBRANCH  12  17
ENDBRANCH  10  12
ENDBRANCH   7   8
BRANCH   5  24
ATOM     24  O   UNK A   0       2.162   2.904  20.347  0.00  0.00    +0.000 OA
ATOM     25  H   UNK A   0       1.587   3.129  21.102  0.00  0.00    +0.000 HD
ENDBRANCH   5  24
BRANCH   1  26
ATOM     26  C   UNK A   0       2.471   6.783  19.454  0.00  0.00    +0.000 C 
BRANCH  26  29
ATOM     27  C   UNK A   0       1.249   8.546  20.676  0.00  0.00    +0.000 C 
ATOM     28  O   UNK A   0       1.124   7.831  21.627  0.00  0.00    +0.000 OA
ATOM     29  N   UNK A   0       1.954   8.163  19.522  0.00  0.00    +0.000 N 
ATOM     30  H   UNK A   0       1.759   8.633  18.651  0.00  0.00    +0.000 HD
BRANCH  27  31
ATOM     31  C   UNK A   0       0.628   9.952  20.618  0.00  0.00    +0.000 C 
BRANCH  31  32
ATOM     32  C   UNK A   0       0.199  10.402  19.202  0.00  0.00    +0.000 C 
BRANCH  32  33
ATOM     33  C   UNK A   0      -0.854  11.506  19.276  0.00  0.00    +0.000 C 
BRANCH  33  34
ATOM     34  C   UNK A   0      -1.751  11.580  18.040  0.00  0.00    +0.000 C 
BRANCH  34  35
ATOM     35  C   UNK A   0      -2.064  10.172  17.525  0.00  0.00    +0.000 C 
BRANCH  35  36
ATOM     36  C   UNK A   0      -3.460  10.101  16.914  0.00  0.00    +0.000 C 
BRANCH  36  37
ATOM     37  C   UNK A   0      -4.132  11.472  16.928  0.00  0.00    +0.000 C 
BRANCH  37  38
ATOM     38  C   UNK A   0      -5.543  11.377  17.500  0.00  0.00    +0.000 C 
BRANCH  38  39
ATOM     39  C   UNK A   0      -5.521  11.418  19.025  0.00  0.00    +0.000 C 
BRANCH  39  41
ATOM     40  C   UNK A   0      -4.661  12.679  21.012  0.00  0.00    +0.000 C 
ATOM     41  C   UNK A   0      -4.972  12.750  19.528  0.00  0.00    +0.000 C 
ENDBRANCH  39  41
ENDBRANCH  38  39
ENDBRANCH  37  38
ENDBRANCH  36  37
ENDBRANCH  35  36
ENDBRANCH  34  35
ENDBRANCH  33  34
ENDBRANCH  32  33
ENDBRANCH  31  32
ENDBRANCH  27  31
ENDBRANCH  26  29
ENDBRANCH   1  26
TORSDOF 22
ENDMDL
MODEL 6
REMARK VINA RESULT:      -6.2      5.316      9.267
REMARK  Name = 
REMARK  23 active torsions:
REMARK  status: ('A' for Active; 'I' for Inactive)
REMARK    1  A    between atoms: C_1  and  C_2
REMARK    2  A    between atoms: C_2  and  C_3
REMARK    3  A    between atoms: C_3  and  C_4
REMARK    4  A    between atoms: C_4  and  C_5
REMARK    5  A    between atoms: C_5  and  C_6
REMARK    6  A    between atoms: C_6  and  C_7
REMARK    7  A    between atoms: C_7  and  C_8
REMARK    8  A    between atoms: C_8  and  C_9
REMARK    9  A    between atoms: C_9  and  C_10
REMARK   10  A    between atoms: C_10  and  C_11
REMARK   11  A    between atoms: C_11  and  C_12
REMARK   12  A    between atoms: N_14  and  C_15
REMARK   13  A    between atoms: C_15  and  C_16
REMARK   14  A    between atoms: C_20  and  O_21
REMARK   15  A    between atoms: C_23  and  C_24
REMARK   16  A    between atoms: N_26  and  CA_27
REMARK   17  A    between atoms: CA_27  and  CB_28
REMARK   18  A    between atoms: CA_27  and  C_33
REMARK   19  A    between atoms: CB_28  and  CG_29
REMARK   20  A    between atoms: CG_29  and  CD_30
REMARK   21  A    between atoms: CD_30  and  CE_31
REMARK   22  A    between atoms: CE_31  and  NZ_32
REMARK   23  A    between atoms: C_33  and  OXT_35
REMARK                            x       y       z     vdW  Elec       q    Type
REMARK                         _______ _______ _______ _____ _____    ______ ____
ROOT
ATOM      1  C   UNK A   0       2.450   6.102  19.619  0.00  0.00    +0.000 C 
ATOM      2  O   UNK A   0       3.239   6.698  18.899  0.00  0.00    +0.000 OA
ATOM      3  N   UNK A   0       2.170   4.721  19.457  0.00  0.00    +0.000 N 
ATOM      4  C   UNK A   0       1.167   4.038  20.254  0.00  0.00    +0.000 C 
ATOM      5  C   UNK A   0       1.899   2.830  20.825  0.00  0.00    +0.000 C 
ATOM      6  C   UNK A   0       2.869   2.414  19.728  0.00  0.00    +0.000 C 
ATOM      7  C   UNK A   0       3.075   3.697  18.850  0.00  0.00    +0.000 C 
ENDROOT
BRANCH   7   8
ATOM      8  C   UNK A   0       4.562   4.115  18.660  0.00  0.00    +0.000 C 
ATOM      9  O   UNK A   0       5.379   4.082  19.560  0.00  0.00    +0.000 OA
ATOM     10  N   LYS A   1       4.971   4.464  17.377  0.00  0.00    +0.000 N 
ATOM     11  H   LYS A   1       4.221   4.488  16.701  0.00  0.00    +0.000 HD
BRANCH  10  12
ATOM     12  CA  LYS A   1       6.277   5.047  16.930  0.00  0.00    +0.000 C 
BRANCH  12  13
ATOM     13  C   LYS A   1       7.486   4.857  17.899  0.00  0.00    +0.000 C 
ATOM     14  O   LYS A   1       8.404   4.059  17.750  0.00  0.00    +0.000 OA
BRANCH  13  15
ATOM     15  OXT LYS A   1       7.526   5.801  18.877  0.00  0.00    +0.000 OA
ATOM     16  HXT LYS A   1       6.645   6.214  19.033  0.00  0.00    +0.000 HD
ENDBRANCH  13  15
ENDBRANCH  12  13
BRANCH  12  17
ATOM     17  CB  LYS A   1       6.701   4.519  15.539  0.00  0.00    +0.000 C 
BRANCH  17  18
ATOM     18  CG  LYS A   1       5.783   4.610  14.328  0.00  0.00    +0.000 C 
BRANCH  18  19
ATOM     19  CD  LYS A   1       6.250   3.667  13.238  0.00  0.00    +0.000 C 
BRANCH  19  20
ATOM     20  CE  LYS A   1       5.076   3.299  12.356  0.00  0.00    +0.000 C 
BRANCH  20  21
ATOM     21  NZ  LYS A   1       5.452   2.256  11.416  0.00  0.00    +0.000 NA
ATOM     22  HZ1 LYS A   1       5.488   1.362  11.906  0.00  0.00    +0.000 HD
ATOM     23  HZ2 LYS A   1       6.401   2.444  11.096  0.00  0.00    +0.000 HD
ENDBRANCH  20  21
ENDBRANCH  19  20
ENDBRANCH  18  19
ENDBRANCH  17  18
ENDBRANCH  12  17
ENDBRANCH  10  12
ENDBRANCH   7   8
BRANCH   5  24
ATOM     24  O   UNK A   0       2.631   3.166  21.994  0.00  0.00    +0.000 OA
ATOM     25  H   UNK A   0       1.997   3.301  22.723  0.00  0.00    +0.000 HD
ENDBRANCH   5  24
BRANCH   1  26
ATOM     26  C   UNK A   0       1.652   6.839  20.773  0.00  0.00    +0.000 C 
BRANCH  26  29
ATOM     27  C   UNK A   0       1.154   9.209  20.293  0.00  0.00    +0.000 C 
ATOM     28  O   UNK A   0       0.679   8.917  19.234  0.00  0.00    +0.000 OA
ATOM     29  N   UNK A   0       1.641   8.251  21.199  0.00  0.00    +0.000 N 
ATOM     30  H   UNK A   0       2.312   8.535  21.896  0.00  0.00    +0.000 HD
BRANCH  27  31
ATOM     31  C   UNK A   0       1.297  10.669  20.755  0.00  0.00    +0.000 C 
BRANCH  31  32
ATOM     32  C   UNK A   0       0.953  11.717  19.671  0.00  0.00    +0.000 C 
BRANCH  32  33
ATOM     33  C   UNK A   0      -0.354  12.436  20.001  0.00  0.00    +0.000 C 
BRANCH  33  34
ATOM     34  C   UNK A   0      -1.603  11.630  19.646  0.00  0.00    +0.000 C 
BRANCH  34  35
ATOM     35  C   UNK A   0      -1.803  11.602  18.127  0.00  0.00    +0.000 C 
BRANCH  35  36
ATOM     36  C   UNK A   0      -2.317  10.243  17.659  0.00  0.00    +0.000 C 
BRANCH  36  37
ATOM     37  C   UNK A   0      -3.413  10.408  16.609  0.00  0.00    +0.000 C 
BRANCH  37  38
ATOM     38  C   UNK A   0      -4.427  11.460  17.046  0.00  0.00    +0.000 C 
BRANCH  38  39
ATOM     39  C   UNK A   0      -5.472  10.859  17.982  0.00  0.00    +0.000 C 
BRANCH  39  41
ATOM     40  C   UNK A   0      -5.070  12.706  19.626  0.00  0.00    +0.000 C 
ATOM     41  C   UNK A   0      -6.120  11.940  18.841  0.00  0.00    +0.000 C 
ENDBRANCH  39  41
ENDBRANCH  38  39
ENDBRANCH  37  38
ENDBRANCH  36  37
ENDBRANCH  35  36
ENDBRANCH  34  35
ENDBRANCH  33  34
ENDBRANCH  32  33
ENDBRANCH  31  32
ENDBRANCH  27  31
ENDBRANCH  26  29
ENDBRANCH   1  26
TORSDOF 22
ENDMDL
MODEL 7
REMARK VINA RESULT:      -6.2      3.588      9.095
REMARK  Name = 
REMARK  23 active torsions:
REMARK  status: ('A' for Active; 'I' for Inactive)
REMARK    1  A    between atoms: C_1  and  C_2
REMARK    2  A    between atoms: C_2  and  C_3
REMARK    3  A    between atoms: C_3  and  C_4
REMARK    4  A    between atoms: C_4  and  C_5
REMARK    5  A    between atoms: C_5  and  C_6
REMARK    6  A    between atoms: C_6  and  C_7
REMARK    7  A    between atoms: C_7  and  C_8
REMARK    8  A    between atoms: C_8  and  C_9
REMARK    9  A    between atoms: C_9  and  C_10
REMARK   10  A    between atoms: C_10  and  C_11
REMARK   11  A    between atoms: C_11  and  C_12
REMARK   12  A    between atoms: N_14  and  C_15
REMARK   13  A    between atoms: C_15  and  C_16
REMARK   14  A    between atoms: C_20  and  O_21
REMARK   15  A    between atoms: C_23  and  C_24
REMARK   16  A    between atoms: N_26  and  CA_27
REMARK   17  A    between atoms: CA_27  and  CB_28
REMARK   18  A    between atoms: CA_27  and  C_33
REMARK   19  A    between atoms: CB_28  and  CG_29
REMARK   20  A    between atoms: CG_29  and  CD_30
REMARK   21  A    between atoms: CD_30  and  CE_31
REMARK   22  A    between atoms: CE_31  and  NZ_32
REMARK   23  A    between atoms: C_33  and  OXT_35
REMARK                            x       y       z     vdW  Elec       q    Type
REMARK                         _______ _______ _______ _____ _____    ______ ____
ROOT
ATOM      1  C   UNK A   0       2.429   5.495  18.886  0.00  0.00    +0.000 C 
ATOM      2  O   UNK A   0       3.225   5.986  18.099  0.00  0.00    +0.000 OA
ATOM      3  N   UNK A   0       2.402   4.106  19.170  0.00  0.00    +0.000 N 
ATOM      4  C   UNK A   0       1.397   3.514  20.036  0.00  0.00    +0.000 C 
ATOM      5  C   UNK A   0       2.202   2.722  21.058  0.00  0.00    +0.000 C 
ATOM      6  C   UNK A   0       3.399   2.193  20.280  0.00  0.00    +0.000 C 
ATOM      7  C   UNK A   0       3.548   3.153  19.048  0.00  0.00    +0.000 C 
ENDROOT
BRANCH   7   8
ATOM      8  C   UNK A   0       4.961   3.787  18.894  0.00  0.00    +0.000 C 
ATOM      9  O   UNK A   0       5.694   4.008  19.838  0.00  0.00    +0.000 OA
ATOM     10  N   LYS A   1       5.415   4.032  17.602  0.00  0.00    +0.000 N 
ATOM     11  H   LYS A   1       4.730   3.842  16.884  0.00  0.00    +0.000 HD
BRANCH  10  12
ATOM     12  CA  LYS A   1       6.645   4.764  17.159  0.00  0.00    +0.000 C 
BRANCH  12  13
ATOM     13  C   LYS A   1       6.994   4.673  15.640  0.00  0.00    +0.000 C 
ATOM     14  O   LYS A   1       7.732   5.437  15.028  0.00  0.00    +0.000 OA
BRANCH  13  15
ATOM     15  OXT LYS A   1       6.524   3.536  15.062  0.00  0.00    +0.000 OA
ATOM     16  HXT LYS A   1       5.750   3.164  15.547  0.00  0.00    +0.000 HD
ENDBRANCH  13  15
ENDBRANCH  12  13
BRANCH  12  17
ATOM     17  CB  LYS A   1       6.598   6.262  17.543  0.00  0.00    +0.000 C 
BRANCH  17  18
ATOM     18  CG  LYS A   1       7.777   6.963  18.203  0.00  0.00    +0.000 C 
BRANCH  18  19
ATOM     19  CD  LYS A   1       7.939   8.362  17.646  0.00  0.00    +0.000 C 
BRANCH  19  20
ATOM     20  CE  LYS A   1       8.731   9.203  18.624  0.00  0.00    +0.000 C 
BRANCH  20  21
ATOM     21  NZ  LYS A   1       8.803  10.582  18.170  0.00  0.00    +0.000 NA
ATOM     22  HZ1 LYS A   1       8.131  10.721  17.416  0.00  0.00    +0.000 HD
ATOM     23  HZ2 LYS A   1       9.724  10.734  17.762  0.00  0.00    +0.000 HD
ENDBRANCH  20  21
ENDBRANCH  19  20
ENDBRANCH  18  19
ENDBRANCH  17  18
ENDBRANCH  12  17
ENDBRANCH  10  12
ENDBRANCH   7   8
BRANCH   5  24
ATOM     24  O   UNK A   0       2.660   3.547  22.118  0.00  0.00    +0.000 OA
ATOM     25  H   UNK A   0       2.534   4.478  21.858  0.00  0.00    +0.000 HD
ENDBRANCH   5  24
BRANCH   1  26
ATOM     26  C   UNK A   0       1.339   6.375  19.629  0.00  0.00    +0.000 C 
BRANCH  26  29
ATOM     27  C   UNK A   0       1.198   8.524  20.835  0.00  0.00    +0.000 C 
ATOM     28  O   UNK A   0       0.905   9.097  19.826  0.00  0.00    +0.000 OA
ATOM     29  N   UNK A   0       1.398   7.135  20.892  0.00  0.00    +0.000 N 
ATOM     30  H   UNK A   0       1.951   6.751  21.643  0.00  0.00    +0.000 HD
BRANCH  27  31
ATOM     31  C   UNK A   0       1.407   9.264  22.168  0.00  0.00    +0.000 C 
BRANCH  31  32
ATOM     32  C   UNK A   0       0.207   9.178  23.139  0.00  0.00    +0.000 C 
BRANCH  32  33
ATOM     33  C   UNK A   0      -0.600  10.475  23.126  0.00  0.00    +0.000 C 
BRANCH  33  34
ATOM     34  C   UNK A   0      -0.148  11.467  22.055  0.00  0.00    +0.000 C 
BRANCH  34  35
ATOM     35  C   UNK A   0      -1.345  11.928  21.218  0.00  0.00    +0.000 C 
BRANCH  35  36
ATOM     36  C   UNK A   0      -1.026  11.894  19.726  0.00  0.00    +0.000 C 
BRANCH  36  37
ATOM     37  C   UNK A   0      -1.987  10.969  18.984  0.00  0.00    +0.000 C 
BRANCH  37  38
ATOM     38  C   UNK A   0      -1.395  10.533  17.647  0.00  0.00    +0.000 C 
BRANCH  38  39
ATOM     39  C   UNK A   0      -2.492  10.298  16.612  0.00  0.00    +0.000 C 
BRANCH  39  41
ATOM     40  C   UNK A   0      -4.653  11.564  16.569  0.00  0.00    +0.000 C 
ATOM     41  C   UNK A   0      -3.874  10.446  17.239  0.00  0.00    +0.000 C 
ENDBRANCH  39  41
ENDBRANCH  38  39
ENDBRANCH  37  38
ENDBRANCH  36  37
ENDBRANCH  35  36
ENDBRANCH  34  35
ENDBRANCH  33  34
ENDBRANCH  32  33
ENDBRANCH  31  32
ENDBRANCH  27  31
ENDBRANCH  26  29
ENDBRANCH   1  26
TORSDOF 22
ENDMDL
MODEL 8
REMARK VINA RESULT:      -6.2      1.806      2.437
REMARK  Name = 
REMARK  23 active torsions:
REMARK  status: ('A' for Active; 'I' for Inactive)
REMARK    1  A    between atoms: C_1  and  C_2
REMARK    2  A    between atoms: C_2  and  C_3
REMARK    3  A    between atoms: C_3  and  C_4
REMARK    4  A    between atoms: C_4  and  C_5
REMARK    5  A    between atoms: C_5  and  C_6
REMARK    6  A    between atoms: C_6  and  C_7
REMARK    7  A    between atoms: C_7  and  C_8
REMARK    8  A    between atoms: C_8  and  C_9
REMARK    9  A    between atoms: C_9  and  C_10
REMARK   10  A    between atoms: C_10  and  C_11
REMARK   11  A    between atoms: C_11  and  C_12
REMARK   12  A    between atoms: N_14  and  C_15
REMARK   13  A    between atoms: C_15  and  C_16
REMARK   14  A    between atoms: C_20  and  O_21
REMARK   15  A    between atoms: C_23  and  C_24
REMARK   16  A    between atoms: N_26  and  CA_27
REMARK   17  A    between atoms: CA_27  and  CB_28
REMARK   18  A    between atoms: CA_27  and  C_33
REMARK   19  A    between atoms: CB_28  and  CG_29
REMARK   20  A    between atoms: CG_29  and  CD_30
REMARK   21  A    between atoms: CD_30  and  CE_31
REMARK   22  A    between atoms: CE_31  and  NZ_32
REMARK   23  A    between atoms: C_33  and  OXT_35
REMARK                            x       y       z     vdW  Elec       q    Type
REMARK                         _______ _______ _______ _____ _____    ______ ____
ROOT
ATOM      1  C   UNK A   0       7.360   5.990  18.557  0.00  0.00    +0.000 C 
ATOM      2  O   UNK A   0       7.184   5.680  19.727  0.00  0.00    +0.000 OA
ATOM      3  N   UNK A   0       6.938   5.166  17.483  0.00  0.00    +0.000 N 
ATOM      4  C   UNK A   0       7.229   5.494  16.098  0.00  0.00    +0.000 C 
ATOM      5  C   UNK A   0       5.875   5.430  15.404  0.00  0.00    +0.000 C 
ATOM      6  C   UNK A   0       5.132   4.304  16.111  0.00  0.00    +0.000 C 
ATOM      7  C   UNK A   0       5.823   4.170  17.513  0.00  0.00    +0.000 C 
ENDROOT
BRANCH   7   8
ATOM      8  C   UNK A   0       4.847   4.261  18.722  0.00  0.00    +0.000 C 
ATOM      9  O   UNK A   0       4.964   3.576  19.721  0.00  0.00    +0.000 OA
ATOM     10  N   LYS A   1       3.849   5.229  18.668  0.00  0.00    +0.000 N 
ATOM     11  H   LYS A   1       3.812   5.730  17.792  0.00  0.00    +0.000 HD
BRANCH  10  12
ATOM     12  CA  LYS A   1       2.692   5.442  19.597  0.00  0.00    +0.000 C 
BRANCH  12  13
ATOM     13  C   LYS A   1       2.297   6.925  19.879  0.00  0.00    +0.000 C 
ATOM     14  O   LYS A   1       2.287   7.832  19.054  0.00  0.00    +0.000 OA
BRANCH  13  15
ATOM     15  OXT LYS A   1       1.786   7.103  21.126  0.00  0.00    +0.000 OA
ATOM     16  HXT LYS A   1       0.925   6.638  21.245  0.00  0.00    +0.000 HD
ENDBRANCH  13  15
ENDBRANCH  12  13
BRANCH  12  17
ATOM     17  CB  LYS A   1       1.422   4.698  19.120  0.00  0.00    +0.000 C 
BRANCH  17  18
ATOM     18  CG  LYS A   1       1.021   3.343  19.686  0.00  0.00    +0.000 C 
BRANCH  18  19
ATOM     19  CD  LYS A   1       1.395   2.236  18.723  0.00  0.00    +0.000 C 
BRANCH  19  20
ATOM     20  CE  LYS A   1       2.603   1.494  19.255  0.00  0.00    +0.000 C 
BRANCH  20  21
ATOM     21  NZ  LYS A   1       3.538   1.205  18.182  0.00  0.00    +0.000 NA
ATOM     22  HZ1 LYS A   1       3.711   0.200  18.150  0.00  0.00    +0.000 HD
ATOM     23  HZ2 LYS A   1       4.430   1.640  18.411  0.00  0.00    +0.000 HD
ENDBRANCH  20  21
ENDBRANCH  19  20
ENDBRANCH  18  19
ENDBRANCH  17  18
ENDBRANCH  12  17
ENDBRANCH  10  12
ENDBRANCH   7   8
BRANCH   5  24
ATOM     24  O   UNK A   0       5.149   6.639  15.560  0.00  0.00    +0.000 OA
ATOM     25  H   UNK A   0       5.593   7.332  15.036  0.00  0.00    +0.000 HD
ENDBRANCH   5  24
BRANCH   1  26
ATOM     26  C   UNK A   0       8.107   7.328  18.151  0.00  0.00    +0.000 C 
BRANCH  26  29
ATOM     27  C   UNK A   0       8.673   9.692  18.582  0.00  0.00    +0.000 C 
ATOM     28  O   UNK A   0       7.983  10.047  17.670  0.00  0.00    +0.000 OA
ATOM     29  N   UNK A   0       8.790   8.347  18.970  0.00  0.00    +0.000 N 
ATOM     30  H   UNK A   0       9.602   8.058  19.494  0.00  0.00    +0.000 HD
BRANCH  27  31
ATOM     31  C   UNK A   0       9.519  10.680  19.403  0.00  0.00    +0.000 C 
BRANCH  31  32
ATOM     32  C   UNK A   0      10.704  11.303  18.629  0.00  0.00    +0.000 C 
BRANCH  32  33
ATOM     33  C   UNK A   0      10.212  12.344  17.624  0.00  0.00    +0.000 C 
BRANCH  33  34
ATOM     34  C   UNK A   0      10.644  13.771  17.961  0.00  0.00    +0.000 C 
BRANCH  34  35
ATOM     35  C   UNK A   0       9.483  14.541  18.596  0.00  0.00    +0.000 C 
BRANCH  35  36
ATOM     36  C   UNK A   0       9.207  15.845  17.852  0.00  0.00    +0.000 C 
BRANCH  36  37
ATOM     37  C   UNK A   0       8.479  16.841  18.751  0.00  0.00    +0.000 C 
BRANCH  37  38
ATOM     38  C   UNK A   0       7.249  16.200  19.385  0.00  0.00    +0.000 C 
BRANCH  38  39
ATOM     39  C   UNK A   0       5.969  16.888  18.920  0.00  0.00    +0.000 C 
BRANCH  39  41
ATOM     40  C   UNK A   0       5.637  14.646  17.853  0.00  0.00    +0.000 C 
ATOM     41  C   UNK A   0       4.945  15.866  18.435  0.00  0.00    +0.000 C 
ENDBRANCH  39  41
ENDBRANCH  38  39
ENDBRANCH  37  38
ENDBRANCH  36  37
ENDBRANCH  35  36
ENDBRANCH  34  35
ENDBRANCH  33  34
ENDBRANCH  32  33
ENDBRANCH  31  32
ENDBRANCH  27  31
ENDBRANCH  26  29
ENDBRANCH   1  26
TORSDOF 22
ENDMDL
MODEL 9
REMARK VINA RESULT:      -6.2      4.552      9.483
REMARK  Name = 
REMARK  23 active torsions:
REMARK  status: ('A' for Active; 'I' for Inactive)
REMARK    1  A    between atoms: C_1  and  C_2
REMARK    2  A    between atoms: C_2  and  C_3
REMARK    3  A    between atoms: C_3  and  C_4
REMARK    4  A    between atoms: C_4  and  C_5
REMARK    5  A    between atoms: C_5  and  C_6
REMARK    6  A    between atoms: C_6  and  C_7
REMARK    7  A    between atoms: C_7  and  C_8
REMARK    8  A    between atoms: C_8  and  C_9
REMARK    9  A    between atoms: C_9  and  C_10
REMARK   10  A    between atoms: C_10  and  C_11
REMARK   11  A    between atoms: C_11  and  C_12
REMARK   12  A    between atoms: N_14  and  C_15
REMARK   13  A    between atoms: C_15  and  C_16
REMARK   14  A    between atoms: C_20  and  O_21
REMARK   15  A    between atoms: C_23  and  C_24
REMARK   16  A    between atoms: N_26  and  CA_27
REMARK   17  A    between atoms: CA_27  and  CB_28
REMARK   18  A    between atoms: CA_27  and  C_33
REMARK   19  A    between atoms: CB_28  and  CG_29
REMARK   20  A    between atoms: CG_29  and  CD_30
REMARK   21  A    between atoms: CD_30  and  CE_31
REMARK   22  A    between atoms: CE_31  and  NZ_32
REMARK   23  A    between atoms: C_33  and  OXT_35
REMARK                            x       y       z     vdW  Elec       q    Type
REMARK                         _______ _______ _______ _____ _____    ______ ____
ROOT
ATOM      1  C   UNK A   0       2.359   5.950  19.639  0.00  0.00    +0.000 C 
ATOM      2  O   UNK A   0       3.194   6.512  18.945  0.00  0.00    +0.000 OA
ATOM      3  N   UNK A   0       2.004   4.590  19.446  0.00  0.00    +0.000 N 
ATOM      4  C   UNK A   0       0.948   3.952  20.212  0.00  0.00    +0.000 C 
ATOM      5  C   UNK A   0       1.599   2.695  20.774  0.00  0.00    +0.000 C 
ATOM      6  C   UNK A   0       2.565   2.242  19.687  0.00  0.00    +0.000 C 
ATOM      7  C   UNK A   0       2.861   3.527  18.837  0.00  0.00    +0.000 C 
ENDROOT
BRANCH   7   8
ATOM      8  C   UNK A   0       4.373   3.862  18.683  0.00  0.00    +0.000 C 
ATOM      9  O   UNK A   0       5.177   3.726  19.586  0.00  0.00    +0.000 OA
ATOM     10  N   LYS A   1       4.817   4.259  17.426  0.00  0.00    +0.000 N 
ATOM     11  H   LYS A   1       4.077   4.369  16.747  0.00  0.00    +0.000 HD
BRANCH  10  12
ATOM     12  CA  LYS A   1       6.161   4.785  17.023  0.00  0.00    +0.000 C 
BRANCH  12  13
ATOM     13  C   LYS A   1       6.632   4.440  15.576  0.00  0.00    +0.000 C 
ATOM     14  O   LYS A   1       6.138   3.589  14.845  0.00  0.00    +0.000 OA
BRANCH  13  15
ATOM     15  OXT LYS A   1       7.569   5.309  15.109  0.00  0.00    +0.000 OA
ATOM     16  HXT LYS A   1       7.165   6.130  14.741  0.00  0.00    +0.000 HD
ENDBRANCH  13  15
ENDBRANCH  12  13
BRANCH  12  17
ATOM     17  CB  LYS A   1       6.259   6.319  17.199  0.00  0.00    +0.000 C 
BRANCH  17  18
ATOM     18  CG  LYS A   1       7.288   6.962  18.117  0.00  0.00    +0.000 C 
BRANCH  18  19
ATOM     19  CD  LYS A   1       8.100   7.993  17.361  0.00  0.00    +0.000 C 
BRANCH  19  20
ATOM     20  CE  LYS A   1       8.062   9.309  18.109  0.00  0.00    +0.000 C 
BRANCH  20  21
ATOM     21  NZ  LYS A   1       9.089   9.342  19.137  0.00  0.00    +0.000 NA
ATOM     22  HZ1 LYS A   1       9.953   8.953  18.759  0.00  0.00    +0.000 HD
ATOM     23  HZ2 LYS A   1       8.803   8.720  19.891  0.00  0.00    +0.000 HD
ENDBRANCH  20  21
ENDBRANCH  19  20
ENDBRANCH  18  19
ENDBRANCH  17  18
ENDBRANCH  12  17
ENDBRANCH  10  12
ENDBRANCH   7   8
BRANCH   5  24
ATOM     24  O   UNK A   0       2.325   2.967  21.962  0.00  0.00    +0.000 OA
ATOM     25  H   UNK A   0       2.494   2.122  22.419  0.00  0.00    +0.000 HD
ENDBRANCH   5  24
BRANCH   1  26
ATOM     26  C   UNK A   0       1.582   6.711  20.792  0.00  0.00    +0.000 C 
BRANCH  26  29
ATOM     27  C   UNK A   0       0.341   8.669  21.642  0.00  0.00    +0.000 C 
ATOM     28  O   UNK A   0      -0.633   7.999  21.828  0.00  0.00    +0.000 OA
ATOM     29  N   UNK A   0       1.552   8.137  21.167  0.00  0.00    +0.000 N 
ATOM     30  H   UNK A   0       2.214   8.753  20.718  0.00  0.00    +0.000 HD
BRANCH  27  31
ATOM     31  C   UNK A   0       0.352  10.188  21.885  0.00  0.00    +0.000 C 
BRANCH  31  32
ATOM     32  C   UNK A   0       1.054  11.006  20.777  0.00  0.00    +0.000 C 
BRANCH  32  33
ATOM     33  C   UNK A   0       0.514  12.435  20.728  0.00  0.00    +0.000 C 
BRANCH  33  34
ATOM     34  C   UNK A   0      -0.431  12.692  19.555  0.00  0.00    +0.000 C 
BRANCH  34  35
ATOM     35  C   UNK A   0      -1.731  13.335  20.050  0.00  0.00    +0.000 C 
BRANCH  35  36
ATOM     36  C   UNK A   0      -2.424  12.458  21.089  0.00  0.00    +0.000 C 
BRANCH  36  37
ATOM     37  C   UNK A   0      -2.924  13.297  22.263  0.00  0.00    +0.000 C 
BRANCH  37  38
ATOM     38  C   UNK A   0      -3.008  12.456  23.532  0.00  0.00    +0.000 C 
BRANCH  38  39
ATOM     39  C   UNK A   0      -4.389  12.564  24.172  0.00  0.00    +0.000 C 
BRANCH  39  41
ATOM     40  C   UNK A   0      -6.011  14.424  23.742  0.00  0.00    +0.000 C 
ATOM     41  C   UNK A   0      -5.400  13.147  23.191  0.00  0.00    +0.000 C 
ENDBRANCH  39  41
ENDBRANCH  38  39
ENDBRANCH  37  38
ENDBRANCH  36  37
ENDBRANCH  35  36
ENDBRANCH  34  35
ENDBRANCH  33  34
ENDBRANCH  32  33
ENDBRANCH  31  32
ENDBRANCH  27  31
ENDBRANCH  26  29
ENDBRANCH   1  26
TORSDOF 22
ENDMDL
