MODEL 1
REMARK VINA RESULT:      -6.9      0.000      0.000
REMARK  Name = 
REMARK  8 active torsions:
REMARK  status: ('A' for Active; 'I' for Inactive)
REMARK    1  A    between atoms: C_1  and  C_2
REMARK    2  A    between atoms: C_2  and  C_3
REMARK    3  A    between atoms: C_2  and  O_4
REMARK    4  A    between atoms: O_4  and  C_5
REMARK    5  A    between atoms: C_5  and  C_7
REMARK    6  A    between atoms: C_7  and  C_8
REMARK    7  A    between atoms: C_10  and  C_11
REMARK    8  A    between atoms: C_14  and  O_15
REMARK                            x       y       z     vdW  Elec       q    Type
REMARK                         _______ _______ _______ _____ _____    ______ ____
ROOT
ATOM      1  C   UNL     1       6.319   4.787  15.231  0.00  0.00    +0.000 C 
ATOM      2  C   UNL     1       5.017   4.692  15.574  0.00  0.00    +0.000 C 
ENDROOT
BRANCH   2   3
ATOM      3  C   UNL     1       4.457   4.874  16.925  0.00  0.00    +0.000 A 
ATOM      4  C   UNL     1       3.947   6.118  17.329  0.00  0.00    +0.000 A 
ATOM      5  C   UNL     1       3.419   6.287  18.615  0.00  0.00    +0.000 A 
ATOM      6  C   UNL     1       3.400   5.215  19.503  0.00  0.00    +0.000 A 
ATOM      7  C   UNL     1       3.885   3.968  19.104  0.00  0.00    +0.000 A 
ATOM      8 BR   UNL     1       3.857   2.474  20.272  0.00  0.00    +0.000 Br
ATOM      9  C   UNL     1       4.410   3.796  17.817  0.00  0.00    +0.000 A 
BRANCH   6  10
ATOM     10  O   UNL     1       2.907   5.386  20.768  0.00  0.00    +0.000 OA
ATOM     11  H   UNL     1       3.503   5.963  21.272  0.00  0.00    +0.000 HD
ENDBRANCH   6  10
ENDBRANCH   2   3
BRANCH   1  12
ATOM     12  C   UNL     1       7.387   5.020  16.247  0.00  0.00    +0.000 C 
ATOM     13  O   UNL     1       7.931   4.137  16.892  0.00  0.00    +0.000 OA
BRANCH  12  14
ATOM     14  O   UNL     1       7.686   6.345  16.359  0.00  0.00    +0.000 OA
BRANCH  14  16
ATOM     15  C   UNL     1       7.794   6.204  18.790  0.00  0.00    +0.000 C 
ATOM     16  C   UNL     1       7.242   6.965  17.588  0.00  0.00    +0.000 C 
ATOM     17  C   UNL     1       7.734   8.407  17.600  0.00  0.00    +0.000 C 
ENDBRANCH  14  16
ENDBRANCH  12  14
ENDBRANCH   1  12
BRANCH   1  18
ATOM     18  C   UNL     1       6.753   4.540  13.796  0.00  0.00    +0.000 C 
ATOM     19  N   UNL     1       7.113   4.336  12.605  0.00  0.00    +0.000 NA
ENDBRANCH   1  18
TORSDOF 6
ENDMDL
MODEL 2
REMARK VINA RESULT:      -6.9      1.400      1.976
REMARK  Name = 
REMARK  8 active torsions:
REMARK  status: ('A' for Active; 'I' for Inactive)
REMARK    1  A    between atoms: C_1  and  C_2
REMARK    2  A    between atoms: C_2  and  C_3
REMARK    3  A    between atoms: C_2  and  O_4
REMARK    4  A    between atoms: O_4  and  C_5
REMARK    5  A    between atoms: C_5  and  C_7
REMARK    6  A    between atoms: C_7  and  C_8
REMARK    7  A    between atoms: C_10  and  C_11
REMARK    8  A    between atoms: C_14  and  O_15
REMARK                            x       y       z     vdW  Elec       q    Type
REMARK                         _______ _______ _______ _____ _____    ______ ____
ROOT
ATOM      1  C   UNL     1       5.928   4.379  15.324  0.00  0.00    +0.000 C 
ATOM      2  C   UNL     1       4.679   4.165  15.788  0.00  0.00    +0.000 C 
ENDROOT
BRANCH   2   3
ATOM      3  C   UNL     1       4.200   4.436  17.156  0.00  0.00    +0.000 A 
ATOM      4  C   UNL     1       4.365   3.485  18.175  0.00  0.00    +0.000 A 
ATOM      5  C   UNL     1       3.905   3.744  19.472  0.00  0.00    +0.000 A 
ATOM      6  C   UNL     1       3.275   4.954  19.755  0.00  0.00    +0.000 A 
ATOM      7  C   UNL     1       3.126   5.915  18.753  0.00  0.00    +0.000 A 
ATOM      8 BR   UNL     1       2.296   7.585  19.099  0.00  0.00    +0.000 Br
ATOM      9  C   UNL     1       3.589   5.658  17.457  0.00  0.00    +0.000 A 
BRANCH   6  10
ATOM     10  O   UNL     1       2.803   5.198  21.015  0.00  0.00    +0.000 OA
ATOM     11  H   UNL     1       3.411   4.815  21.667  0.00  0.00    +0.000 HD
ENDBRANCH   6  10
ENDBRANCH   2   3
BRANCH   1  12
ATOM     12  C   UNL     1       7.027   4.863  16.211  0.00  0.00    +0.000 C 
ATOM     13  O   UNL     1       7.935   4.162  16.630  0.00  0.00    +0.000 OA
BRANCH  12  14
ATOM     14  O   UNL     1       6.895   6.191  16.487  0.00  0.00    +0.000 OA
BRANCH  14  16
ATOM     15  C   UNL     1       7.700   8.182  17.639  0.00  0.00    +0.000 C 
ATOM     16  C   UNL     1       7.676   6.657  17.611  0.00  0.00    +0.000 C 
ATOM     17  C   UNL     1       7.047   6.111  18.888  0.00  0.00    +0.000 C 
ENDBRANCH  14  16
ENDBRANCH  12  14
ENDBRANCH   1  12
BRANCH   1  18
ATOM     18  C   UNL     1       6.286   4.018  13.891  0.00  0.00    +0.000 C 
ATOM     19  N   UNL     1       6.581   3.719  12.703  0.00  0.00    +0.000 NA
ENDBRANCH   1  18
TORSDOF 6
ENDMDL
MODEL 3
REMARK VINA RESULT:      -6.7      3.329      5.688
REMARK  Name = 
REMARK  8 active torsions:
REMARK  status: ('A' for Active; 'I' for Inactive)
REMARK    1  A    between atoms: C_1  and  C_2
REMARK    2  A    between atoms: C_2  and  C_3
REMARK    3  A    between atoms: C_2  and  O_4
REMARK    4  A    between atoms: O_4  and  C_5
REMARK    5  A    between atoms: C_5  and  C_7
REMARK    6  A    between atoms: C_7  and  C_8
REMARK    7  A    between atoms: C_10  and  C_11
REMARK    8  A    between atoms: C_14  and  O_15
REMARK                            x       y       z     vdW  Elec       q    Type
REMARK                         _______ _______ _______ _____ _____    ______ ____
ROOT
ATOM      1  C   UNL     1       3.132   3.996  19.908  0.00  0.00    +0.000 C 
ATOM      2  C   UNL     1       4.439   3.734  19.700  0.00  0.00    +0.000 C 
ENDROOT
BRANCH   2   3
ATOM      3  C   UNL     1       5.302   4.359  18.682  0.00  0.00    +0.000 A 
ATOM      4  C   UNL     1       6.281   5.296  19.049  0.00  0.00    +0.000 A 
ATOM      5  C   UNL     1       7.096   5.890  18.078  0.00  0.00    +0.000 A 
ATOM      6  C   UNL     1       6.935   5.553  16.736  0.00  0.00    +0.000 A 
ATOM      7  C   UNL     1       5.979   4.605  16.364  0.00  0.00    +0.000 A 
ATOM      8 BR   UNL     1       5.742   4.097  14.552  0.00  0.00    +0.000 Br
ATOM      9  C   UNL     1       5.166   4.008  17.334  0.00  0.00    +0.000 A 
BRANCH   6  10
ATOM     10  O   UNL     1       7.714   6.151  15.785  0.00  0.00    +0.000 OA
ATOM     11  H   UNL     1       7.175   6.771  15.268  0.00  0.00    +0.000 HD
ENDBRANCH   6  10
ENDBRANCH   2   3
BRANCH   1  12
ATOM     12  C   UNL     1       2.367   4.935  19.034  0.00  0.00    +0.000 C 
ATOM     13  O   UNL     1       1.641   4.587  18.116  0.00  0.00    +0.000 OA
BRANCH  12  14
ATOM     14  O   UNL     1       2.575   6.232  19.397  0.00  0.00    +0.000 OA
BRANCH  14  16
ATOM     15  C   UNL     1       1.834   8.511  18.953  0.00  0.00    +0.000 C 
ATOM     16  C   UNL     1       2.332   7.200  18.351  0.00  0.00    +0.000 C 
ATOM     17  C   UNL     1       3.636   7.424  17.594  0.00  0.00    +0.000 C 
ENDBRANCH  14  16
ENDBRANCH  12  14
ENDBRANCH   1  12
BRANCH   1  18
ATOM     18  C   UNL     1       2.360   3.244  20.980  0.00  0.00    +0.000 C 
ATOM     19  N   UNL     1       1.719   2.621  21.869  0.00  0.00    +0.000 NA
ENDBRANCH   1  18
TORSDOF 6
ENDMDL
MODEL 4
REMARK VINA RESULT:      -6.6      3.401      5.782
REMARK  Name = 
REMARK  8 active torsions:
REMARK  status: ('A' for Active; 'I' for Inactive)
REMARK    1  A    between atoms: C_1  and  C_2
REMARK    2  A    between atoms: C_2  and  C_3
REMARK    3  A    between atoms: C_2  and  O_4
REMARK    4  A    between atoms: O_4  and  C_5
REMARK    5  A    between atoms: C_5  and  C_7
REMARK    6  A    between atoms: C_7  and  C_8
REMARK    7  A    between atoms: C_10  and  C_11
REMARK    8  A    between atoms: C_14  and  O_15
REMARK                            x       y       z     vdW  Elec       q    Type
REMARK                         _______ _______ _______ _____ _____    ______ ____
ROOT
ATOM      1  C   UNL     1       3.092   3.991  19.825  0.00  0.00    +0.000 C 
ATOM      2  C   UNL     1       4.355   3.652  19.495  0.00  0.00    +0.000 C 
ENDROOT
BRANCH   2   3
ATOM      3  C   UNL     1       5.145   4.212  18.384  0.00  0.00    +0.000 A 
ATOM      4  C   UNL     1       5.060   3.662  17.096  0.00  0.00    +0.000 A 
ATOM      5  C   UNL     1       5.816   4.194  16.043  0.00  0.00    +0.000 A 
ATOM      6  C   UNL     1       6.660   5.277  16.274  0.00  0.00    +0.000 A 
ATOM      7  C   UNL     1       6.735   5.845  17.548  0.00  0.00    +0.000 A 
ATOM      8 BR   UNL     1       7.853   7.335  17.903  0.00  0.00    +0.000 Br
ATOM      9  C   UNL     1       5.978   5.316  18.600  0.00  0.00    +0.000 A 
BRANCH   6  10
ATOM     10  O   UNL     1       7.417   5.781  15.253  0.00  0.00    +0.000 OA
ATOM     11  H   UNL     1       7.832   6.611  15.537  0.00  0.00    +0.000 HD
ENDBRANCH   6  10
ENDBRANCH   2   3
BRANCH   1  12
ATOM     12  C   UNL     1       2.297   4.959  19.013  0.00  0.00    +0.000 C 
ATOM     13  O   UNL     1       1.522   4.641  18.125  0.00  0.00    +0.000 OA
BRANCH  12  14
ATOM     14  O   UNL     1       2.538   6.245  19.395  0.00  0.00    +0.000 OA
BRANCH  14  16
ATOM     15  C   UNL     1       1.758   8.530  19.069  0.00  0.00    +0.000 C 
ATOM     16  C   UNL     1       2.225   7.242  18.397  0.00  0.00    +0.000 C 
ATOM     17  C   UNL     1       3.478   7.499  17.569  0.00  0.00    +0.000 C 
ENDBRANCH  14  16
ENDBRANCH  12  14
ENDBRANCH   1  12
BRANCH   1  18
ATOM     18  C   UNL     1       2.391   3.300  20.984  0.00  0.00    +0.000 C 
ATOM     19  N   UNL     1       1.810   2.727  21.945  0.00  0.00    +0.000 NA
ENDBRANCH   1  18
TORSDOF 6
ENDMDL
MODEL 5
REMARK VINA RESULT:      -6.6      2.218      3.399
REMARK  Name = 
REMARK  8 active torsions:
REMARK  status: ('A' for Active; 'I' for Inactive)
REMARK    1  A    between atoms: C_1  and  C_2
REMARK    2  A    between atoms: C_2  and  C_3
REMARK    3  A    between atoms: C_2  and  O_4
REMARK    4  A    between atoms: O_4  and  C_5
REMARK    5  A    between atoms: C_5  and  C_7
REMARK    6  A    between atoms: C_7  and  C_8
REMARK    7  A    between atoms: C_10  and  C_11
REMARK    8  A    between atoms: C_14  and  O_15
REMARK                            x       y       z     vdW  Elec       q    Type
REMARK                         _______ _______ _______ _____ _____    ______ ____
ROOT
ATOM      1  C   UNL     1       6.205   6.196  17.745  0.00  0.00    +0.000 C 
ATOM      2  C   UNL     1       4.873   6.245  17.959  0.00  0.00    +0.000 C 
ENDROOT
BRANCH   2   3
ATOM      3  C   UNL     1       3.979   5.090  18.155  0.00  0.00    +0.000 A 
ATOM      4  C   UNL     1       3.471   4.382  17.055  0.00  0.00    +0.000 A 
ATOM      5  C   UNL     1       2.619   3.287  17.246  0.00  0.00    +0.000 A 
ATOM      6  C   UNL     1       2.269   2.897  18.536  0.00  0.00    +0.000 A 
ATOM      7  C   UNL     1       2.787   3.582  19.637  0.00  0.00    +0.000 A 
ATOM      8 BR   UNL     1       2.358   3.071  21.413  0.00  0.00    +0.000 Br
ATOM      9  C   UNL     1       3.642   4.674  19.448  0.00  0.00    +0.000 A 
BRANCH   6  10
ATOM     10  O   UNL     1       1.417   1.843  18.722  0.00  0.00    +0.000 OA
ATOM     11  H   UNL     1       1.298   1.372  17.883  0.00  0.00    +0.000 HD
ENDBRANCH   6  10
ENDBRANCH   2   3
BRANCH   1  12
ATOM     12  C   UNL     1       6.933   4.901  17.602  0.00  0.00    +0.000 C 
ATOM     13  O   UNL     1       6.966   4.030  18.456  0.00  0.00    +0.000 OA
BRANCH  12  14
ATOM     14  O   UNL     1       7.552   4.810  16.390  0.00  0.00    +0.000 OA
BRANCH  14  16
ATOM     15  C   UNL     1       7.440   5.199  13.987  0.00  0.00    +0.000 C 
ATOM     16  C   UNL     1       6.662   4.848  15.252  0.00  0.00    +0.000 C 
ATOM     17  C   UNL     1       6.008   3.478  15.111  0.00  0.00    +0.000 C 
ENDBRANCH  14  16
ENDBRANCH  12  14
ENDBRANCH   1  12
BRANCH   1  18
ATOM     18  C   UNL     1       6.994   7.477  17.526  0.00  0.00    +0.000 C 
ATOM     19  N   UNL     1       7.649   8.539  17.345  0.00  0.00    +0.000 NA
ENDBRANCH   1  18
TORSDOF 6
ENDMDL
MODEL 6
REMARK VINA RESULT:      -6.6      1.910      2.435
REMARK  Name = 
REMARK  8 active torsions:
REMARK  status: ('A' for Active; 'I' for Inactive)
REMARK    1  A    between atoms: C_1  and  C_2
REMARK    2  A    between atoms: C_2  and  C_3
REMARK    3  A    between atoms: C_2  and  O_4
REMARK    4  A    between atoms: O_4  and  C_5
REMARK    5  A    between atoms: C_5  and  C_7
REMARK    6  A    between atoms: C_7  and  C_8
REMARK    7  A    between atoms: C_10  and  C_11
REMARK    8  A    between atoms: C_14  and  O_15
REMARK                            x       y       z     vdW  Elec       q    Type
REMARK                         _______ _______ _______ _____ _____    ______ ____
ROOT
ATOM      1  C   UNL     1       5.333   5.032  16.309  0.00  0.00    +0.000 C 
ATOM      2  C   UNL     1       4.637   3.895  16.519  0.00  0.00    +0.000 C 
ENDROOT
BRANCH   2   3
ATOM      3  C   UNL     1       3.534   3.713  17.479  0.00  0.00    +0.000 A 
ATOM      4  C   UNL     1       2.215   4.034  17.125  0.00  0.00    +0.000 A 
ATOM      5  C   UNL     1       1.170   3.863  18.042  0.00  0.00    +0.000 A 
ATOM      6  C   UNL     1       1.440   3.372  19.317  0.00  0.00    +0.000 A 
ATOM      7  C   UNL     1       2.747   3.029  19.671  0.00  0.00    +0.000 A 
ATOM      8 BR   UNL     1       3.157   2.334  21.388  0.00  0.00    +0.000 Br
ATOM      9  C   UNL     1       3.791   3.196  18.754  0.00  0.00    +0.000 A 
BRANCH   6  10
ATOM     10  O   UNL     1       0.424   3.228  20.221  0.00  0.00    +0.000 OA
ATOM     11  H   UNL     1       0.240   4.084  20.639  0.00  0.00    +0.000 HD
ENDBRANCH   6  10
ENDBRANCH   2   3
BRANCH   1  12
ATOM     12  C   UNL     1       5.098   6.262  17.123  0.00  0.00    +0.000 C 
ATOM     13  O   UNL     1       4.339   7.164  16.806  0.00  0.00    +0.000 OA
BRANCH  12  14
ATOM     14  O   UNL     1       5.833   6.246  18.271  0.00  0.00    +0.000 OA
BRANCH  14  16
ATOM     15  C   UNL     1       7.723   7.689  17.739  0.00  0.00    +0.000 C 
ATOM     16  C   UNL     1       7.265   6.273  18.074  0.00  0.00    +0.000 C 
ATOM     17  C   UNL     1       7.932   5.788  19.355  0.00  0.00    +0.000 C 
ENDBRANCH  14  16
ENDBRANCH  12  14
ENDBRANCH   1  12
BRANCH   1  18
ATOM     18  C   UNL     1       6.472   5.060  15.303  0.00  0.00    +0.000 C 
ATOM     19  N   UNL     1       7.416   5.083  14.468  0.00  0.00    +0.000 NA
ENDBRANCH   1  18
TORSDOF 6
ENDMDL
MODEL 7
REMARK VINA RESULT:      -6.5      1.086      1.398
REMARK  Name = 
REMARK  8 active torsions:
REMARK  status: ('A' for Active; 'I' for Inactive)
REMARK    1  A    between atoms: C_1  and  C_2
REMARK    2  A    between atoms: C_2  and  C_3
REMARK    3  A    between atoms: C_2  and  O_4
REMARK    4  A    between atoms: O_4  and  C_5
REMARK    5  A    between atoms: C_5  and  C_7
REMARK    6  A    between atoms: C_7  and  C_8
REMARK    7  A    between atoms: C_10  and  C_11
REMARK    8  A    between atoms: C_14  and  O_15
REMARK                            x       y       z     vdW  Elec       q    Type
REMARK                         _______ _______ _______ _____ _____    ______ ____
ROOT
ATOM      1  C   UNL     1       5.335   4.701  15.406  0.00  0.00    +0.000 C 
ATOM      2  C   UNL     1       4.545   3.984  16.233  0.00  0.00    +0.000 C 
ENDROOT
BRANCH   2   3
ATOM      3  C   UNL     1       3.935   4.461  17.487  0.00  0.00    +0.000 A 
ATOM      4  C   UNL     1       3.569   5.807  17.639  0.00  0.00    +0.000 A 
ATOM      5  C   UNL     1       2.993   6.258  18.833  0.00  0.00    +0.000 A 
ATOM      6  C   UNL     1       2.783   5.365  19.881  0.00  0.00    +0.000 A 
ATOM      7  C   UNL     1       3.124   4.019  19.732  0.00  0.00    +0.000 A 
ATOM      8 BR   UNL     1       2.834   2.763  21.123  0.00  0.00    +0.000 Br
ATOM      9  C   UNL     1       3.697   3.567  18.537  0.00  0.00    +0.000 A 
BRANCH   6  10
ATOM     10  O   UNL     1       2.244   5.809  21.057  0.00  0.00    +0.000 OA
ATOM     11  H   UNL     1       1.450   6.334  20.871  0.00  0.00    +0.000 HD
ENDBRANCH   6  10
ENDBRANCH   2   3
BRANCH   1  12
ATOM     12  C   UNL     1       5.756   6.096  15.731  0.00  0.00    +0.000 C 
ATOM     13  O   UNL     1       5.090   7.091  15.494  0.00  0.00    +0.000 OA
BRANCH  12  14
ATOM     14  O   UNL     1       6.977   6.118  16.336  0.00  0.00    +0.000 OA
BRANCH  14  16
ATOM     15  C   UNL     1       7.567   5.697  18.663  0.00  0.00    +0.000 C 
ATOM     16  C   UNL     1       6.986   6.692  17.663  0.00  0.00    +0.000 C 
ATOM     17  C   UNL     1       7.826   7.963  17.628  0.00  0.00    +0.000 C 
ENDBRANCH  14  16
ENDBRANCH  12  14
ENDBRANCH   1  12
BRANCH   1  18
ATOM     18  C   UNL     1       5.921   4.061  14.159  0.00  0.00    +0.000 C 
ATOM     19  N   UNL     1       6.407   3.529  13.124  0.00  0.00    +0.000 NA
ENDBRANCH   1  18
TORSDOF 6
ENDMDL
MODEL 8
REMARK VINA RESULT:      -6.5      3.430      5.833
REMARK  Name = 
REMARK  8 active torsions:
REMARK  status: ('A' for Active; 'I' for Inactive)
REMARK    1  A    between atoms: C_1  and  C_2
REMARK    2  A    between atoms: C_2  and  C_3
REMARK    3  A    between atoms: C_2  and  O_4
REMARK    4  A    between atoms: O_4  and  C_5
REMARK    5  A    between atoms: C_5  and  C_7
REMARK    6  A    between atoms: C_7  and  C_8
REMARK    7  A    between atoms: C_10  and  C_11
REMARK    8  A    between atoms: C_14  and  O_15
REMARK                            x       y       z     vdW  Elec       q    Type
REMARK                         _______ _______ _______ _____ _____    ______ ____
ROOT
ATOM      1  C   UNL     1       3.119   3.781  19.720  0.00  0.00    +0.000 C 
ATOM      2  C   UNL     1       4.438   3.635  19.476  0.00  0.00    +0.000 C 
ENDROOT
BRANCH   2   3
ATOM      3  C   UNL     1       5.179   4.192  18.331  0.00  0.00    +0.000 A 
ATOM      4  C   UNL     1       5.137   3.566  17.076  0.00  0.00    +0.000 A 
ATOM      5  C   UNL     1       5.846   4.097  15.991  0.00  0.00    +0.000 A 
ATOM      6  C   UNL     1       6.602   5.254  16.157  0.00  0.00    +0.000 A 
ATOM      7  C   UNL     1       6.632   5.898  17.396  0.00  0.00    +0.000 A 
ATOM      8 BR   UNL     1       7.628   7.490  17.661  0.00  0.00    +0.000 Br
ATOM      9  C   UNL     1       5.921   5.370  18.480  0.00  0.00    +0.000 A 
BRANCH   6  10
ATOM     10  O   UNL     1       7.315   5.760  15.104  0.00  0.00    +0.000 OA
ATOM     11  H   UNL     1       7.035   5.322  14.285  0.00  0.00    +0.000 HD
ENDBRANCH   6  10
ENDBRANCH   2   3
BRANCH   1  12
ATOM     12  C   UNL     1       2.215   4.491  18.768  0.00  0.00    +0.000 C 
ATOM     13  O   UNL     1       1.998   4.130  17.622  0.00  0.00    +0.000 OA
BRANCH  12  14
ATOM     14  O   UNL     1       1.654   5.593  19.343  0.00  0.00    +0.000 OA
BRANCH  14  16
ATOM     15  C   UNL     1       2.861   7.299  18.089  0.00  0.00    +0.000 C 
ATOM     16  C   UNL     1       2.540   6.728  19.468  0.00  0.00    +0.000 C 
ATOM     17  C   UNL     1       1.851   7.779  20.330  0.00  0.00    +0.000 C 
ENDBRANCH  14  16
ENDBRANCH  12  14
ENDBRANCH   1  12
BRANCH   1  18
ATOM     18  C   UNL     1       2.485   3.116  20.931  0.00  0.00    +0.000 C 
ATOM     19  N   UNL     1       1.959   2.565  21.935  0.00  0.00    +0.000 NA
ENDBRANCH   1  18
TORSDOF 6
ENDMDL
MODEL 9
REMARK VINA RESULT:      -6.5      3.235      5.764
REMARK  Name = 
REMARK  8 active torsions:
REMARK  status: ('A' for Active; 'I' for Inactive)
REMARK    1  A    between atoms: C_1  and  C_2
REMARK    2  A    between atoms: C_2  and  C_3
REMARK    3  A    between atoms: C_2  and  O_4
REMARK    4  A    between atoms: O_4  and  C_5
REMARK    5  A    between atoms: C_5  and  C_7
REMARK    6  A    between atoms: C_7  and  C_8
REMARK    7  A    between atoms: C_10  and  C_11
REMARK    8  A    between atoms: C_14  and  O_15
REMARK                            x       y       z     vdW  Elec       q    Type
REMARK                         _______ _______ _______ _____ _____    ______ ____
ROOT
ATOM      1  C   UNL     1       2.716   7.556  17.950  0.00  0.00    +0.000 C 
ATOM      2  C   UNL     1       3.880   7.732  17.291  0.00  0.00    +0.000 C 
ENDROOT
BRANCH   2   3
ATOM      3  C   UNL     1       4.978   6.754  17.187  0.00  0.00    +0.000 A 
ATOM      4  C   UNL     1       5.855   6.543  18.262  0.00  0.00    +0.000 A 
ATOM      5  C   UNL     1       6.899   5.616  18.157  0.00  0.00    +0.000 A 
ATOM      6  C   UNL     1       7.073   4.898  16.976  0.00  0.00    +0.000 A 
ATOM      7  C   UNL     1       6.193   5.085  15.909  0.00  0.00    +0.000 A 
ATOM      8 BR   UNL     1       6.376   4.112  14.291  0.00  0.00    +0.000 Br
ATOM      9  C   UNL     1       5.146   6.009  16.014  0.00  0.00    +0.000 A 
BRANCH   6  10
ATOM     10  O   UNL     1       8.108   4.011  16.864  0.00  0.00    +0.000 OA
ATOM     11  H   UNL     1       8.926   4.427  17.178  0.00  0.00    +0.000 HD
ENDBRANCH   6  10
ENDBRANCH   2   3
BRANCH   1  12
ATOM     12  C   UNL     1       2.437   6.323  18.743  0.00  0.00    +0.000 C 
ATOM     13  O   UNL     1       2.526   6.250  19.959  0.00  0.00    +0.000 OA
BRANCH  12  14
ATOM     14  O   UNL     1       2.061   5.289  17.940  0.00  0.00    +0.000 OA
BRANCH  14  16
ATOM     15  C   UNL     1       1.146   3.170  18.723  0.00  0.00    +0.000 C 
ATOM     16  C   UNL     1       2.409   3.977  18.437  0.00  0.00    +0.000 C 
ATOM     17  C   UNL     1       3.260   3.278  17.384  0.00  0.00    +0.000 C 
ENDBRANCH  14  16
ENDBRANCH  12  14
ENDBRANCH   1  12
BRANCH   1  18
ATOM     18  C   UNL     1       1.686   8.673  17.998  0.00  0.00    +0.000 C 
ATOM     19  N   UNL     1       0.832   9.600  18.037  0.00  0.00    +0.000 NA
ENDBRANCH   1  18
TORSDOF 6
ENDMDL
