MODEL 1
REMARK VINA RESULT:      -7.5      0.000      0.000
REMARK  Name = 
REMARK  5 active torsions:
REMARK  status: ('A' for Active; 'I' for Inactive)
REMARK    1  A    between atoms: C_1  and  S_2
REMARK    2  A    between atoms: S_2  and  C_5
REMARK    3  A    between atoms: C_8  and  C_9
REMARK    4  A    between atoms: N_13  and  C_14
REMARK    5  A    between atoms: C_17  and  O_18
REMARK                            x       y       z     vdW  Elec       q    Type
REMARK                         _______ _______ _______ _____ _____    ______ ____
ROOT
ATOM      1  C   UNL     1       2.501   5.329  18.130  0.00  0.00    +0.000 A 
ATOM      2  N   UNL     1       1.651   4.357  17.849  0.00  0.00    +0.000 NA
ATOM      3  N   UNL     1       2.345   3.424  17.127  0.00  0.00    +0.000 NA
ATOM      4  N   UNL     1       3.609   3.786  16.970  0.00  0.00    +0.000 NA
ATOM      5  N   UNL     1       3.763   4.904  17.717  0.00  0.00    +0.000 N 
ENDROOT
BRANCH   1   9
ATOM      6  C   UNL     1       1.403   9.171  19.646  0.00  0.00    +0.000 A 
ATOM      7  C   UNL     1       1.700   9.019  18.288  0.00  0.00    +0.000 A 
ATOM      8  C   UNL     1       2.062   7.758  17.799  0.00  0.00    +0.000 A 
ATOM      9  C   UNL     1       2.141   6.650  18.658  0.00  0.00    +0.000 A 
ATOM     10  C   UNL     1       1.920   6.853  20.032  0.00  0.00    +0.000 A 
ATOM     11  C   UNL     1       1.530   8.098  20.524  0.00  0.00    +0.000 A 
BRANCH   6  13
ATOM     12  C   UNL     1      -0.837  10.779  19.980  0.00  0.00    +0.000 C 
ATOM     13  S   UNL     1       0.912  10.754  20.281  0.00  0.00    +0.000 S 
ATOM     14  O   UNL     1       1.529  11.770  19.451  0.00  0.00    +0.000 OA
ATOM     15  O   UNL     1       1.120  10.735  21.716  0.00  0.00    +0.000 OA
ENDBRANCH   6  13
ENDBRANCH   1   9
BRANCH   5  16
ATOM     16  C   UNL     1       5.045   5.451  17.968  0.00  0.00    +0.000 A 
ATOM     17  C   UNL     1       5.559   6.429  17.106  0.00  0.00    +0.000 A 
ATOM     18  C   UNL     1       6.778   7.046  17.406  0.00  0.00    +0.000 A 
ATOM     19  C   UNL     1       7.487   6.655  18.538  0.00  0.00    +0.000 A 
ATOM     20  C   UNL     1       7.009   5.648  19.369  0.00  0.00    +0.000 A 
ATOM     21  C   UNL     1       5.786   5.040  19.085  0.00  0.00    +0.000 A 
BRANCH  19  22
ATOM     22  O   UNL     1       8.671   7.238  18.877  0.00  0.00    +0.000 OA
ATOM     23  H   UNL     1       8.884   7.922  18.221  0.00  0.00    +0.000 HD
ENDBRANCH  19  22
ENDBRANCH   5  16
TORSDOF 4
ENDMDL
MODEL 2
REMARK VINA RESULT:      -7.5      2.079      2.652
REMARK  Name = 
REMARK  5 active torsions:
REMARK  status: ('A' for Active; 'I' for Inactive)
REMARK    1  A    between atoms: C_1  and  S_2
REMARK    2  A    between atoms: S_2  and  C_5
REMARK    3  A    between atoms: C_8  and  C_9
REMARK    4  A    between atoms: N_13  and  C_14
REMARK    5  A    between atoms: C_17  and  O_18
REMARK                            x       y       z     vdW  Elec       q    Type
REMARK                         _______ _______ _______ _____ _____    ______ ____
ROOT
ATOM      1  C   UNL     1       3.238   4.591  19.652  0.00  0.00    +0.000 A 
ATOM      2  N   UNL     1       2.844   3.773  20.613  0.00  0.00    +0.000 NA
ATOM      3  N   UNL     1       3.369   2.543  20.321  0.00  0.00    +0.000 NA
ATOM      4  N   UNL     1       4.093   2.584  19.213  0.00  0.00    +0.000 NA
ATOM      5  N   UNL     1       4.145   3.890  18.860  0.00  0.00    +0.000 N 
ENDROOT
BRANCH   1   9
ATOM      6  C   UNL     1       1.737   8.534  18.971  0.00  0.00    +0.000 A 
ATOM      7  C   UNL     1       1.597   7.946  20.231  0.00  0.00    +0.000 A 
ATOM      8  C   UNL     1       2.089   6.652  20.447  0.00  0.00    +0.000 A 
ATOM      9  C   UNL     1       2.708   5.938  19.409  0.00  0.00    +0.000 A 
ATOM     10  C   UNL     1       2.757   6.524  18.131  0.00  0.00    +0.000 A 
ATOM     11  C   UNL     1       2.297   7.822  17.914  0.00  0.00    +0.000 A 
BRANCH   6  13
ATOM     12  C   UNL     1       0.943  10.824  20.329  0.00  0.00    +0.000 C 
ATOM     13  S   UNL     1       1.149  10.184  18.685  0.00  0.00    +0.000 S 
ATOM     14  O   UNL     1      -0.160  10.083  18.071  0.00  0.00    +0.000 OA
ATOM     15  O   UNL     1       2.219  10.927  18.047  0.00  0.00    +0.000 OA
ENDBRANCH   6  13
ENDBRANCH   1   9
BRANCH   5  16
ATOM     16  C   UNL     1       5.020   4.342  17.843  0.00  0.00    +0.000 A 
ATOM     17  C   UNL     1       6.182   5.044  18.193  0.00  0.00    +0.000 A 
ATOM     18  C   UNL     1       7.101   5.402  17.201  0.00  0.00    +0.000 A 
ATOM     19  C   UNL     1       6.833   5.094  15.871  0.00  0.00    +0.000 A 
ATOM     20  C   UNL     1       5.657   4.446  15.509  0.00  0.00    +0.000 A 
ATOM     21  C   UNL     1       4.744   4.070  16.495  0.00  0.00    +0.000 A 
BRANCH  19  22
ATOM     22  O   UNL     1       7.705   5.412  14.874  0.00  0.00    +0.000 OA
ATOM     23  H   UNL     1       7.218   5.855  14.159  0.00  0.00    +0.000 HD
ENDBRANCH  19  22
ENDBRANCH   5  16
TORSDOF 4
ENDMDL
MODEL 3
REMARK VINA RESULT:      -7.5      1.974      2.474
REMARK  Name = 
REMARK  5 active torsions:
REMARK  status: ('A' for Active; 'I' for Inactive)
REMARK    1  A    between atoms: C_1  and  S_2
REMARK    2  A    between atoms: S_2  and  C_5
REMARK    3  A    between atoms: C_8  and  C_9
REMARK    4  A    between atoms: N_13  and  C_14
REMARK    5  A    between atoms: C_17  and  O_18
REMARK                            x       y       z     vdW  Elec       q    Type
REMARK                         _______ _______ _______ _____ _____    ______ ____
ROOT
ATOM      1  C   UNL     1       2.908   4.786  20.081  0.00  0.00    +0.000 A 
ATOM      2  N   UNL     1       2.394   4.017  21.025  0.00  0.00    +0.000 NA
ATOM      3  N   UNL     1       2.903   2.762  20.830  0.00  0.00    +0.000 NA
ATOM      4  N   UNL     1       3.734   2.739  19.800  0.00  0.00    +0.000 NA
ATOM      5  N   UNL     1       3.865   4.028  19.409  0.00  0.00    +0.000 N 
ENDROOT
BRANCH   1   9
ATOM      6  C   UNL     1       1.615   8.742  19.113  0.00  0.00    +0.000 A 
ATOM      7  C   UNL     1       1.371   8.225  20.388  0.00  0.00    +0.000 A 
ATOM      8  C   UNL     1       1.794   6.926  20.697  0.00  0.00    +0.000 A 
ATOM      9  C   UNL     1       2.449   6.137  19.738  0.00  0.00    +0.000 A 
ATOM     10  C   UNL     1       2.604   6.655  18.440  0.00  0.00    +0.000 A 
ATOM     11  C   UNL     1       2.212   7.958  18.130  0.00  0.00    +0.000 A 
BRANCH   6  13
ATOM     12  C   UNL     1       0.953  11.164  20.303  0.00  0.00    +0.000 C 
ATOM     13  S   UNL     1       1.114  10.397  18.710  0.00  0.00    +0.000 S 
ATOM     14  O   UNL     1      -0.202  10.322  18.108  0.00  0.00    +0.000 OA
ATOM     15  O   UNL     1       2.218  11.034  18.016  0.00  0.00    +0.000 OA
ENDBRANCH   6  13
ENDBRANCH   1   9
BRANCH   5  16
ATOM     16  C   UNL     1       4.851   4.416  18.469  0.00  0.00    +0.000 A 
ATOM     17  C   UNL     1       4.702   4.056  17.123  0.00  0.00    +0.000 A 
ATOM     18  C   UNL     1       5.617   4.523  16.175  0.00  0.00    +0.000 A 
ATOM     19  C   UNL     1       6.690   5.309  16.583  0.00  0.00    +0.000 A 
ATOM     20  C   UNL     1       6.876   5.626  17.924  0.00  0.00    +0.000 A 
ATOM     21  C   UNL     1       5.957   5.178  18.873  0.00  0.00    +0.000 A 
BRANCH  19  22
ATOM     22  O   UNL     1       7.599   5.797  15.692  0.00  0.00    +0.000 OA
ATOM     23  H   UNL     1       7.763   5.125  15.010  0.00  0.00    +0.000 HD
ENDBRANCH  19  22
ENDBRANCH   5  16
TORSDOF 4
ENDMDL
MODEL 4
REMARK VINA RESULT:      -7.5      2.069      2.465
REMARK  Name = 
REMARK  5 active torsions:
REMARK  status: ('A' for Active; 'I' for Inactive)
REMARK    1  A    between atoms: C_1  and  S_2
REMARK    2  A    between atoms: S_2  and  C_5
REMARK    3  A    between atoms: C_8  and  C_9
REMARK    4  A    between atoms: N_13  and  C_14
REMARK    5  A    between atoms: C_17  and  O_18
REMARK                            x       y       z     vdW  Elec       q    Type
REMARK                         _______ _______ _______ _____ _____    ______ ____
ROOT
ATOM      1  C   UNL     1       3.231   4.573  19.592  0.00  0.00    +0.000 A 
ATOM      2  N   UNL     1       2.808   3.743  20.530  0.00  0.00    +0.000 NA
ATOM      3  N   UNL     1       3.300   2.507  20.211  0.00  0.00    +0.000 NA
ATOM      4  N   UNL     1       4.032   2.555  19.109  0.00  0.00    +0.000 NA
ATOM      5  N   UNL     1       4.124   3.866  18.789  0.00  0.00    +0.000 N 
ENDROOT
BRANCH   1   9
ATOM      6  C   UNL     1       1.760   8.533  18.942  0.00  0.00    +0.000 A 
ATOM      7  C   UNL     1       2.404   7.852  17.904  0.00  0.00    +0.000 A 
ATOM      8  C   UNL     1       2.886   6.556  18.125  0.00  0.00    +0.000 A 
ATOM      9  C   UNL     1       2.740   5.940  19.378  0.00  0.00    +0.000 A 
ATOM     10  C   UNL     1       2.165   6.683  20.425  0.00  0.00    +0.000 A 
ATOM     11  C   UNL     1       1.655   7.962  20.207  0.00  0.00    +0.000 A 
BRANCH   6  13
ATOM     12  C   UNL     1       0.847  10.763  20.323  0.00  0.00    +0.000 C 
ATOM     13  S   UNL     1       1.114  10.164  18.673  0.00  0.00    +0.000 S 
ATOM     14  O   UNL     1      -0.176  10.024  18.027  0.00  0.00    +0.000 OA
ATOM     15  O   UNL     1       2.168  10.960  18.073  0.00  0.00    +0.000 OA
ENDBRANCH   6  13
ENDBRANCH   1   9
BRANCH   5  16
ATOM     16  C   UNL     1       5.018   4.319  17.789  0.00  0.00    +0.000 A 
ATOM     17  C   UNL     1       6.208   4.957  18.164  0.00  0.00    +0.000 A 
ATOM     18  C   UNL     1       7.143   5.313  17.186  0.00  0.00    +0.000 A 
ATOM     19  C   UNL     1       6.864   5.065  15.846  0.00  0.00    +0.000 A 
ATOM     20  C   UNL     1       5.663   4.480  15.461  0.00  0.00    +0.000 A 
ATOM     21  C   UNL     1       4.733   4.107  16.432  0.00  0.00    +0.000 A 
BRANCH  19  22
ATOM     22  O   UNL     1       7.750   5.382  14.860  0.00  0.00    +0.000 OA
ATOM     23  H   UNL     1       8.047   4.563  14.429  0.00  0.00    +0.000 HD
ENDBRANCH  19  22
ENDBRANCH   5  16
TORSDOF 4
ENDMDL
MODEL 5
REMARK VINA RESULT:      -7.4      1.895      2.208
REMARK  Name = 
REMARK  5 active torsions:
REMARK  status: ('A' for Active; 'I' for Inactive)
REMARK    1  A    between atoms: C_1  and  S_2
REMARK    2  A    between atoms: S_2  and  C_5
REMARK    3  A    between atoms: C_8  and  C_9
REMARK    4  A    between atoms: N_13  and  C_14
REMARK    5  A    between atoms: C_17  and  O_18
REMARK                            x       y       z     vdW  Elec       q    Type
REMARK                         _______ _______ _______ _____ _____    ______ ____
ROOT
ATOM      1  C   UNL     1       2.791   4.887  20.081  0.00  0.00    +0.000 A 
ATOM      2  N   UNL     1       2.236   4.103  20.989  0.00  0.00    +0.000 NA
ATOM      3  N   UNL     1       2.709   2.840  20.759  0.00  0.00    +0.000 NA
ATOM      4  N   UNL     1       3.558   2.826  19.743  0.00  0.00    +0.000 NA
ATOM      5  N   UNL     1       3.736   4.122  19.400  0.00  0.00    +0.000 N 
ENDROOT
BRANCH   1   9
ATOM      6  C   UNL     1       1.559   8.877  19.173  0.00  0.00    +0.000 A 
ATOM      7  C   UNL     1       2.177   8.100  18.189  0.00  0.00    +0.000 A 
ATOM      8  C   UNL     1       2.582   6.795  18.494  0.00  0.00    +0.000 A 
ATOM      9  C   UNL     1       2.383   6.264  19.779  0.00  0.00    +0.000 A 
ATOM     10  C   UNL     1       1.836   7.099  20.769  0.00  0.00    +0.000 A 
ATOM     11  C   UNL     1       1.403   8.390  20.468  0.00  0.00    +0.000 A 
BRANCH   6  13
ATOM     12  C   UNL     1       0.820  11.256  20.404  0.00  0.00    +0.000 C 
ATOM     13  S   UNL     1       1.011  10.523  18.798  0.00  0.00    +0.000 S 
ATOM     14  O   UNL     1      -0.300  10.420  18.188  0.00  0.00    +0.000 OA
ATOM     15  O   UNL     1       2.098  11.204  18.121  0.00  0.00    +0.000 OA
ENDBRANCH   6  13
ENDBRANCH   1   9
BRANCH   5  16
ATOM     16  C   UNL     1       4.752   4.510  18.492  0.00  0.00    +0.000 A 
ATOM     17  C   UNL     1       4.617   4.200  17.132  0.00  0.00    +0.000 A 
ATOM     18  C   UNL     1       5.564   4.669  16.216  0.00  0.00    +0.000 A 
ATOM     19  C   UNL     1       6.653   5.407  16.670  0.00  0.00    +0.000 A 
ATOM     20  C   UNL     1       6.822   5.674  18.024  0.00  0.00    +0.000 A 
ATOM     21  C   UNL     1       5.872   5.223  18.941  0.00  0.00    +0.000 A 
BRANCH  19  22
ATOM     22  O   UNL     1       7.593   5.897  15.813  0.00  0.00    +0.000 OA
ATOM     23  H   UNL     1       7.181   6.572  15.248  0.00  0.00    +0.000 HD
ENDBRANCH  19  22
ENDBRANCH   5  16
TORSDOF 4
ENDMDL
MODEL 6
REMARK VINA RESULT:      -7.4      1.874      2.379
REMARK  Name = 
REMARK  5 active torsions:
REMARK  status: ('A' for Active; 'I' for Inactive)
REMARK    1  A    between atoms: C_1  and  S_2
REMARK    2  A    between atoms: S_2  and  C_5
REMARK    3  A    between atoms: C_8  and  C_9
REMARK    4  A    between atoms: N_13  and  C_14
REMARK    5  A    between atoms: C_17  and  O_18
REMARK                            x       y       z     vdW  Elec       q    Type
REMARK                         _______ _______ _______ _____ _____    ______ ____
ROOT
ATOM      1  C   UNL     1       2.960   4.783  19.896  0.00  0.00    +0.000 A 
ATOM      2  N   UNL     1       2.500   3.949  20.813  0.00  0.00    +0.000 NA
ATOM      3  N   UNL     1       2.999   2.712  20.505  0.00  0.00    +0.000 NA
ATOM      4  N   UNL     1       3.771   2.764  19.431  0.00  0.00    +0.000 NA
ATOM      5  N   UNL     1       3.879   4.077  19.122  0.00  0.00    +0.000 N 
ENDROOT
BRANCH   1   9
ATOM      6  C   UNL     1       1.612   8.790  19.274  0.00  0.00    +0.000 A 
ATOM      7  C   UNL     1       1.430   8.182  20.519  0.00  0.00    +0.000 A 
ATOM      8  C   UNL     1       1.871   6.867  20.715  0.00  0.00    +0.000 A 
ATOM      9  C   UNL     1       2.482   6.152  19.673  0.00  0.00    +0.000 A 
ATOM     10  C   UNL     1       2.574   6.762  18.409  0.00  0.00    +0.000 A 
ATOM     11  C   UNL     1       2.165   8.081  18.211  0.00  0.00    +0.000 A 
BRANCH   6  13
ATOM     12  C   UNL     1      -0.469  10.272  18.181  0.00  0.00    +0.000 C 
ATOM     13  S   UNL     1       1.088  10.466  19.014  0.00  0.00    +0.000 S 
ATOM     14  O   UNL     1       2.022  11.079  18.091  0.00  0.00    +0.000 OA
ATOM     15  O   UNL     1       0.829  11.052  20.316  0.00  0.00    +0.000 OA
ENDBRANCH   6  13
ENDBRANCH   1   9
BRANCH   5  16
ATOM     16  C   UNL     1       4.811   4.532  18.158  0.00  0.00    +0.000 A 
ATOM     17  C   UNL     1       5.972   5.193  18.579  0.00  0.00    +0.000 A 
ATOM     18  C   UNL     1       6.945   5.552  17.640  0.00  0.00    +0.000 A 
ATOM     19  C   UNL     1       6.731   5.285  16.291  0.00  0.00    +0.000 A 
ATOM     20  C   UNL     1       5.558   4.677  15.859  0.00  0.00    +0.000 A 
ATOM     21  C   UNL     1       4.591   4.300  16.792  0.00  0.00    +0.000 A 
BRANCH  19  22
ATOM     22  O   UNL     1       7.656   5.604  15.343  0.00  0.00    +0.000 OA
ATOM     23  H   UNL     1       8.285   6.241  15.720  0.00  0.00    +0.000 HD
ENDBRANCH  19  22
ENDBRANCH   5  16
TORSDOF 4
ENDMDL
MODEL 7
REMARK VINA RESULT:      -7.3      1.977      2.328
REMARK  Name = 
REMARK  5 active torsions:
REMARK  status: ('A' for Active; 'I' for Inactive)
REMARK    1  A    between atoms: C_1  and  S_2
REMARK    2  A    between atoms: S_2  and  C_5
REMARK    3  A    between atoms: C_8  and  C_9
REMARK    4  A    between atoms: N_13  and  C_14
REMARK    5  A    between atoms: C_17  and  O_18
REMARK                            x       y       z     vdW  Elec       q    Type
REMARK                         _______ _______ _______ _____ _____    ______ ____
ROOT
ATOM      1  C   UNL     1       2.620   4.617  20.085  0.00  0.00    +0.000 A 
ATOM      2  N   UNL     1       2.014   3.859  20.982  0.00  0.00    +0.000 NA
ATOM      3  N   UNL     1       2.401   2.570  20.734  0.00  0.00    +0.000 NA
ATOM      4  N   UNL     1       3.246   2.514  19.716  0.00  0.00    +0.000 NA
ATOM      5  N   UNL     1       3.510   3.800  19.390  0.00  0.00    +0.000 N 
ENDROOT
BRANCH   1   9
ATOM      6  C   UNL     1       1.656   8.693  19.235  0.00  0.00    +0.000 A 
ATOM      7  C   UNL     1       2.245   7.898  18.248  0.00  0.00    +0.000 A 
ATOM      8  C   UNL     1       2.561   6.564  18.534  0.00  0.00    +0.000 A 
ATOM      9  C   UNL     1       2.304   6.022  19.803  0.00  0.00    +0.000 A 
ATOM     10  C   UNL     1       1.790   6.870  20.800  0.00  0.00    +0.000 A 
ATOM     11  C   UNL     1       1.444   8.191  20.517  0.00  0.00    +0.000 A 
BRANCH   6  13
ATOM     12  C   UNL     1      -0.369  10.222  18.105  0.00  0.00    +0.000 C 
ATOM     13  S   UNL     1       1.220  10.377  18.883  0.00  0.00    +0.000 S 
ATOM     14  O   UNL     1       2.159  10.877  17.900  0.00  0.00    +0.000 OA
ATOM     15  O   UNL     1       1.033  11.056  20.152  0.00  0.00    +0.000 OA
ENDBRANCH   6  13
ENDBRANCH   1   9
BRANCH   5  16
ATOM     16  C   UNL     1       4.548   4.132  18.486  0.00  0.00    +0.000 A 
ATOM     17  C   UNL     1       5.709   4.753  18.965  0.00  0.00    +0.000 A 
ATOM     18  C   UNL     1       6.779   4.988  18.095  0.00  0.00    +0.000 A 
ATOM     19  C   UNL     1       6.664   4.640  16.753  0.00  0.00    +0.000 A 
ATOM     20  C   UNL     1       5.495   4.072  16.258  0.00  0.00    +0.000 A 
ATOM     21  C   UNL     1       4.431   3.818  17.124  0.00  0.00    +0.000 A 
BRANCH  19  22
ATOM     22  O   UNL     1       7.685   4.838  15.872  0.00  0.00    +0.000 OA
ATOM     23  H   UNL     1       8.522   4.602  16.304  0.00  0.00    +0.000 HD
ENDBRANCH  19  22
ENDBRANCH   5  16
TORSDOF 4
ENDMDL
MODEL 8
REMARK VINA RESULT:      -7.3      1.227      1.352
REMARK  Name = 
REMARK  5 active torsions:
REMARK  status: ('A' for Active; 'I' for Inactive)
REMARK    1  A    between atoms: C_1  and  S_2
REMARK    2  A    between atoms: S_2  and  C_5
REMARK    3  A    between atoms: C_8  and  C_9
REMARK    4  A    between atoms: N_13  and  C_14
REMARK    5  A    between atoms: C_17  and  O_18
REMARK                            x       y       z     vdW  Elec       q    Type
REMARK                         _______ _______ _______ _____ _____    ______ ____
ROOT
ATOM      1  C   UNL     1       2.664   4.818  18.189  0.00  0.00    +0.000 A 
ATOM      2  N   UNL     1       1.887   3.850  17.734  0.00  0.00    +0.000 NA
ATOM      3  N   UNL     1       2.588   3.215  16.746  0.00  0.00    +0.000 NA
ATOM      4  N   UNL     1       3.787   3.754  16.590  0.00  0.00    +0.000 NA
ATOM      5  N   UNL     1       3.910   4.663  17.585  0.00  0.00    +0.000 N 
ENDROOT
BRANCH   1   9
ATOM      6  C   UNL     1       1.371   8.017  20.710  0.00  0.00    +0.000 A 
ATOM      7  C   UNL     1       1.896   8.298  19.445  0.00  0.00    +0.000 A 
ATOM      8  C   UNL     1       2.321   7.245  18.625  0.00  0.00    +0.000 A 
ATOM      9  C   UNL     1       2.235   5.915  19.065  0.00  0.00    +0.000 A 
ATOM     10  C   UNL     1       1.782   5.671  20.374  0.00  0.00    +0.000 A 
ATOM     11  C   UNL     1       1.330   6.710  21.187  0.00  0.00    +0.000 A 
BRANCH   6  13
ATOM     12  C   UNL     1       0.763  10.727  20.650  0.00  0.00    +0.000 C 
ATOM     13  S   UNL     1       0.798   9.335  21.752  0.00  0.00    +0.000 S 
ATOM     14  O   UNL     1       1.817   9.576  22.754  0.00  0.00    +0.000 OA
ATOM     15  O   UNL     1      -0.568   9.031  22.133  0.00  0.00    +0.000 OA
ENDBRANCH   6  13
ENDBRANCH   1   9
BRANCH   5  16
ATOM     16  C   UNL     1       5.153   5.280  17.869  0.00  0.00    +0.000 A 
ATOM     17  C   UNL     1       5.627   6.296  17.028  0.00  0.00    +0.000 A 
ATOM     18  C   UNL     1       6.800   6.980  17.360  0.00  0.00    +0.000 A 
ATOM     19  C   UNL     1       7.508   6.618  18.502  0.00  0.00    +0.000 A 
ATOM     20  C   UNL     1       7.073   5.576  19.313  0.00  0.00    +0.000 A 
ATOM     21  C   UNL     1       5.894   4.901  18.997  0.00  0.00    +0.000 A 
BRANCH  19  22
ATOM     22  O   UNL     1       8.649   7.265  18.872  0.00  0.00    +0.000 OA
ATOM     23  H   UNL     1       9.414   6.726  18.613  0.00  0.00    +0.000 HD
ENDBRANCH  19  22
ENDBRANCH   5  16
TORSDOF 4
ENDMDL
MODEL 9
REMARK VINA RESULT:      -7.3      0.126      1.039
REMARK  Name = 
REMARK  5 active torsions:
REMARK  status: ('A' for Active; 'I' for Inactive)
REMARK    1  A    between atoms: C_1  and  S_2
REMARK    2  A    between atoms: S_2  and  C_5
REMARK    3  A    between atoms: C_8  and  C_9
REMARK    4  A    between atoms: N_13  and  C_14
REMARK    5  A    between atoms: C_17  and  O_18
REMARK                            x       y       z     vdW  Elec       q    Type
REMARK                         _______ _______ _______ _____ _____    ______ ____
ROOT
ATOM      1  C   UNL     1       2.577   5.276  18.065  0.00  0.00    +0.000 A 
ATOM      2  N   UNL     1       1.759   4.276  17.787  0.00  0.00    +0.000 NA
ATOM      3  N   UNL     1       2.489   3.356  17.083  0.00  0.00    +0.000 NA
ATOM      4  N   UNL     1       3.742   3.755  16.935  0.00  0.00    +0.000 NA
ATOM      5  N   UNL     1       3.855   4.885  17.669  0.00  0.00    +0.000 N 
ENDROOT
BRANCH   1   9
ATOM      6  C   UNL     1       1.448   9.114  19.567  0.00  0.00    +0.000 A 
ATOM      7  C   UNL     1       1.533   8.025  20.439  0.00  0.00    +0.000 A 
ATOM      8  C   UNL     1       1.901   6.770  19.939  0.00  0.00    +0.000 A 
ATOM      9  C   UNL     1       2.172   6.592  18.573  0.00  0.00    +0.000 A 
ATOM     10  C   UNL     1       1.995   7.688  17.709  0.00  0.00    +0.000 A 
ATOM     11  C   UNL     1       1.659   8.948  18.201  0.00  0.00    +0.000 A 
BRANCH   6  13
ATOM     12  C   UNL     1      -0.743  10.782  19.937  0.00  0.00    +0.000 C 
ATOM     13  S   UNL     1       1.014  10.721  20.185  0.00  0.00    +0.000 S 
ATOM     14  O   UNL     1       1.629  11.705  19.317  0.00  0.00    +0.000 OA
ATOM     15  O   UNL     1       1.265  10.724  21.614  0.00  0.00    +0.000 OA
ENDBRANCH   6  13
ENDBRANCH   1   9
BRANCH   5  16
ATOM     16  C   UNL     1       5.117   5.473  17.926  0.00  0.00    +0.000 A 
ATOM     17  C   UNL     1       5.589   6.490  17.085  0.00  0.00    +0.000 A 
ATOM     18  C   UNL     1       6.786   7.146  17.393  0.00  0.00    +0.000 A 
ATOM     19  C   UNL     1       7.517   6.754  18.511  0.00  0.00    +0.000 A 
ATOM     20  C   UNL     1       7.083   5.710  19.320  0.00  0.00    +0.000 A 
ATOM     21  C   UNL     1       5.881   5.064  19.029  0.00  0.00    +0.000 A 
BRANCH  19  22
ATOM     22  O   UNL     1       8.681   7.373  18.857  0.00  0.00    +0.000 OA
ATOM     23  H   UNL     1       9.216   6.760  19.388  0.00  0.00    +0.000 HD
ENDBRANCH  19  22
ENDBRANCH   5  16
TORSDOF 4
ENDMDL
