MODEL 1
REMARK VINA RESULT:      -9.6      0.000      0.000
REMARK  Name = 
REMARK  6 active torsions:
REMARK  status: ('A' for Active; 'I' for Inactive)
REMARK    1  A    between atoms: C_1  and  N_2
REMARK    2  A    between atoms: C_4  and  C_5
REMARK    3  A    between atoms: C_8  and  N_9
REMARK    4  A    between atoms: C_10  and  C_12
REMARK    5  A    between atoms: C_12  and  C_13
REMARK    6  A    between atoms: C_13  and  C_14
REMARK                            x       y       z     vdW  Elec       q    Type
REMARK                         _______ _______ _______ _____ _____    ______ ____
ROOT
ATOM      1  N   UNL     1       2.853   5.108  19.018  0.00  0.00    +0.000 N 
ATOM      2  C   UNL     1       2.276   4.190  18.160  0.00  0.00    +0.000 C 
ATOM      3  O   UNL     1       1.275   4.349  17.460  0.00  0.00    +0.000 OA
ATOM      4  H   UNL     1       3.705   4.854  19.511  0.00  0.00    +0.000 HD
ENDROOT
BRANCH   1   8
ATOM      5  C   UNL     1       1.378   9.039  19.697  0.00  0.00    +0.000 A 
ATOM      6  C   UNL     1       1.896   8.694  18.455  0.00  0.00    +0.000 A 
ATOM      7  C   UNL     1       2.386   7.393  18.241  0.00  0.00    +0.000 A 
ATOM      8  C   UNL     1       2.368   6.424  19.247  0.00  0.00    +0.000 A 
ATOM      9  C   UNL     1       1.836   6.783  20.492  0.00  0.00    +0.000 A 
ATOM     10  C   UNL     1       1.356   8.071  20.706  0.00  0.00    +0.000 A 
BRANCH   5  14
ATOM     11  C   UNL     1       0.639  13.748  18.993  0.00  0.00    +0.000 C 
ATOM     12  N   UNL     1       0.543  12.457  19.646  0.00  0.00    +0.000 N 
ATOM     13  N   UNL     1       1.143  11.395  19.093  0.00  0.00    +0.000 NA
ATOM     14  C   UNL     1       0.881  10.389  19.940  0.00  0.00    +0.000 A 
ATOM     15  C   UNL     1       0.086  10.838  21.041  0.00  0.00    +0.000 A 
ATOM     16  C   UNL     1      -0.467  10.253  22.199  0.00  0.00    +0.000 A 
ATOM     17  C   UNL     1      -1.180  11.051  23.101  0.00  0.00    +0.000 A 
ATOM     18  C   UNL     1      -1.339  12.410  22.861  0.00  0.00    +0.000 A 
ATOM     19  C   UNL     1      -0.806  13.016  21.721  0.00  0.00    +0.000 A 
ATOM     20  C   UNL     1      -0.100  12.201  20.824  0.00  0.00    +0.000 A 
ENDBRANCH   5  14
ENDBRANCH   1   8
BRANCH   2  21
ATOM     21  C   UNL     1       2.995   2.872  18.037  0.00  0.00    +0.000 C 
BRANCH  21  22
ATOM     22  C   UNL     1       3.989   2.889  16.865  0.00  0.00    +0.000 C 
BRANCH  22  23
ATOM     23  C   UNL     1       5.010   4.007  16.963  0.00  0.00    +0.000 A 
ATOM     24  N   UNL     1       5.615   4.249  18.077  0.00  0.00    +0.000 NA
ATOM     25  C   UNL     1       6.465   5.376  18.100  0.00  0.00    +0.000 A 
ATOM     26  C   UNL     1       7.420   5.542  19.095  0.00  0.00    +0.000 A 
ATOM     27  C   UNL     1       8.241   6.682  19.105  0.00  0.00    +0.000 A 
ATOM     28  C   UNL     1       8.083   7.681  18.140  0.00  0.00    +0.000 A 
ATOM     29  C   UNL     1       7.114   7.543  17.153  0.00  0.00    +0.000 A 
ATOM     30  C   UNL     1       6.349   6.374  17.129  0.00  0.00    +0.000 A 
ATOM     31  C   UNL     1       5.464   6.076  15.994  0.00  0.00    +0.000 A 
ATOM     32  O   UNL     1       4.955   6.965  15.328  0.00  0.00    +0.000 OA
ATOM     33  N   UNL     1       5.177   4.757  15.834  0.00  0.00    +0.000 N 
ATOM     34  H   UNL     1       4.625   4.561  15.011  0.00  0.00    +0.000 HD
ENDBRANCH  22  23
ENDBRANCH  21  22
ENDBRANCH   2  21
TORSDOF 5
ENDMDL
MODEL 2
REMARK VINA RESULT:      -9.4      1.170      2.296
REMARK  Name = 
REMARK  6 active torsions:
REMARK  status: ('A' for Active; 'I' for Inactive)
REMARK    1  A    between atoms: C_1  and  N_2
REMARK    2  A    between atoms: C_4  and  C_5
REMARK    3  A    between atoms: C_8  and  N_9
REMARK    4  A    between atoms: C_10  and  C_12
REMARK    5  A    between atoms: C_12  and  C_13
REMARK    6  A    between atoms: C_13  and  C_14
REMARK                            x       y       z     vdW  Elec       q    Type
REMARK                         _______ _______ _______ _____ _____    ______ ____
ROOT
ATOM      1  N   UNL     1       2.850   5.355  18.910  0.00  0.00    +0.000 N 
ATOM      2  C   UNL     1       2.277   4.327  18.184  0.00  0.00    +0.000 C 
ATOM      3  O   UNL     1       1.234   4.365  17.531  0.00  0.00    +0.000 OA
ATOM      4  H   UNL     1       3.740   5.194  19.376  0.00  0.00    +0.000 HD
ENDROOT
BRANCH   1   8
ATOM      5  C   UNL     1       1.254   9.280  19.282  0.00  0.00    +0.000 A 
ATOM      6  C   UNL     1       1.243   8.418  20.370  0.00  0.00    +0.000 A 
ATOM      7  C   UNL     1       1.769   7.119  20.236  0.00  0.00    +0.000 A 
ATOM      8  C   UNL     1       2.309   6.664  19.032  0.00  0.00    +0.000 A 
ATOM      9  C   UNL     1       2.321   7.547  17.944  0.00  0.00    +0.000 A 
ATOM     10  C   UNL     1       1.797   8.829  18.075  0.00  0.00    +0.000 A 
BRANCH   5  14
ATOM     11  C   UNL     1      -1.907  12.755  20.354  0.00  0.00    +0.000 C 
ATOM     12  N   UNL     1      -0.676  12.163  19.866  0.00  0.00    +0.000 N 
ATOM     13  N   UNL     1      -0.509  10.838  19.942  0.00  0.00    +0.000 NA
ATOM     14  C   UNL     1       0.698  10.624  19.399  0.00  0.00    +0.000 A 
ATOM     15  C   UNL     1       1.302  11.854  18.989  0.00  0.00    +0.000 A 
ATOM     16  C   UNL     1       2.512  12.236  18.375  0.00  0.00    +0.000 A 
ATOM     17  C   UNL     1       2.741  13.584  18.081  0.00  0.00    +0.000 A 
ATOM     18  C   UNL     1       1.782  14.542  18.388  0.00  0.00    +0.000 A 
ATOM     19  C   UNL     1       0.575  14.194  19.000  0.00  0.00    +0.000 A 
ATOM     20  C   UNL     1       0.365  12.839  19.294  0.00  0.00    +0.000 A 
ENDBRANCH   5  14
ENDBRANCH   1   8
BRANCH   2  21
ATOM     21  C   UNL     1       3.057   3.039  18.154  0.00  0.00    +0.000 C 
BRANCH  21  22
ATOM     22  C   UNL     1       4.052   3.019  16.982  0.00  0.00    +0.000 C 
BRANCH  22  23
ATOM     23  C   UNL     1       5.065   4.147  17.040  0.00  0.00    +0.000 A 
ATOM     24  N   UNL     1       5.701   4.405  18.132  0.00  0.00    +0.000 NA
ATOM     25  C   UNL     1       6.541   5.539  18.119  0.00  0.00    +0.000 A 
ATOM     26  C   UNL     1       7.525   5.723  19.084  0.00  0.00    +0.000 A 
ATOM     27  C   UNL     1       8.336   6.870  19.059  0.00  0.00    +0.000 A 
ATOM     28  C   UNL     1       8.139   7.859  18.090  0.00  0.00    +0.000 A 
ATOM     29  C   UNL     1       7.142   7.703  17.134  0.00  0.00    +0.000 A 
ATOM     30  C   UNL     1       6.388   6.528  17.144  0.00  0.00    +0.000 A 
ATOM     31  C   UNL     1       5.471   6.211  16.039  0.00  0.00    +0.000 A 
ATOM     32  O   UNL     1       4.935   7.090  15.380  0.00  0.00    +0.000 OA
ATOM     33  N   UNL     1       5.191   4.889  15.899  0.00  0.00    +0.000 N 
ATOM     34  H   UNL     1       4.616   4.680  15.095  0.00  0.00    +0.000 HD
ENDBRANCH  22  23
ENDBRANCH  21  22
ENDBRANCH   2  21
TORSDOF 5
ENDMDL
MODEL 3
REMARK VINA RESULT:      -9.4      0.897      1.283
REMARK  Name = 
REMARK  6 active torsions:
REMARK  status: ('A' for Active; 'I' for Inactive)
REMARK    1  A    between atoms: C_1  and  N_2
REMARK    2  A    between atoms: C_4  and  C_5
REMARK    3  A    between atoms: C_8  and  N_9
REMARK    4  A    between atoms: C_10  and  C_12
REMARK    5  A    between atoms: C_12  and  C_13
REMARK    6  A    between atoms: C_13  and  C_14
REMARK                            x       y       z     vdW  Elec       q    Type
REMARK                         _______ _______ _______ _____ _____    ______ ____
ROOT
ATOM      1  N   UNL     1       2.636   4.413  19.056  0.00  0.00    +0.000 N 
ATOM      2  C   UNL     1       2.005   3.554  18.175  0.00  0.00    +0.000 C 
ATOM      3  O   UNL     1       1.031   3.799  17.462  0.00  0.00    +0.000 OA
ATOM      4  H   UNL     1       3.458   4.088  19.558  0.00  0.00    +0.000 HD
ENDROOT
BRANCH   1   8
ATOM      5  C   UNL     1       1.500   8.446  19.787  0.00  0.00    +0.000 A 
ATOM      6  C   UNL     1       1.361   7.491  20.786  0.00  0.00    +0.000 A 
ATOM      7  C   UNL     1       1.735   6.158  20.533  0.00  0.00    +0.000 A 
ATOM      8  C   UNL     1       2.249   5.760  19.298  0.00  0.00    +0.000 A 
ATOM      9  C   UNL     1       2.390   6.734  18.302  0.00  0.00    +0.000 A 
ATOM     10  C   UNL     1       2.016   8.050  18.549  0.00  0.00    +0.000 A 
BRANCH   5  14
ATOM     11  C   UNL     1       1.167  13.206  19.116  0.00  0.00    +0.000 C 
ATOM     12  N   UNL     1       0.941  11.920  19.747  0.00  0.00    +0.000 N 
ATOM     13  N   UNL     1       1.478  10.820  19.206  0.00  0.00    +0.000 NA
ATOM     14  C   UNL     1       1.101   9.829  20.027  0.00  0.00    +0.000 A 
ATOM     15  C   UNL     1       0.296  10.329  21.099  0.00  0.00    +0.000 A 
ATOM     16  C   UNL     1      -0.351   9.779  22.225  0.00  0.00    +0.000 A 
ATOM     17  C   UNL     1      -1.037  10.621  23.106  0.00  0.00    +0.000 A 
ATOM     18  C   UNL     1      -1.077  11.991  22.878  0.00  0.00    +0.000 A 
ATOM     19  C   UNL     1      -0.448  12.564  21.770  0.00  0.00    +0.000 A 
ATOM     20  C   UNL     1       0.229  11.704  20.893  0.00  0.00    +0.000 A 
ENDBRANCH   5  14
ENDBRANCH   1   8
BRANCH   2  21
ATOM     21  C   UNL     1       2.624   2.187  18.043  0.00  0.00    +0.000 C 
BRANCH  21  22
ATOM     22  C   UNL     1       3.982   2.121  18.762  0.00  0.00    +0.000 C 
BRANCH  22  23
ATOM     23  C   UNL     1       4.952   3.194  18.304  0.00  0.00    +0.000 A 
ATOM     24  N   UNL     1       5.512   3.983  19.159  0.00  0.00    +0.000 NA
ATOM     25  C   UNL     1       6.313   5.017  18.630  0.00  0.00    +0.000 A 
ATOM     26  C   UNL     1       7.230   5.699  19.422  0.00  0.00    +0.000 A 
ATOM     27  C   UNL     1       8.003   6.737  18.875  0.00  0.00    +0.000 A 
ATOM     28  C   UNL     1       7.833   7.124  17.542  0.00  0.00    +0.000 A 
ATOM     29  C   UNL     1       6.903   6.469  16.744  0.00  0.00    +0.000 A 
ATOM     30  C   UNL     1       6.187   5.402  17.293  0.00  0.00    +0.000 A 
ATOM     31  C   UNL     1       5.351   4.540  16.446  0.00  0.00    +0.000 A 
ATOM     32  O   UNL     1       4.827   4.960  15.424  0.00  0.00    +0.000 OA
ATOM     33  N   UNL     1       5.123   3.300  16.953  0.00  0.00    +0.000 N 
ATOM     34  H   UNL     1       4.606   2.697  16.330  0.00  0.00    +0.000 HD
ENDBRANCH  22  23
ENDBRANCH  21  22
ENDBRANCH   2  21
TORSDOF 5
ENDMDL
MODEL 4
REMARK VINA RESULT:      -9.3      1.341      1.876
REMARK  Name = 
REMARK  6 active torsions:
REMARK  status: ('A' for Active; 'I' for Inactive)
REMARK    1  A    between atoms: C_1  and  N_2
REMARK    2  A    between atoms: C_4  and  C_5
REMARK    3  A    between atoms: C_8  and  N_9
REMARK    4  A    between atoms: C_10  and  C_12
REMARK    5  A    between atoms: C_12  and  C_13
REMARK    6  A    between atoms: C_13  and  C_14
REMARK                            x       y       z     vdW  Elec       q    Type
REMARK                         _______ _______ _______ _____ _____    ______ ____
ROOT
ATOM      1  N   UNL     1       3.149   5.192  19.071  0.00  0.00    +0.000 N 
ATOM      2  C   UNL     1       2.522   4.009  18.725  0.00  0.00    +0.000 C 
ATOM      3  O   UNL     1       1.317   3.826  18.552  0.00  0.00    +0.000 OA
ATOM      4  H   UNL     1       4.163   5.208  19.145  0.00  0.00    +0.000 HD
ENDROOT
BRANCH   1   8
ATOM      5  C   UNL     1       1.184   8.900  19.763  0.00  0.00    +0.000 A 
ATOM      6  C   UNL     1       1.214   7.930  20.757  0.00  0.00    +0.000 A 
ATOM      7  C   UNL     1       1.861   6.705  20.518  0.00  0.00    +0.000 A 
ATOM      8  C   UNL     1       2.485   6.428  19.300  0.00  0.00    +0.000 A 
ATOM      9  C   UNL     1       2.454   7.417  18.308  0.00  0.00    +0.000 A 
ATOM     10  C   UNL     1       1.809   8.626  18.543  0.00  0.00    +0.000 A 
BRANCH   5  14
ATOM     11  C   UNL     1       0.309  13.260  21.617  0.00  0.00    +0.000 C 
ATOM     12  N   UNL     1       0.103  12.087  20.790  0.00  0.00    +0.000 N 
ATOM     13  N   UNL     1       0.989  11.084  20.840  0.00  0.00    +0.000 NA
ATOM     14  C   UNL     1       0.502  10.169  19.990  0.00  0.00    +0.000 A 
ATOM     15  C   UNL     1      -0.713  10.624  19.386  0.00  0.00    +0.000 A 
ATOM     16  C   UNL     1      -1.640  10.109  18.457  0.00  0.00    +0.000 A 
ATOM     17  C   UNL     1      -2.775  10.857  18.128  0.00  0.00    +0.000 A 
ATOM     18  C   UNL     1      -2.992  12.098  18.715  0.00  0.00    +0.000 A 
ATOM     19  C   UNL     1      -2.088  12.636  19.635  0.00  0.00    +0.000 A 
ATOM     20  C   UNL     1      -0.952  11.875  19.948  0.00  0.00    +0.000 A 
ENDBRANCH   5  14
ENDBRANCH   1   8
BRANCH   2  21
ATOM     21  C   UNL     1       3.435   2.835  18.481  0.00  0.00    +0.000 C 
BRANCH  21  22
ATOM     22  C   UNL     1       4.194   2.989  17.152  0.00  0.00    +0.000 C 
BRANCH  22  23
ATOM     23  C   UNL     1       5.177   4.144  17.157  0.00  0.00    +0.000 A 
ATOM     24  N   UNL     1       5.826   4.452  18.229  0.00  0.00    +0.000 NA
ATOM     25  C   UNL     1       6.635   5.607  18.165  0.00  0.00    +0.000 A 
ATOM     26  C   UNL     1       7.630   5.846  19.105  0.00  0.00    +0.000 A 
ATOM     27  C   UNL     1       8.410   7.012  19.030  0.00  0.00    +0.000 A 
ATOM     28  C   UNL     1       8.170   7.965  18.035  0.00  0.00    +0.000 A 
ATOM     29  C   UNL     1       7.161   7.754  17.103  0.00  0.00    +0.000 A 
ATOM     30  C   UNL     1       6.438   6.560  17.163  0.00  0.00    +0.000 A 
ATOM     31  C   UNL     1       5.511   6.185  16.085  0.00  0.00    +0.000 A 
ATOM     32  O   UNL     1       4.940   7.029  15.410  0.00  0.00    +0.000 OA
ATOM     33  N   UNL     1       5.264   4.852  15.992  0.00  0.00    +0.000 N 
ATOM     34  H   UNL     1       4.680   4.604  15.205  0.00  0.00    +0.000 HD
ENDBRANCH  22  23
ENDBRANCH  21  22
ENDBRANCH   2  21
TORSDOF 5
ENDMDL
MODEL 5
REMARK VINA RESULT:      -9.3      3.736     10.167
REMARK  Name = 
REMARK  6 active torsions:
REMARK  status: ('A' for Active; 'I' for Inactive)
REMARK    1  A    between atoms: C_1  and  N_2
REMARK    2  A    between atoms: C_4  and  C_5
REMARK    3  A    between atoms: C_8  and  N_9
REMARK    4  A    between atoms: C_10  and  C_12
REMARK    5  A    between atoms: C_12  and  C_13
REMARK    6  A    between atoms: C_13  and  C_14
REMARK                            x       y       z     vdW  Elec       q    Type
REMARK                         _______ _______ _______ _____ _____    ______ ____
ROOT
ATOM      1  N   UNL     1       0.198  10.874  19.618  0.00  0.00    +0.000 N 
ATOM      2  C   UNL     1       0.552  11.828  20.555  0.00  0.00    +0.000 C 
ATOM      3  O   UNL     1       1.563  11.846  21.258  0.00  0.00    +0.000 OA
ATOM      4  H   UNL     1      -0.654  11.004  19.079  0.00  0.00    +0.000 HD
ENDROOT
BRANCH   1   8
ATOM      5  C   UNL     1       2.465   7.398  18.684  0.00  0.00    +0.000 A 
ATOM      6  C   UNL     1       1.954   7.574  19.964  0.00  0.00    +0.000 A 
ATOM      7  C   UNL     1       1.210   8.729  20.265  0.00  0.00    +0.000 A 
ATOM      8  C   UNL     1       0.963   9.716  19.309  0.00  0.00    +0.000 A 
ATOM      9  C   UNL     1       1.477   9.522  18.020  0.00  0.00    +0.000 A 
ATOM     10  C   UNL     1       2.217   8.383  17.723  0.00  0.00    +0.000 A 
BRANCH   5  14
ATOM     11  C   UNL     1       6.297   4.753  17.445  0.00  0.00    +0.000 C 
ATOM     12  N   UNL     1       4.925   5.036  17.820  0.00  0.00    +0.000 N 
ATOM     13  N   UNL     1       4.558   6.299  18.067  0.00  0.00    +0.000 NA
ATOM     14  C   UNL     1       3.253   6.213  18.360  0.00  0.00    +0.000 A 
ATOM     15  C   UNL     1       2.802   4.857  18.306  0.00  0.00    +0.000 A 
ATOM     16  C   UNL     1       1.578   4.185  18.504  0.00  0.00    +0.000 A 
ATOM     17  C   UNL     1       1.513   2.800  18.314  0.00  0.00    +0.000 A 
ATOM     18  C   UNL     1       2.644   2.091  17.929  0.00  0.00    +0.000 A 
ATOM     19  C   UNL     1       3.871   2.729  17.730  0.00  0.00    +0.000 A 
ATOM     20  C   UNL     1       3.920   4.116  17.932  0.00  0.00    +0.000 A 
ENDBRANCH   5  14
ENDBRANCH   1   8
BRANCH   2  21
ATOM     21  C   UNL     1      -0.388  12.999  20.677  0.00  0.00    +0.000 C 
BRANCH  21  22
ATOM     22  C   UNL     1      -1.705  12.585  21.355  0.00  0.00    +0.000 C 
BRANCH  22  23
ATOM     23  C   UNL     1      -2.889  12.576  20.406  0.00  0.00    +0.000 A 
ATOM     24  N   UNL     1      -4.096  12.609  20.859  0.00  0.00    +0.000 NA
ATOM     25  C   UNL     1      -5.130  12.487  19.907  0.00  0.00    +0.000 A 
ATOM     26  C   UNL     1      -6.437  12.851  20.207  0.00  0.00    +0.000 A 
ATOM     27  C   UNL     1      -7.452  12.703  19.246  0.00  0.00    +0.000 A 
ATOM     28  C   UNL     1      -7.169  12.153  17.992  0.00  0.00    +0.000 A 
ATOM     29  C   UNL     1      -5.871  11.760  17.685  0.00  0.00    +0.000 A 
ATOM     30  C   UNL     1      -4.869  11.970  18.635  0.00  0.00    +0.000 A 
ATOM     31  C   UNL     1      -3.453  11.775  18.293  0.00  0.00    +0.000 A 
ATOM     32  O   UNL     1      -3.106  10.976  17.436  0.00  0.00    +0.000 OA
ATOM     33  N   UNL     1      -2.582  12.461  19.080  0.00  0.00    +0.000 N 
ATOM     34  H   UNL     1      -1.619  12.372  18.789  0.00  0.00    +0.000 HD
ENDBRANCH  22  23
ENDBRANCH  21  22
ENDBRANCH   2  21
TORSDOF 5
ENDMDL
MODEL 6
REMARK VINA RESULT:      -9.3      3.794     10.695
REMARK  Name = 
REMARK  6 active torsions:
REMARK  status: ('A' for Active; 'I' for Inactive)
REMARK    1  A    between atoms: C_1  and  N_2
REMARK    2  A    between atoms: C_4  and  C_5
REMARK    3  A    between atoms: C_8  and  N_9
REMARK    4  A    between atoms: C_10  and  C_12
REMARK    5  A    between atoms: C_12  and  C_13
REMARK    6  A    between atoms: C_13  and  C_14
REMARK                            x       y       z     vdW  Elec       q    Type
REMARK                         _______ _______ _______ _____ _____    ______ ____
ROOT
ATOM      1  N   UNL     1       0.085  10.926  19.889  0.00  0.00    +0.000 N 
ATOM      2  C   UNL     1       0.563  11.971  20.658  0.00  0.00    +0.000 C 
ATOM      3  O   UNL     1       1.706  12.117  21.092  0.00  0.00    +0.000 OA
ATOM      4  H   UNL     1      -0.879  10.951  19.567  0.00  0.00    +0.000 HD
ENDROOT
BRANCH   1   8
ATOM      5  C   UNL     1       2.369   7.569  18.621  0.00  0.00    +0.000 A 
ATOM      6  C   UNL     1       1.935   7.659  19.937  0.00  0.00    +0.000 A 
ATOM      7  C   UNL     1       1.184   8.776  20.349  0.00  0.00    +0.000 A 
ATOM      8  C   UNL     1       0.855   9.807  19.468  0.00  0.00    +0.000 A 
ATOM      9  C   UNL     1       1.294   9.701  18.141  0.00  0.00    +0.000 A 
ATOM     10  C   UNL     1       2.040   8.600  17.735  0.00  0.00    +0.000 A 
BRANCH   5  14
ATOM     11  C   UNL     1       6.128   5.120  16.862  0.00  0.00    +0.000 C 
ATOM     12  N   UNL     1       4.804   5.334  17.416  0.00  0.00    +0.000 N 
ATOM     13  N   UNL     1       4.414   6.576  17.725  0.00  0.00    +0.000 NA
ATOM     14  C   UNL     1       3.163   6.426  18.182  0.00  0.00    +0.000 A 
ATOM     15  C   UNL     1       2.772   5.050  18.168  0.00  0.00    +0.000 A 
ATOM     16  C   UNL     1       1.616   4.319  18.512  0.00  0.00    +0.000 A 
ATOM     17  C   UNL     1       1.592   2.934  18.314  0.00  0.00    +0.000 A 
ATOM     18  C   UNL     1       2.695   2.283  17.777  0.00  0.00    +0.000 A 
ATOM     19  C   UNL     1       3.855   2.980  17.430  0.00  0.00    +0.000 A 
ATOM     20  C   UNL     1       3.866   4.366  17.643  0.00  0.00    +0.000 A 
ENDBRANCH   5  14
ENDBRANCH   1   8
BRANCH   2  21
ATOM     21  C   UNL     1      -0.423  13.075  20.940  0.00  0.00    +0.000 C 
BRANCH  21  22
ATOM     22  C   UNL     1      -1.739  12.852  20.176  0.00  0.00    +0.000 C 
BRANCH  22  23
ATOM     23  C   UNL     1      -2.937  12.673  21.091  0.00  0.00    +0.000 A 
ATOM     24  N   UNL     1      -4.137  12.723  20.620  0.00  0.00    +0.000 NA
ATOM     25  C   UNL     1      -5.186  12.654  21.562  0.00  0.00    +0.000 A 
ATOM     26  C   UNL     1      -6.486  12.350  21.177  0.00  0.00    +0.000 A 
ATOM     27  C   UNL     1      -7.515  12.306  22.132  0.00  0.00    +0.000 A 
ATOM     28  C   UNL     1      -7.255  12.607  23.473  0.00  0.00    +0.000 A 
ATOM     29  C   UNL     1      -5.965  12.939  23.870  0.00  0.00    +0.000 A 
ATOM     30  C   UNL     1      -4.947  12.919  22.913  0.00  0.00    +0.000 A 
ATOM     31  C   UNL     1      -3.538  13.051  23.309  0.00  0.00    +0.000 A 
ATOM     32  O   UNL     1      -3.209  13.673  24.309  0.00  0.00    +0.000 OA
ATOM     33  N   UNL     1      -2.651  12.533  22.419  0.00  0.00    +0.000 N 
ATOM     34  H   UNL     1      -1.692  12.569  22.737  0.00  0.00    +0.000 HD
ENDBRANCH  22  23
ENDBRANCH  21  22
ENDBRANCH   2  21
TORSDOF 5
ENDMDL
MODEL 7
REMARK VINA RESULT:      -9.3      3.699      9.430
REMARK  Name = 
REMARK  6 active torsions:
REMARK  status: ('A' for Active; 'I' for Inactive)
REMARK    1  A    between atoms: C_1  and  N_2
REMARK    2  A    between atoms: C_4  and  C_5
REMARK    3  A    between atoms: C_8  and  N_9
REMARK    4  A    between atoms: C_10  and  C_12
REMARK    5  A    between atoms: C_12  and  C_13
REMARK    6  A    between atoms: C_13  and  C_14
REMARK                            x       y       z     vdW  Elec       q    Type
REMARK                         _______ _______ _______ _____ _____    ______ ____
ROOT
ATOM      1  N   UNL     1      -0.232  10.589  21.115  0.00  0.00    +0.000 N 
ATOM      2  C   UNL     1       0.200  11.841  21.512  0.00  0.00    +0.000 C 
ATOM      3  O   UNL     1       1.306  12.346  21.317  0.00  0.00    +0.000 OA
ATOM      4  H   UNL     1      -1.190  10.313  21.313  0.00  0.00    +0.000 HD
ENDROOT
BRANCH   1   8
ATOM      5  C   UNL     1       2.145   7.778  18.984  0.00  0.00    +0.000 A 
ATOM      6  C   UNL     1       1.624   8.888  18.331  0.00  0.00    +0.000 A 
ATOM      7  C   UNL     1       0.835   9.810  19.042  0.00  0.00    +0.000 A 
ATOM      8  C   UNL     1       0.556   9.646  20.400  0.00  0.00    +0.000 A 
ATOM      9  C   UNL     1       1.093   8.526  21.049  0.00  0.00    +0.000 A 
ATOM     10  C   UNL     1       1.869   7.612  20.345  0.00  0.00    +0.000 A 
BRANCH   5  14
ATOM     11  C   UNL     1       5.700   6.053  16.227  0.00  0.00    +0.000 C 
ATOM     12  N   UNL     1       4.507   6.028  17.051  0.00  0.00    +0.000 N 
ATOM     13  N   UNL     1       4.054   7.168  17.586  0.00  0.00    +0.000 NA
ATOM     14  C   UNL     1       2.952   6.804  18.256  0.00  0.00    +0.000 A 
ATOM     15  C   UNL     1       2.724   5.396  18.144  0.00  0.00    +0.000 A 
ATOM     16  C   UNL     1       1.756   4.484  18.612  0.00  0.00    +0.000 A 
ATOM     17  C   UNL     1       1.845   3.136  18.248  0.00  0.00    +0.000 A 
ATOM     18  C   UNL     1       2.877   2.699  17.427  0.00  0.00    +0.000 A 
ATOM     19  C   UNL     1       3.853   3.579  16.951  0.00  0.00    +0.000 A 
ATOM     20  C   UNL     1       3.752   4.925  17.332  0.00  0.00    +0.000 A 
ENDBRANCH   5  14
ENDBRANCH   1   8
BRANCH   2  21
ATOM     21  C   UNL     1      -0.827  12.692  22.213  0.00  0.00    +0.000 C 
BRANCH  21  22
ATOM     22  C   UNL     1      -1.609  13.557  21.211  0.00  0.00    +0.000 C 
BRANCH  22  23
ATOM     23  C   UNL     1      -2.337  12.741  20.159  0.00  0.00    +0.000 A 
ATOM     24  N   UNL     1      -1.743  12.396  19.067  0.00  0.00    +0.000 NA
ATOM     25  C   UNL     1      -2.533  11.733  18.103  0.00  0.00    +0.000 A 
ATOM     26  C   UNL     1      -1.954  11.014  17.063  0.00  0.00    +0.000 A 
ATOM     27  C   UNL     1      -2.764  10.378  16.106  0.00  0.00    +0.000 A 
ATOM     28  C   UNL     1      -4.156  10.493  16.164  0.00  0.00    +0.000 A 
ATOM     29  C   UNL     1      -4.749  11.230  17.182  0.00  0.00    +0.000 A 
ATOM     30  C   UNL     1      -3.927  11.804  18.154  0.00  0.00    +0.000 A 
ATOM     31  C   UNL     1      -4.501  12.410  19.364  0.00  0.00    +0.000 A 
ATOM     32  O   UNL     1      -5.619  12.905  19.364  0.00  0.00    +0.000 OA
ATOM     33  N   UNL     1      -3.650  12.473  20.422  0.00  0.00    +0.000 N 
ATOM     34  H   UNL     1      -4.079  12.828  21.265  0.00  0.00    +0.000 HD
ENDBRANCH  22  23
ENDBRANCH  21  22
ENDBRANCH   2  21
TORSDOF 5
ENDMDL
MODEL 8
REMARK VINA RESULT:      -9.2      1.457      2.199
REMARK  Name = 
REMARK  6 active torsions:
REMARK  status: ('A' for Active; 'I' for Inactive)
REMARK    1  A    between atoms: C_1  and  N_2
REMARK    2  A    between atoms: C_4  and  C_5
REMARK    3  A    between atoms: C_8  and  N_9
REMARK    4  A    between atoms: C_10  and  C_12
REMARK    5  A    between atoms: C_12  and  C_13
REMARK    6  A    between atoms: C_13  and  C_14
REMARK                            x       y       z     vdW  Elec       q    Type
REMARK                         _______ _______ _______ _____ _____    ______ ____
ROOT
ATOM      1  N   UNL     1       2.942   5.551  19.886  0.00  0.00    +0.000 N 
ATOM      2  C   UNL     1       2.350   4.350  19.538  0.00  0.00    +0.000 C 
ATOM      3  O   UNL     1       1.210   4.178  19.105  0.00  0.00    +0.000 OA
ATOM      4  H   UNL     1       3.910   5.551  20.198  0.00  0.00    +0.000 HD
ENDROOT
BRANCH   1   8
ATOM      5  C   UNL     1       1.034   9.344  19.640  0.00  0.00    +0.000 A 
ATOM      6  C   UNL     1       1.751   8.853  18.556  0.00  0.00    +0.000 A 
ATOM      7  C   UNL     1       2.383   7.599  18.648  0.00  0.00    +0.000 A 
ATOM      8  C   UNL     1       2.311   6.822  19.806  0.00  0.00    +0.000 A 
ATOM      9  C   UNL     1       1.579   7.326  20.889  0.00  0.00    +0.000 A 
ATOM     10  C   UNL     1       0.958   8.567  20.800  0.00  0.00    +0.000 A 
BRANCH   5  14
ATOM     11  C   UNL     1      -2.461  12.648  19.938  0.00  0.00    +0.000 C 
ATOM     12  N   UNL     1      -1.134  12.114  19.695  0.00  0.00    +0.000 N 
ATOM     13  N   UNL     1      -0.903  10.812  19.896  0.00  0.00    +0.000 NA
ATOM     14  C   UNL     1       0.386  10.650  19.566  0.00  0.00    +0.000 A 
ATOM     15  C   UNL     1       0.973  11.890  19.163  0.00  0.00    +0.000 A 
ATOM     16  C   UNL     1       2.242  12.316  18.718  0.00  0.00    +0.000 A 
ATOM     17  C   UNL     1       2.434  13.655  18.362  0.00  0.00    +0.000 A 
ATOM     18  C   UNL     1       1.382  14.560  18.442  0.00  0.00    +0.000 A 
ATOM     19  C   UNL     1       0.116  14.168  18.882  0.00  0.00    +0.000 A 
ATOM     20  C   UNL     1      -0.057  12.823  19.242  0.00  0.00    +0.000 A 
ENDBRANCH   5  14
ENDBRANCH   1   8
BRANCH   2  21
ATOM     21  C   UNL     1       3.229   3.133  19.656  0.00  0.00    +0.000 C 
BRANCH  21  22
ATOM     22  C   UNL     1       4.038   2.906  18.368  0.00  0.00    +0.000 C 
BRANCH  22  23
ATOM     23  C   UNL     1       5.004   4.035  18.063  0.00  0.00    +0.000 A 
ATOM     24  N   UNL     1       5.819   4.466  18.965  0.00  0.00    +0.000 NA
ATOM     25  C   UNL     1       6.602   5.589  18.622  0.00  0.00    +0.000 A 
ATOM     26  C   UNL     1       7.737   5.929  19.348  0.00  0.00    +0.000 A 
ATOM     27  C   UNL     1       8.489   7.063  18.997  0.00  0.00    +0.000 A 
ATOM     28  C   UNL     1       8.084   7.885  17.941  0.00  0.00    +0.000 A 
ATOM     29  C   UNL     1       6.937   7.574  17.221  0.00  0.00    +0.000 A 
ATOM     30  C   UNL     1       6.238   6.410  17.552  0.00  0.00    +0.000 A 
ATOM     31  C   UNL     1       5.148   5.917  16.698  0.00  0.00    +0.000 A 
ATOM     32  O   UNL     1       4.470   6.678  16.023  0.00  0.00    +0.000 OA
ATOM     33  N   UNL     1       4.895   4.588  16.818  0.00  0.00    +0.000 N 
ATOM     34  H   UNL     1       4.191   4.251  16.176  0.00  0.00    +0.000 HD
ENDBRANCH  22  23
ENDBRANCH  21  22
ENDBRANCH   2  21
TORSDOF 5
ENDMDL
MODEL 9
REMARK VINA RESULT:      -9.2      3.346     10.326
REMARK  Name = 
REMARK  6 active torsions:
REMARK  status: ('A' for Active; 'I' for Inactive)
REMARK    1  A    between atoms: C_1  and  N_2
REMARK    2  A    between atoms: C_4  and  C_5
REMARK    3  A    between atoms: C_8  and  N_9
REMARK    4  A    between atoms: C_10  and  C_12
REMARK    5  A    between atoms: C_12  and  C_13
REMARK    6  A    between atoms: C_13  and  C_14
REMARK                            x       y       z     vdW  Elec       q    Type
REMARK                         _______ _______ _______ _____ _____    ______ ____
ROOT
ATOM      1  N   UNL     1       0.389  10.861  19.591  0.00  0.00    +0.000 N 
ATOM      2  C   UNL     1       0.887  12.145  19.469  0.00  0.00    +0.000 C 
ATOM      3  O   UNL     1       1.995  12.478  19.048  0.00  0.00    +0.000 OA
ATOM      4  H   UNL     1      -0.564  10.731  19.922  0.00  0.00    +0.000 HD
ENDROOT
BRANCH   1   8
ATOM      5  C   UNL     1       2.530   7.329  18.573  0.00  0.00    +0.000 A 
ATOM      6  C   UNL     1       2.289   8.300  17.609  0.00  0.00    +0.000 A 
ATOM      7  C   UNL     1       1.575   9.463  17.954  0.00  0.00    +0.000 A 
ATOM      8  C   UNL     1       1.097   9.677  19.248  0.00  0.00    +0.000 A 
ATOM      9  C   UNL     1       1.354   8.693  20.212  0.00  0.00    +0.000 A 
ATOM     10  C   UNL     1       2.055   7.541  19.870  0.00  0.00    +0.000 A 
BRANCH   5  14
ATOM     11  C   UNL     1       6.166   4.526  17.110  0.00  0.00    +0.000 C 
ATOM     12  N   UNL     1       4.840   4.864  17.591  0.00  0.00    +0.000 N 
ATOM     13  N   UNL     1       4.531   6.146  17.821  0.00  0.00    +0.000 NA
ATOM     14  C   UNL     1       3.254   6.111  18.227  0.00  0.00    +0.000 A 
ATOM     15  C   UNL     1       2.763   4.767  18.264  0.00  0.00    +0.000 A 
ATOM     16  C   UNL     1       1.543   4.141  18.591  0.00  0.00    +0.000 A 
ATOM     17  C   UNL     1       1.424   2.753  18.460  0.00  0.00    +0.000 A 
ATOM     18  C   UNL     1       2.497   1.996  18.007  0.00  0.00    +0.000 A 
ATOM     19  C   UNL     1       3.719   2.589  17.679  0.00  0.00    +0.000 A 
ATOM     20  C   UNL     1       3.824   3.980  17.823  0.00  0.00    +0.000 A 
ENDBRANCH   5  14
ENDBRANCH   1   8
BRANCH   2  21
ATOM     21  C   UNL     1      -0.064  13.250  19.845  0.00  0.00    +0.000 C 
BRANCH  21  22
ATOM     22  C   UNL     1      -1.489  12.950  19.348  0.00  0.00    +0.000 C 
BRANCH  22  23
ATOM     23  C   UNL     1      -2.542  13.102  20.430  0.00  0.00    +0.000 A 
ATOM     24  N   UNL     1      -2.426  12.480  21.554  0.00  0.00    +0.000 NA
ATOM     25  C   UNL     1      -3.507  12.598  22.453  0.00  0.00    +0.000 A 
ATOM     26  C   UNL     1      -3.367  12.281  23.799  0.00  0.00    +0.000 A 
ATOM     27  C   UNL     1      -4.464  12.389  24.670  0.00  0.00    +0.000 A 
ATOM     28  C   UNL     1      -5.718  12.777  24.189  0.00  0.00    +0.000 A 
ATOM     29  C   UNL     1      -5.882  13.073  22.841  0.00  0.00    +0.000 A 
ATOM     30  C   UNL     1      -4.764  13.014  22.006  0.00  0.00    +0.000 A 
ATOM     31  C   UNL     1      -4.826  13.517  20.626  0.00  0.00    +0.000 A 
ATOM     32  O   UNL     1      -5.869  13.512  19.989  0.00  0.00    +0.000 OA
ATOM     33  N   UNL     1      -3.624  13.869  20.098  0.00  0.00    +0.000 N 
ATOM     34  H   UNL     1      -3.691  14.276  19.176  0.00  0.00    +0.000 HD
ENDBRANCH  22  23
ENDBRANCH  21  22
ENDBRANCH   2  21
TORSDOF 5
ENDMDL
