MODEL 1
REMARK VINA RESULT:      -7.3      0.000      0.000
REMARK  Name = 
REMARK  3 active torsions:
REMARK  status: ('A' for Active; 'I' for Inactive)
REMARK    1  A    between atoms: C_1  and  C_2
REMARK    2  A    between atoms: C_2  and  O_3
REMARK    3  A    between atoms: O_3  and  C_4
REMARK                            x       y       z     vdW  Elec       q    Type
REMARK                         _______ _______ _______ _____ _____    ______ ____
ROOT
ATOM      1  C   UNL     1       0.548   9.805  19.792  0.00  0.00    +0.000 A 
ATOM      2  C   UNL     1       0.818  11.004  19.187  0.00  0.00    +0.000 A 
ATOM      3  C   UNL     1       1.743  10.946  18.185  0.00  0.00    +0.000 A 
ATOM      4  N   UNL     1       2.365   9.811  17.823  0.00  0.00    +0.000 NA
ATOM      5  C   UNL     1       2.059   8.685  18.486  0.00  0.00    +0.000 A 
ATOM      6  N   UNL     1       2.741   7.536  18.178  0.00  0.00    +0.000 N 
ATOM      7  C   UNL     1       3.737   7.548  17.125  0.00  0.00    +0.000 C 
ATOM      8  C   UNL     1       4.973   6.802  17.631  0.00  0.00    +0.000 C 
ATOM      9  C   UNL     1       4.642   5.376  18.152  0.00  0.00    +0.000 C 
ATOM     10  C   UNL     1       3.536   5.499  19.230  0.00  0.00    +0.000 C 
ATOM     11  C   UNL     1       2.307   6.264  18.731  0.00  0.00    +0.000 C 
ATOM     12  C   UNL     1       4.166   4.448  17.022  0.00  0.00    +0.000 C 
ATOM     13  C   UNL     1       5.281   4.168  16.043  0.00  0.00    +0.000 C 
ATOM     14  O   UNL     1       5.130   4.262  14.828  0.00  0.00    +0.000 OA
ATOM     15  N   UNL     1       6.482   3.832  16.594  0.00  0.00    +0.000 N 
ATOM     16  C   UNL     1       6.937   4.396  17.751  0.00  0.00    +0.000 C 
ATOM     17  O   UNL     1       8.136   4.606  17.924  0.00  0.00    +0.000 OA
ATOM     18  C   UNL     1       5.893   4.745  18.787  0.00  0.00    +0.000 C 
ATOM     19  N   UNL     1       1.148   8.650  19.468  0.00  0.00    +0.000 NA
ATOM     20  H   UNL     1       7.210   3.683  15.908  0.00  0.00    +0.000 HD
ENDROOT
BRANCH   1  21
ATOM     21  O   UNL     1      -0.375   9.814  20.814  0.00  0.00    +0.000 OA
BRANCH  21  23
ATOM     22  C   UNL     1      -0.134   9.593  23.168  0.00  0.00    +0.000 C 
ATOM     23  C   UNL     1      -0.080   8.859  21.839  0.00  0.00    +0.000 C 
ENDBRANCH  21  23
ENDBRANCH   1  21
TORSDOF 2
ENDMDL
MODEL 2
REMARK VINA RESULT:      -7.2      2.025      3.477
REMARK  Name = 
REMARK  3 active torsions:
REMARK  status: ('A' for Active; 'I' for Inactive)
REMARK    1  A    between atoms: C_1  and  C_2
REMARK    2  A    between atoms: C_2  and  O_3
REMARK    3  A    between atoms: O_3  and  C_4
REMARK                            x       y       z     vdW  Elec       q    Type
REMARK                         _______ _______ _______ _____ _____    ______ ____
ROOT
ATOM      1  C   UNL     1      -0.073  10.455  20.533  0.00  0.00    +0.000 A 
ATOM      2  C   UNL     1      -0.382  10.322  21.861  0.00  0.00    +0.000 A 
ATOM      3  C   UNL     1       0.191   9.248  22.478  0.00  0.00    +0.000 A 
ATOM      4  N   UNL     1       0.981   8.368  21.840  0.00  0.00    +0.000 NA
ATOM      5  C   UNL     1       1.211   8.560  20.532  0.00  0.00    +0.000 A 
ATOM      6  N   UNL     1       1.954   7.629  19.852  0.00  0.00    +0.000 N 
ATOM      7  C   UNL     1       2.507   6.491  20.559  0.00  0.00    +0.000 C 
ATOM      8  C   UNL     1       2.248   5.238  19.719  0.00  0.00    +0.000 C 
ATOM      9  C   UNL     1       2.770   5.374  18.263  0.00  0.00    +0.000 C 
ATOM     10  C   UNL     1       2.145   6.648  17.641  0.00  0.00    +0.000 C 
ATOM     11  C   UNL     1       2.387   7.898  18.491  0.00  0.00    +0.000 C 
ATOM     12  C   UNL     1       4.304   5.466  18.208  0.00  0.00    +0.000 C 
ATOM     13  C   UNL     1       4.942   4.169  18.646  0.00  0.00    +0.000 C 
ATOM     14  O   UNL     1       5.859   4.128  19.462  0.00  0.00    +0.000 OA
ATOM     15  N   UNL     1       4.416   3.037  18.099  0.00  0.00    +0.000 N 
ATOM     16  C   UNL     1       3.081   2.899  17.850  0.00  0.00    +0.000 C 
ATOM     17  O   UNL     1       2.524   1.809  17.965  0.00  0.00    +0.000 OA
ATOM     18  C   UNL     1       2.341   4.150  17.435  0.00  0.00    +0.000 C 
ATOM     19  N   UNL     1       0.705   9.600  19.855  0.00  0.00    +0.000 NA
ATOM     20  H   UNL     1       4.849   2.189  18.440  0.00  0.00    +0.000 HD
ENDROOT
BRANCH   1  21
ATOM     21  O   UNL     1      -0.633  11.522  19.865  0.00  0.00    +0.000 OA
BRANCH  21  23
ATOM     22  C   UNL     1      -2.311  10.892  18.304  0.00  0.00    +0.000 C 
ATOM     23  C   UNL     1      -0.846  11.257  18.474  0.00  0.00    +0.000 C 
ENDBRANCH  21  23
ENDBRANCH   1  21
TORSDOF 2
ENDMDL
MODEL 3
REMARK VINA RESULT:      -7.1      2.708      7.207
REMARK  Name = 
REMARK  3 active torsions:
REMARK  status: ('A' for Active; 'I' for Inactive)
REMARK    1  A    between atoms: C_1  and  C_2
REMARK    2  A    between atoms: C_2  and  O_3
REMARK    3  A    between atoms: O_3  and  C_4
REMARK                            x       y       z     vdW  Elec       q    Type
REMARK                         _______ _______ _______ _____ _____    ______ ____
ROOT
ATOM      1  C   UNL     1       3.325   4.575  19.634  0.00  0.00    +0.000 A 
ATOM      2  C   UNL     1       3.891   4.199  18.444  0.00  0.00    +0.000 A 
ATOM      3  C   UNL     1       3.899   5.165  17.481  0.00  0.00    +0.000 A 
ATOM      4  N   UNL     1       3.376   6.390  17.663  0.00  0.00    +0.000 NA
ATOM      5  C   UNL     1       2.819   6.667  18.852  0.00  0.00    +0.000 A 
ATOM      6  N   UNL     1       2.215   7.886  19.027  0.00  0.00    +0.000 N 
ATOM      7  C   UNL     1       2.228   8.858  17.952  0.00  0.00    +0.000 C 
ATOM      8  C   UNL     1       0.822   9.447  17.827  0.00  0.00    +0.000 C 
ATOM      9  C   UNL     1       0.288  10.017  19.169  0.00  0.00    +0.000 C 
ATOM     10  C   UNL     1       0.373   8.900  20.238  0.00  0.00    +0.000 C 
ATOM     11  C   UNL     1       1.776   8.296  20.351  0.00  0.00    +0.000 C 
ATOM     12  C   UNL     1       1.092  11.243  19.632  0.00  0.00    +0.000 C 
ATOM     13  C   UNL     1       0.888  12.411  18.697  0.00  0.00    +0.000 C 
ATOM     14  O   UNL     1       1.824  13.073  18.255  0.00  0.00    +0.000 OA
ATOM     15  N   UNL     1      -0.404  12.671  18.347  0.00  0.00    +0.000 N 
ATOM     16  C   UNL     1      -1.318  11.678  18.143  0.00  0.00    +0.000 C 
ATOM     17  O   UNL     1      -2.198  11.793  17.293  0.00  0.00    +0.000 OA
ATOM     18  C   UNL     1      -1.181  10.448  19.010  0.00  0.00    +0.000 C 
ATOM     19  N   UNL     1       2.787   5.782  19.859  0.00  0.00    +0.000 NA
ATOM     20  H   UNL     1      -0.496  13.440  17.697  0.00  0.00    +0.000 HD
ENDROOT
BRANCH   1  21
ATOM     21  O   UNL     1       3.288   3.630  20.635  0.00  0.00    +0.000 OA
BRANCH  21  23
ATOM     22  C   UNL     1       1.063   2.854  20.936  0.00  0.00    +0.000 C 
ATOM     23  C   UNL     1       2.146   3.766  21.486  0.00  0.00    +0.000 C 
ENDBRANCH  21  23
ENDBRANCH   1  21
TORSDOF 2
ENDMDL
MODEL 4
REMARK VINA RESULT:      -6.7      2.517      3.894
REMARK  Name = 
REMARK  3 active torsions:
REMARK  status: ('A' for Active; 'I' for Inactive)
REMARK    1  A    between atoms: C_1  and  C_2
REMARK    2  A    between atoms: C_2  and  O_3
REMARK    3  A    between atoms: O_3  and  C_4
REMARK                            x       y       z     vdW  Elec       q    Type
REMARK                         _______ _______ _______ _____ _____    ______ ____
ROOT
ATOM      1  C   UNL     1       0.707  10.625  20.146  0.00  0.00    +0.000 A 
ATOM      2  C   UNL     1       0.316  10.703  21.456  0.00  0.00    +0.000 A 
ATOM      3  C   UNL     1       0.591   9.595  22.205  0.00  0.00    +0.000 A 
ATOM      4  N   UNL     1       1.180   8.496  21.703  0.00  0.00    +0.000 NA
ATOM      5  C   UNL     1       1.508   8.495  20.401  0.00  0.00    +0.000 A 
ATOM      6  N   UNL     1       2.040   7.353  19.858  0.00  0.00    +0.000 N 
ATOM      7  C   UNL     1       2.277   6.197  20.700  0.00  0.00    +0.000 C 
ATOM      8  C   UNL     1       1.768   4.959  19.960  0.00  0.00    +0.000 C 
ATOM      9  C   UNL     1       2.372   4.820  18.536  0.00  0.00    +0.000 C 
ATOM     10  C   UNL     1       2.095   6.133  17.762  0.00  0.00    +0.000 C 
ATOM     11  C   UNL     1       2.585   7.375  18.512  0.00  0.00    +0.000 C 
ATOM     12  C   UNL     1       3.886   4.551  18.578  0.00  0.00    +0.000 C 
ATOM     13  C   UNL     1       4.180   3.194  19.172  0.00  0.00    +0.000 C 
ATOM     14  O   UNL     1       5.024   3.027  20.049  0.00  0.00    +0.000 OA
ATOM     15  N   UNL     1       3.427   2.163  18.694  0.00  0.00    +0.000 N 
ATOM     16  C   UNL     1       2.109   2.311  18.368  0.00  0.00    +0.000 C 
ATOM     17  O   UNL     1       1.307   1.397  18.542  0.00  0.00    +0.000 OA
ATOM     18  C   UNL     1       1.705   3.649  17.794  0.00  0.00    +0.000 C 
ATOM     19  N   UNL     1       1.292   9.548  19.601  0.00  0.00    +0.000 NA
ATOM     20  H   UNL     1       3.632   1.278  19.138  0.00  0.00    +0.000 HD
ENDROOT
BRANCH   1  21
ATOM     21  O   UNL     1       0.445  11.717  19.349  0.00  0.00    +0.000 OA
BRANCH  21  23
ATOM     22  C   UNL     1       1.718  13.651  18.814  0.00  0.00    +0.000 C 
ATOM     23  C   UNL     1       1.589  12.152  18.607  0.00  0.00    +0.000 C 
ENDBRANCH  21  23
ENDBRANCH   1  21
TORSDOF 2
ENDMDL
MODEL 5
REMARK VINA RESULT:      -6.6      4.062      7.687
REMARK  Name = 
REMARK  3 active torsions:
REMARK  status: ('A' for Active; 'I' for Inactive)
REMARK    1  A    between atoms: C_1  and  C_2
REMARK    2  A    between atoms: C_2  and  O_3
REMARK    3  A    between atoms: O_3  and  C_4
REMARK                            x       y       z     vdW  Elec       q    Type
REMARK                         _______ _______ _______ _____ _____    ______ ____
ROOT
ATOM      1  C   UNL     1       6.334   4.177  13.512  0.00  0.00    +0.000 A 
ATOM      2  C   UNL     1       7.510   4.835  13.757  0.00  0.00    +0.000 A 
ATOM      3  C   UNL     1       7.768   5.079  15.075  0.00  0.00    +0.000 A 
ATOM      4  N   UNL     1       6.932   4.726  16.066  0.00  0.00    +0.000 NA
ATOM      5  C   UNL     1       5.789   4.106  15.735  0.00  0.00    +0.000 A 
ATOM      6  N   UNL     1       4.891   3.808  16.728  0.00  0.00    +0.000 N 
ATOM      7  C   UNL     1       5.210   4.123  18.107  0.00  0.00    +0.000 C 
ATOM      8  C   UNL     1       3.978   4.769  18.743  0.00  0.00    +0.000 C 
ATOM      9  C   UNL     1       2.699   3.903  18.588  0.00  0.00    +0.000 C 
ATOM     10  C   UNL     1       2.500   3.597  17.083  0.00  0.00    +0.000 C 
ATOM     11  C   UNL     1       3.740   2.969  16.439  0.00  0.00    +0.000 C 
ATOM     12  C   UNL     1       2.796   2.587  19.378  0.00  0.00    +0.000 C 
ATOM     13  C   UNL     1       2.815   2.847  20.866  0.00  0.00    +0.000 C 
ATOM     14  O   UNL     1       3.637   2.326  21.615  0.00  0.00    +0.000 OA
ATOM     15  N   UNL     1       1.878   3.724  21.325  0.00  0.00    +0.000 N 
ATOM     16  C   UNL     1       1.496   4.824  20.612  0.00  0.00    +0.000 C 
ATOM     17  O   UNL     1       1.191   5.871  21.178  0.00  0.00    +0.000 OA
ATOM     18  C   UNL     1       1.474   4.676  19.108  0.00  0.00    +0.000 C 
ATOM     19  N   UNL     1       5.468   3.811  14.467  0.00  0.00    +0.000 NA
ATOM     20  H   UNL     1       1.943   3.895  22.320  0.00  0.00    +0.000 HD
ENDROOT
BRANCH   1  21
ATOM     21  O   UNL     1       6.027   3.914  12.195  0.00  0.00    +0.000 OA
BRANCH  21  23
ATOM     22  C   UNL     1       4.009   3.252  11.131  0.00  0.00    +0.000 C 
ATOM     23  C   UNL     1       5.138   2.803  12.043  0.00  0.00    +0.000 C 
ENDBRANCH  21  23
ENDBRANCH   1  21
TORSDOF 2
ENDMDL
MODEL 6
REMARK VINA RESULT:      -6.5      1.610      1.836
REMARK  Name = 
REMARK  3 active torsions:
REMARK  status: ('A' for Active; 'I' for Inactive)
REMARK    1  A    between atoms: C_1  and  C_2
REMARK    2  A    between atoms: C_2  and  O_3
REMARK    3  A    between atoms: O_3  and  C_4
REMARK                            x       y       z     vdW  Elec       q    Type
REMARK                         _______ _______ _______ _____ _____    ______ ____
ROOT
ATOM      1  C   UNL     1       0.659  10.585  21.055  0.00  0.00    +0.000 A 
ATOM      2  C   UNL     1       0.529  11.526  20.068  0.00  0.00    +0.000 A 
ATOM      3  C   UNL     1       0.823  11.084  18.811  0.00  0.00    +0.000 A 
ATOM      4  N   UNL     1       1.230   9.830  18.549  0.00  0.00    +0.000 NA
ATOM      5  C   UNL     1       1.355   8.979  19.579  0.00  0.00    +0.000 A 
ATOM      6  N   UNL     1       1.842   7.720  19.337  0.00  0.00    +0.000 N 
ATOM      7  C   UNL     1       2.167   7.321  17.982  0.00  0.00    +0.000 C 
ATOM      8  C   UNL     1       3.523   6.614  18.008  0.00  0.00    +0.000 C 
ATOM      9  C   UNL     1       3.569   5.441  19.025  0.00  0.00    +0.000 C 
ATOM     10  C   UNL     1       3.155   5.987  20.414  0.00  0.00    +0.000 C 
ATOM     11  C   UNL     1       1.807   6.714  20.385  0.00  0.00    +0.000 C 
ATOM     12  C   UNL     1       2.632   4.291  18.618  0.00  0.00    +0.000 C 
ATOM     13  C   UNL     1       3.112   3.622  17.352  0.00  0.00    +0.000 C 
ATOM     14  O   UNL     1       2.364   3.384  16.408  0.00  0.00    +0.000 OA
ATOM     15  N   UNL     1       4.441   3.321  17.309  0.00  0.00    +0.000 N 
ATOM     16  C   UNL     1       5.391   4.134  17.857  0.00  0.00    +0.000 C 
ATOM     17  O   UNL     1       6.501   4.247  17.343  0.00  0.00    +0.000 OA
ATOM     18  C   UNL     1       4.998   4.877  19.113  0.00  0.00    +0.000 C 
ATOM     19  N   UNL     1       1.068   9.327  20.841  0.00  0.00    +0.000 NA
ATOM     20  H   UNL     1       4.729   2.903  16.434  0.00  0.00    +0.000 HD
ENDROOT
BRANCH   1  21
ATOM     21  O   UNL     1       0.380  10.988  22.342  0.00  0.00    +0.000 OA
BRANCH  21  23
ATOM     22  C   UNL     1      -1.807  11.559  23.075  0.00  0.00    +0.000 C 
ATOM     23  C   UNL     1      -0.830  10.418  22.853  0.00  0.00    +0.000 C 
ENDBRANCH  21  23
ENDBRANCH   1  21
TORSDOF 2
ENDMDL
MODEL 7
REMARK VINA RESULT:      -6.3      5.653     11.448
REMARK  Name = 
REMARK  3 active torsions:
REMARK  status: ('A' for Active; 'I' for Inactive)
REMARK    1  A    between atoms: C_1  and  C_2
REMARK    2  A    between atoms: C_2  and  O_3
REMARK    3  A    between atoms: O_3  and  C_4
REMARK                            x       y       z     vdW  Elec       q    Type
REMARK                         _______ _______ _______ _____ _____    ______ ____
ROOT
ATOM      1  C   UNL     1      -0.421  10.530  19.044  0.00  0.00    +0.000 A 
ATOM      2  C   UNL     1      -0.930  10.460  17.775  0.00  0.00    +0.000 A 
ATOM      3  C   UNL     1      -2.086  11.158  17.580  0.00  0.00    +0.000 A 
ATOM      4  N   UNL     1      -2.702  11.849  18.556  0.00  0.00    +0.000 NA
ATOM      5  C   UNL     1      -2.147  11.843  19.778  0.00  0.00    +0.000 A 
ATOM      6  N   UNL     1      -2.803  12.480  20.800  0.00  0.00    +0.000 N 
ATOM      7  C   UNL     1      -4.047  13.177  20.536  0.00  0.00    +0.000 C 
ATOM      8  C   UNL     1      -5.041  12.809  21.638  0.00  0.00    +0.000 C 
ATOM      9  C   UNL     1      -4.480  13.066  23.063  0.00  0.00    +0.000 C 
ATOM     10  C   UNL     1      -3.134  12.311  23.198  0.00  0.00    +0.000 C 
ATOM     11  C   UNL     1      -2.145  12.663  22.083  0.00  0.00    +0.000 C 
ATOM     12  C   UNL     1      -4.265  14.565  23.334  0.00  0.00    +0.000 C 
ATOM     13  C   UNL     1      -5.582  15.302  23.382  0.00  0.00    +0.000 C 
ATOM     14  O   UNL     1      -5.775  16.347  22.767  0.00  0.00    +0.000 OA
ATOM     15  N   UNL     1      -6.560  14.718  24.132  0.00  0.00    +0.000 N 
ATOM     16  C   UNL     1      -6.722  13.364  24.193  0.00  0.00    +0.000 C 
ATOM     17  O   UNL     1      -7.840  12.864  24.298  0.00  0.00    +0.000 OA
ATOM     18  C   UNL     1      -5.463  12.532  24.120  0.00  0.00    +0.000 C 
ATOM     19  N   UNL     1      -1.003  11.201  20.049  0.00  0.00    +0.000 NA
ATOM     20  H   UNL     1      -7.435  15.225  24.114  0.00  0.00    +0.000 HD
ENDROOT
BRANCH   1  21
ATOM     21  O   UNL     1       0.743   9.835  19.291  0.00  0.00    +0.000 OA
BRANCH  21  23
ATOM     22  C   UNL     1       2.308   8.424  18.193  0.00  0.00    +0.000 C 
ATOM     23  C   UNL     1       1.603   9.769  18.149  0.00  0.00    +0.000 C 
ENDBRANCH  21  23
ENDBRANCH   1  21
TORSDOF 2
ENDMDL
MODEL 8
REMARK VINA RESULT:      -6.2      1.120      1.340
REMARK  Name = 
REMARK  3 active torsions:
REMARK  status: ('A' for Active; 'I' for Inactive)
REMARK    1  A    between atoms: C_1  and  C_2
REMARK    2  A    between atoms: C_2  and  O_3
REMARK    3  A    between atoms: O_3  and  C_4
REMARK                            x       y       z     vdW  Elec       q    Type
REMARK                         _______ _______ _______ _____ _____    ______ ____
ROOT
ATOM      1  C   UNL     1       0.709  10.280  19.353  0.00  0.00    +0.000 A 
ATOM      2  C   UNL     1       1.134  11.452  18.785  0.00  0.00    +0.000 A 
ATOM      3  C   UNL     1       2.143  11.318  17.875  0.00  0.00    +0.000 A 
ATOM      4  N   UNL     1       2.702  10.134  17.567  0.00  0.00    +0.000 NA
ATOM      5  C   UNL     1       2.241   9.039  18.190  0.00  0.00    +0.000 A 
ATOM      6  N   UNL     1       2.853   7.836  17.942  0.00  0.00    +0.000 N 
ATOM      7  C   UNL     1       3.943   7.764  16.988  0.00  0.00    +0.000 C 
ATOM      8  C   UNL     1       5.058   6.919  17.606  0.00  0.00    +0.000 C 
ATOM      9  C   UNL     1       4.563   5.527  18.083  0.00  0.00    +0.000 C 
ATOM     10  C   UNL     1       3.373   5.742  19.051  0.00  0.00    +0.000 C 
ATOM     11  C   UNL     1       2.264   6.605  18.442  0.00  0.00    +0.000 C 
ATOM     12  C   UNL     1       4.122   4.640  16.906  0.00  0.00    +0.000 C 
ATOM     13  C   UNL     1       5.300   4.268  16.037  0.00  0.00    +0.000 C 
ATOM     14  O   UNL     1       5.274   4.371  14.813  0.00  0.00    +0.000 OA
ATOM     15  N   UNL     1       6.410   3.834  16.698  0.00  0.00    +0.000 N 
ATOM     16  C   UNL     1       6.798   4.360  17.897  0.00  0.00    +0.000 C 
ATOM     17  O   UNL     1       7.987   4.470  18.186  0.00  0.00    +0.000 OA
ATOM     18  C   UNL     1       5.691   4.795  18.830  0.00  0.00    +0.000 C 
ATOM     19  N   UNL     1       1.241   9.080  19.080  0.00  0.00    +0.000 NA
ATOM     20  H   UNL     1       7.186   3.624  16.084  0.00  0.00    +0.000 HD
ENDROOT
BRANCH   1  21
ATOM     21  O   UNL     1      -0.304  10.367  20.282  0.00  0.00    +0.000 OA
BRANCH  21  23
ATOM     22  C   UNL     1      -2.068  10.579  18.705  0.00  0.00    +0.000 C 
ATOM     23  C   UNL     1      -1.360  11.242  19.873  0.00  0.00    +0.000 C 
ENDBRANCH  21  23
ENDBRANCH   1  21
TORSDOF 2
ENDMDL
MODEL 9
REMARK VINA RESULT:      -6.2      2.619      7.658
REMARK  Name = 
REMARK  3 active torsions:
REMARK  status: ('A' for Active; 'I' for Inactive)
REMARK    1  A    between atoms: C_1  and  C_2
REMARK    2  A    between atoms: C_2  and  O_3
REMARK    3  A    between atoms: O_3  and  C_4
REMARK                            x       y       z     vdW  Elec       q    Type
REMARK                         _______ _______ _______ _____ _____    ______ ____
ROOT
ATOM      1  C   UNL     1       3.548   5.413  19.367  0.00  0.00    +0.000 A 
ATOM      2  C   UNL     1       4.221   5.241  18.187  0.00  0.00    +0.000 A 
ATOM      3  C   UNL     1       4.103   6.272  17.302  0.00  0.00    +0.000 A 
ATOM      4  N   UNL     1       3.366   7.370  17.546  0.00  0.00    +0.000 NA
ATOM      5  C   UNL     1       2.718   7.446  18.719  0.00  0.00    +0.000 A 
ATOM      6  N   UNL     1       1.903   8.525  18.951  0.00  0.00    +0.000 N 
ATOM      7  C   UNL     1       1.793   9.573  17.956  0.00  0.00    +0.000 C 
ATOM      8  C   UNL     1       0.312   9.921  17.795  0.00  0.00    +0.000 C 
ATOM      9  C   UNL     1      -0.371  10.276  19.143  0.00  0.00    +0.000 C 
ATOM     10  C   UNL     1      -0.138   9.103  20.128  0.00  0.00    +0.000 C 
ATOM     11  C   UNL     1       1.342   8.740  20.274  0.00  0.00    +0.000 C 
ATOM     12  C   UNL     1       0.186  11.578  19.744  0.00  0.00    +0.000 C 
ATOM     13  C   UNL     1      -0.179  12.769  18.890  0.00  0.00    +0.000 C 
ATOM     14  O   UNL     1       0.645  13.615  18.554  0.00  0.00    +0.000 OA
ATOM     15  N   UNL     1      -1.480  12.833  18.488  0.00  0.00    +0.000 N 
ATOM     16  C   UNL     1      -2.197  11.720  18.156  0.00  0.00    +0.000 C 
ATOM     17  O   UNL     1      -3.045  11.754  17.269  0.00  0.00    +0.000 OA
ATOM     18  C   UNL     1      -1.884  10.462  18.934  0.00  0.00    +0.000 C 
ATOM     19  N   UNL     1       2.798   6.487  19.652  0.00  0.00    +0.000 NA
ATOM     20  H   UNL     1      -1.676  13.627  17.893  0.00  0.00    +0.000 HD
ENDROOT
BRANCH   1  21
ATOM     21  O   UNL     1       3.633   4.394  20.290  0.00  0.00    +0.000 OA
BRANCH  21  23
ATOM     22  C   UNL     1       4.402   2.152  20.131  0.00  0.00    +0.000 C 
ATOM     23  C   UNL     1       3.296   3.116  19.741  0.00  0.00    +0.000 C 
ENDBRANCH  21  23
ENDBRANCH   1  21
TORSDOF 2
ENDMDL
