MODEL 1
REMARK VINA RESULT:      -7.0      0.000      0.000
REMARK  Name = 
REMARK  7 active torsions:
REMARK  status: ('A' for Active; 'I' for Inactive)
REMARK    1  A    between atoms: C_1  and  O_2
REMARK    2  A    between atoms: O_2  and  C_3
REMARK    3  A    between atoms: C_10  and  C_11
REMARK    4  A    between atoms: C_11  and  C_12
REMARK    5  A    between atoms: C_12  and  C_13
REMARK    6  A    between atoms: N_15  and  C_16
REMARK    7  A    between atoms: C_16  and  C_17
REMARK                            x       y       z     vdW  Elec       q    Type
REMARK                         _______ _______ _______ _____ _____    ______ ____
ROOT
ATOM      1  C   UNL     1       2.252   6.443  19.669  0.00  0.00    +0.000 A 
ATOM      2  C   UNL     1       1.565   5.789  20.673  0.00  0.00    +0.000 A 
ATOM      3  C   UNL     1       1.537   4.401  20.642  0.00  0.00    +0.000 A 
ATOM      4  C   UNL     1       2.207   3.712  19.623  0.00  0.00    +0.000 A 
ATOM      5  C   UNL     1       2.195   2.309  19.574  0.00  0.00    +0.000 A 
ATOM      6  C   UNL     1       2.869   1.639  18.561  0.00  0.00    +0.000 A 
ATOM      7  C   UNL     1       3.565   2.362  17.599  0.00  0.00    +0.000 A 
ATOM      8  C   UNL     1       3.590   3.773  17.637  0.00  0.00    +0.000 A 
ATOM      9  C   UNL     1       2.898   4.464  18.642  0.00  0.00    +0.000 A 
ATOM     10  N   UNL     1       2.900   5.811  18.667  0.00  0.00    +0.000 NA
ENDROOT
BRANCH   1  12
ATOM     11  C   UNL     1       2.094   8.436  18.458  0.00  0.00    +0.000 C 
ATOM     12  O   UNL     1       2.262   7.820  19.731  0.00  0.00    +0.000 OA
ENDBRANCH   1  12
BRANCH   8  13
ATOM     13  C   UNL     1       4.347   4.522  16.555  0.00  0.00    +0.000 C 
BRANCH  13  14
ATOM     14  C   UNL     1       5.669   3.866  16.161  0.00  0.00    +0.000 C 
BRANCH  14  15
ATOM     15  C   UNL     1       6.833   4.772  16.495  0.00  0.00    +0.000 C 
ATOM     16  O   UNL     1       7.993   4.373  16.511  0.00  0.00    +0.000 OA
ATOM     17  N   UNL     1       6.482   6.075  16.761  0.00  0.00    +0.000 N 
ATOM     18  H   UNL     1       5.550   6.389  16.520  0.00  0.00    +0.000 HD
BRANCH  17  19
ATOM     19  C   UNL     1       7.474   7.080  17.110  0.00  0.00    +0.000 C 
BRANCH  19  20
ATOM     20  C   UNL     1       7.966   6.958  18.545  0.00  0.00    +0.000 C 
ATOM     21  F   UNL     1       8.723   8.051  18.844  0.00  0.00    +0.000 F 
ENDBRANCH  19  20
ENDBRANCH  17  19
ENDBRANCH  14  15
ENDBRANCH  13  14
ENDBRANCH   8  13
TORSDOF 6
ENDMDL
MODEL 2
REMARK VINA RESULT:      -7.0      3.508      4.887
REMARK  Name = 
REMARK  7 active torsions:
REMARK  status: ('A' for Active; 'I' for Inactive)
REMARK    1  A    between atoms: C_1  and  O_2
REMARK    2  A    between atoms: O_2  and  C_3
REMARK    3  A    between atoms: C_10  and  C_11
REMARK    4  A    between atoms: C_11  and  C_12
REMARK    5  A    between atoms: C_12  and  C_13
REMARK    6  A    between atoms: N_15  and  C_16
REMARK    7  A    between atoms: C_16  and  C_17
REMARK                            x       y       z     vdW  Elec       q    Type
REMARK                         _______ _______ _______ _____ _____    ______ ____
ROOT
ATOM      1  C   UNL     1       2.654   3.092  18.800  0.00  0.00    +0.000 A 
ATOM      2  C   UNL     1       1.731   3.945  19.374  0.00  0.00    +0.000 A 
ATOM      3  C   UNL     1       1.860   5.305  19.124  0.00  0.00    +0.000 A 
ATOM      4  C   UNL     1       2.893   5.767  18.299  0.00  0.00    +0.000 A 
ATOM      5  C   UNL     1       3.041   7.137  18.030  0.00  0.00    +0.000 A 
ATOM      6  C   UNL     1       4.067   7.580  17.205  0.00  0.00    +0.000 A 
ATOM      7  C   UNL     1       4.942   6.662  16.637  0.00  0.00    +0.000 A 
ATOM      8  C   UNL     1       4.805   5.281  16.895  0.00  0.00    +0.000 A 
ATOM      9  C   UNL     1       3.787   4.820  17.742  0.00  0.00    +0.000 A 
ATOM     10  N   UNL     1       3.666   3.505  18.009  0.00  0.00    +0.000 NA
ENDROOT
BRANCH   1  12
ATOM     11  C   UNL     1       3.641   0.975  18.730  0.00  0.00    +0.000 C 
ATOM     12  O   UNL     1       2.495   1.749  19.067  0.00  0.00    +0.000 OA
ENDBRANCH   1  12
BRANCH   8  13
ATOM     13  C   UNL     1       5.795   4.316  16.268  0.00  0.00    +0.000 C 
BRANCH  13  14
ATOM     14  C   UNL     1       7.006   4.999  15.636  0.00  0.00    +0.000 C 
BRANCH  14  15
ATOM     15  C   UNL     1       7.033   4.762  14.143  0.00  0.00    +0.000 C 
ATOM     16  O   UNL     1       7.669   5.475  13.375  0.00  0.00    +0.000 OA
ATOM     17  N   UNL     1       6.299   3.676  13.726  0.00  0.00    +0.000 N 
ATOM     18  H   UNL     1       5.981   3.006  14.417  0.00  0.00    +0.000 HD
BRANCH  17  19
ATOM     19  C   UNL     1       6.205   3.306  12.323  0.00  0.00    +0.000 C 
BRANCH  19  20
ATOM     20  C   UNL     1       4.788   3.397  11.777  0.00  0.00    +0.000 C 
ATOM     21  F   UNL     1       4.536   2.290  11.022  0.00  0.00    +0.000 F 
ENDBRANCH  19  20
ENDBRANCH  17  19
ENDBRANCH  14  15
ENDBRANCH  13  14
ENDBRANCH   8  13
TORSDOF 6
ENDMDL
MODEL 3
REMARK VINA RESULT:      -6.9      1.425      1.824
REMARK  Name = 
REMARK  7 active torsions:
REMARK  status: ('A' for Active; 'I' for Inactive)
REMARK    1  A    between atoms: C_1  and  O_2
REMARK    2  A    between atoms: O_2  and  C_3
REMARK    3  A    between atoms: C_10  and  C_11
REMARK    4  A    between atoms: C_11  and  C_12
REMARK    5  A    between atoms: C_12  and  C_13
REMARK    6  A    between atoms: N_15  and  C_16
REMARK    7  A    between atoms: C_16  and  C_17
REMARK                            x       y       z     vdW  Elec       q    Type
REMARK                         _______ _______ _______ _____ _____    ______ ____
ROOT
ATOM      1  C   UNL     1       2.420   7.420  18.774  0.00  0.00    +0.000 A 
ATOM      2  C   UNL     1       1.930   7.594  20.054  0.00  0.00    +0.000 A 
ATOM      3  C   UNL     1       1.563   6.460  20.768  0.00  0.00    +0.000 A 
ATOM      4  C   UNL     1       1.710   5.193  20.189  0.00  0.00    +0.000 A 
ATOM      5  C   UNL     1       1.348   4.034  20.893  0.00  0.00    +0.000 A 
ATOM      6  C   UNL     1       1.505   2.784  20.309  0.00  0.00    +0.000 A 
ATOM      7  C   UNL     1       2.033   2.682  19.027  0.00  0.00    +0.000 A 
ATOM      8  C   UNL     1       2.405   3.838  18.308  0.00  0.00    +0.000 A 
ATOM      9  C   UNL     1       2.233   5.108  18.876  0.00  0.00    +0.000 A 
ATOM     10  N   UNL     1       2.565   6.215  18.184  0.00  0.00    +0.000 NA
ENDROOT
BRANCH   1  12
ATOM     11  C   UNL     1       1.721   9.516  18.015  0.00  0.00    +0.000 C 
ATOM     12  O   UNL     1       2.777   8.565  18.095  0.00  0.00    +0.000 OA
ENDBRANCH   1  12
BRANCH   8  13
ATOM     13  C   UNL     1       2.959   3.680  16.903  0.00  0.00    +0.000 C 
BRANCH  13  14
ATOM     14  C   UNL     1       4.385   3.137  16.860  0.00  0.00    +0.000 C 
BRANCH  14  15
ATOM     15  C   UNL     1       5.387   4.269  16.860  0.00  0.00    +0.000 C 
ATOM     16  O   UNL     1       5.188   5.323  16.265  0.00  0.00    +0.000 OA
ATOM     17  N   UNL     1       6.525   4.022  17.592  0.00  0.00    +0.000 N 
ATOM     18  H   UNL     1       6.534   3.236  18.232  0.00  0.00    +0.000 HD
BRANCH  17  19
ATOM     19  C   UNL     1       7.598   4.998  17.694  0.00  0.00    +0.000 C 
BRANCH  19  20
ATOM     20  C   UNL     1       7.575   5.773  19.003  0.00  0.00    +0.000 C 
ATOM     21  F   UNL     1       8.196   6.972  18.815  0.00  0.00    +0.000 F 
ENDBRANCH  19  20
ENDBRANCH  17  19
ENDBRANCH  14  15
ENDBRANCH  13  14
ENDBRANCH   8  13
TORSDOF 6
ENDMDL
MODEL 4
REMARK VINA RESULT:      -6.9      1.262      1.267
REMARK  Name = 
REMARK  7 active torsions:
REMARK  status: ('A' for Active; 'I' for Inactive)
REMARK    1  A    between atoms: C_1  and  O_2
REMARK    2  A    between atoms: O_2  and  C_3
REMARK    3  A    between atoms: C_10  and  C_11
REMARK    4  A    between atoms: C_11  and  C_12
REMARK    5  A    between atoms: C_12  and  C_13
REMARK    6  A    between atoms: N_15  and  C_16
REMARK    7  A    between atoms: C_16  and  C_17
REMARK                            x       y       z     vdW  Elec       q    Type
REMARK                         _______ _______ _______ _____ _____    ______ ____
ROOT
ATOM      1  C   UNL     1       2.431   6.563  19.288  0.00  0.00    +0.000 A 
ATOM      2  C   UNL     1       1.906   6.003  20.437  0.00  0.00    +0.000 A 
ATOM      3  C   UNL     1       1.973   4.623  20.576  0.00  0.00    +0.000 A 
ATOM      4  C   UNL     1       2.573   3.850  19.573  0.00  0.00    +0.000 A 
ATOM      5  C   UNL     1       2.654   2.454  19.693  0.00  0.00    +0.000 A 
ATOM      6  C   UNL     1       3.257   1.700  18.694  0.00  0.00    +0.000 A 
ATOM      7  C   UNL     1       3.791   2.334  17.578  0.00  0.00    +0.000 A 
ATOM      8  C   UNL     1       3.720   3.737  17.444  0.00  0.00    +0.000 A 
ATOM      9  C   UNL     1       3.096   4.509  18.435  0.00  0.00    +0.000 A 
ATOM     10  N   UNL     1       3.006   5.847  18.300  0.00  0.00    +0.000 NA
ENDROOT
BRANCH   1  12
ATOM     11  C   UNL     1       2.294   8.389  17.836  0.00  0.00    +0.000 C 
ATOM     12  O   UNL     1       2.350   7.936  19.184  0.00  0.00    +0.000 OA
ENDBRANCH   1  12
BRANCH   8  13
ATOM     13  C   UNL     1       4.298   4.385  16.199  0.00  0.00    +0.000 C 
BRANCH  13  14
ATOM     14  C   UNL     1       5.665   3.835  15.796  0.00  0.00    +0.000 C 
BRANCH  14  15
ATOM     15  C   UNL     1       6.773   4.634  16.444  0.00  0.00    +0.000 C 
ATOM     16  O   UNL     1       7.325   5.571  15.877  0.00  0.00    +0.000 OA
ATOM     17  N   UNL     1       7.095   4.230  17.718  0.00  0.00    +0.000 N 
ATOM     18  H   UNL     1       6.465   3.605  18.208  0.00  0.00    +0.000 HD
BRANCH  17  19
ATOM     19  C   UNL     1       8.144   4.881  18.486  0.00  0.00    +0.000 C 
BRANCH  19  20
ATOM     20  C   UNL     1       7.605   5.732  19.628  0.00  0.00    +0.000 C 
ATOM     21  F   UNL     1       6.245   5.652  19.632  0.00  0.00    +0.000 F 
ENDBRANCH  19  20
ENDBRANCH  17  19
ENDBRANCH  14  15
ENDBRANCH  13  14
ENDBRANCH   8  13
TORSDOF 6
ENDMDL
MODEL 5
REMARK VINA RESULT:      -6.9      2.695      3.260
REMARK  Name = 
REMARK  7 active torsions:
REMARK  status: ('A' for Active; 'I' for Inactive)
REMARK    1  A    between atoms: C_1  and  O_2
REMARK    2  A    between atoms: O_2  and  C_3
REMARK    3  A    between atoms: C_10  and  C_11
REMARK    4  A    between atoms: C_11  and  C_12
REMARK    5  A    between atoms: C_12  and  C_13
REMARK    6  A    between atoms: N_15  and  C_16
REMARK    7  A    between atoms: C_16  and  C_17
REMARK                            x       y       z     vdW  Elec       q    Type
REMARK                         _______ _______ _______ _____ _____    ______ ____
ROOT
ATOM      1  C   UNL     1       2.584   6.866  18.842  0.00  0.00    +0.000 A 
ATOM      2  C   UNL     1       1.952   6.522  20.022  0.00  0.00    +0.000 A 
ATOM      3  C   UNL     1       1.907   5.177  20.364  0.00  0.00    +0.000 A 
ATOM      4  C   UNL     1       2.503   4.224  19.529  0.00  0.00    +0.000 A 
ATOM      5  C   UNL     1       2.472   2.859  19.857  0.00  0.00    +0.000 A 
ATOM      6  C   UNL     1       3.074   1.926  19.023  0.00  0.00    +0.000 A 
ATOM      7  C   UNL     1       3.718   2.348  17.865  0.00  0.00    +0.000 A 
ATOM      8  C   UNL     1       3.761   3.716  17.524  0.00  0.00    +0.000 A 
ATOM      9  C   UNL     1       3.141   4.668  18.346  0.00  0.00    +0.000 A 
ATOM     10  N   UNL     1       3.160   5.973  18.011  0.00  0.00    +0.000 NA
ENDROOT
BRANCH   1  12
ATOM     11  C   UNL     1       1.453   8.907  18.975  0.00  0.00    +0.000 C 
ATOM     12  O   UNL     1       2.613   8.210  18.534  0.00  0.00    +0.000 OA
ENDBRANCH   1  12
BRANCH   8  13
ATOM     13  C   UNL     1       4.459   4.130  16.240  0.00  0.00    +0.000 C 
BRANCH  13  14
ATOM     14  C   UNL     1       5.951   4.406  16.411  0.00  0.00    +0.000 C 
BRANCH  14  15
ATOM     15  C   UNL     1       6.636   4.482  15.065  0.00  0.00    +0.000 C 
ATOM     16  O   UNL     1       7.605   5.207  14.860  0.00  0.00    +0.000 OA
ATOM     17  N   UNL     1       6.092   3.665  14.102  0.00  0.00    +0.000 N 
ATOM     18  H   UNL     1       5.445   2.938  14.386  0.00  0.00    +0.000 HD
BRANCH  17  19
ATOM     19  C   UNL     1       6.620   3.619  12.748  0.00  0.00    +0.000 C 
BRANCH  19  20
ATOM     20  C   UNL     1       5.655   2.987  11.754  0.00  0.00    +0.000 C 
ATOM     21  F   UNL     1       4.401   3.463  11.996  0.00  0.00    +0.000 F 
ENDBRANCH  19  20
ENDBRANCH  17  19
ENDBRANCH  14  15
ENDBRANCH  13  14
ENDBRANCH   8  13
TORSDOF 6
ENDMDL
MODEL 6
REMARK VINA RESULT:      -6.9      3.910      5.235
REMARK  Name = 
REMARK  7 active torsions:
REMARK  status: ('A' for Active; 'I' for Inactive)
REMARK    1  A    between atoms: C_1  and  O_2
REMARK    2  A    between atoms: O_2  and  C_3
REMARK    3  A    between atoms: C_10  and  C_11
REMARK    4  A    between atoms: C_11  and  C_12
REMARK    5  A    between atoms: C_12  and  C_13
REMARK    6  A    between atoms: N_15  and  C_16
REMARK    7  A    between atoms: C_16  and  C_17
REMARK                            x       y       z     vdW  Elec       q    Type
REMARK                         _______ _______ _______ _____ _____    ______ ____
ROOT
ATOM      1  C   UNL     1       2.824   3.570  18.049  0.00  0.00    +0.000 A 
ATOM      2  C   UNL     1       2.881   4.067  19.337  0.00  0.00    +0.000 A 
ATOM      3  C   UNL     1       4.063   4.670  19.748  0.00  0.00    +0.000 A 
ATOM      4  C   UNL     1       5.140   4.771  18.859  0.00  0.00    +0.000 A 
ATOM      5  C   UNL     1       6.343   5.379  19.251  0.00  0.00    +0.000 A 
ATOM      6  C   UNL     1       7.401   5.478  18.357  0.00  0.00    +0.000 A 
ATOM      7  C   UNL     1       7.262   4.983  17.065  0.00  0.00    +0.000 A 
ATOM      8  C   UNL     1       6.058   4.372  16.654  0.00  0.00    +0.000 A 
ATOM      9  C   UNL     1       4.989   4.246  17.552  0.00  0.00    +0.000 A 
ATOM     10  N   UNL     1       3.846   3.643  17.170  0.00  0.00    +0.000 NA
ENDROOT
BRANCH   1  12
ATOM     11  C   UNL     1       0.839   2.579  18.782  0.00  0.00    +0.000 C 
ATOM     12  O   UNL     1       1.636   2.981  17.673  0.00  0.00    +0.000 OA
ENDBRANCH   1  12
BRANCH   8  13
ATOM     13  C   UNL     1       5.959   3.827  15.240  0.00  0.00    +0.000 C 
BRANCH  13  14
ATOM     14  C   UNL     1       6.979   4.426  14.276  0.00  0.00    +0.000 C 
BRANCH  14  15
ATOM     15  C   UNL     1       6.653   4.044  12.850  0.00  0.00    +0.000 C 
ATOM     16  O   UNL     1       7.295   4.464  11.893  0.00  0.00    +0.000 OA
ATOM     17  N   UNL     1       5.590   3.180  12.721  0.00  0.00    +0.000 N 
ATOM     18  H   UNL     1       5.246   2.703  13.545  0.00  0.00    +0.000 HD
BRANCH  17  19
ATOM     19  C   UNL     1       5.133   2.716  11.421  0.00  0.00    +0.000 C 
BRANCH  19  20
ATOM     20  C   UNL     1       3.677   3.061  11.145  0.00  0.00    +0.000 C 
ATOM     21  F   UNL     1       3.561   3.478   9.852  0.00  0.00    +0.000 F 
ENDBRANCH  19  20
ENDBRANCH  17  19
ENDBRANCH  14  15
ENDBRANCH  13  14
ENDBRANCH   8  13
TORSDOF 6
ENDMDL
MODEL 7
REMARK VINA RESULT:      -6.7      3.447      6.398
REMARK  Name = 
REMARK  7 active torsions:
REMARK  status: ('A' for Active; 'I' for Inactive)
REMARK    1  A    between atoms: C_1  and  O_2
REMARK    2  A    between atoms: O_2  and  C_3
REMARK    3  A    between atoms: C_10  and  C_11
REMARK    4  A    between atoms: C_11  and  C_12
REMARK    5  A    between atoms: C_12  and  C_13
REMARK    6  A    between atoms: N_15  and  C_16
REMARK    7  A    between atoms: C_16  and  C_17
REMARK                            x       y       z     vdW  Elec       q    Type
REMARK                         _______ _______ _______ _____ _____    ______ ____
ROOT
ATOM      1  C   UNL     1       6.288   6.131  16.664  0.00  0.00    +0.000 A 
ATOM      2  C   UNL     1       6.447   4.878  16.105  0.00  0.00    +0.000 A 
ATOM      3  C   UNL     1       5.405   3.970  16.238  0.00  0.00    +0.000 A 
ATOM      4  C   UNL     1       4.235   4.346  16.911  0.00  0.00    +0.000 A 
ATOM      5  C   UNL     1       3.168   3.446  17.056  0.00  0.00    +0.000 A 
ATOM      6  C   UNL     1       2.011   3.833  17.720  0.00  0.00    +0.000 A 
ATOM      7  C   UNL     1       1.908   5.122  18.233  0.00  0.00    +0.000 A 
ATOM      8  C   UNL     1       2.971   6.039  18.092  0.00  0.00    +0.000 A 
ATOM      9  C   UNL     1       4.153   5.656  17.442  0.00  0.00    +0.000 A 
ATOM     10  N   UNL     1       5.178   6.522  17.326  0.00  0.00    +0.000 NA
ENDROOT
BRANCH   1  12
ATOM     11  C   UNL     1       7.705   7.657  17.724  0.00  0.00    +0.000 C 
ATOM     12  O   UNL     1       7.340   7.008  16.511  0.00  0.00    +0.000 OA
ENDBRANCH   1  12
BRANCH   8  13
ATOM     13  C   UNL     1       2.822   7.429  18.685  0.00  0.00    +0.000 C 
BRANCH  13  14
ATOM     14  C   UNL     1       2.078   8.409  17.780  0.00  0.00    +0.000 C 
BRANCH  14  15
ATOM     15  C   UNL     1       1.183   9.313  18.596  0.00  0.00    +0.000 C 
ATOM     16  O   UNL     1       1.222   9.346  19.822  0.00  0.00    +0.000 OA
ATOM     17  N   UNL     1       0.337  10.100  17.850  0.00  0.00    +0.000 N 
ATOM     18  H   UNL     1       0.502  10.189  16.854  0.00  0.00    +0.000 HD
BRANCH  17  19
ATOM     19  C   UNL     1      -0.600  11.022  18.472  0.00  0.00    +0.000 C 
BRANCH  19  20
ATOM     20  C   UNL     1      -2.040  10.794  18.033  0.00  0.00    +0.000 C 
ATOM     21  F   UNL     1      -2.871  11.439  18.900  0.00  0.00    +0.000 F 
ENDBRANCH  19  20
ENDBRANCH  17  19
ENDBRANCH  14  15
ENDBRANCH  13  14
ENDBRANCH   8  13
TORSDOF 6
ENDMDL
MODEL 8
REMARK VINA RESULT:      -6.7      3.608      6.122
REMARK  Name = 
REMARK  7 active torsions:
REMARK  status: ('A' for Active; 'I' for Inactive)
REMARK    1  A    between atoms: C_1  and  O_2
REMARK    2  A    between atoms: O_2  and  C_3
REMARK    3  A    between atoms: C_10  and  C_11
REMARK    4  A    between atoms: C_11  and  C_12
REMARK    5  A    between atoms: C_12  and  C_13
REMARK    6  A    between atoms: N_15  and  C_16
REMARK    7  A    between atoms: C_16  and  C_17
REMARK                            x       y       z     vdW  Elec       q    Type
REMARK                         _______ _______ _______ _____ _____    ______ ____
ROOT
ATOM      1  C   UNL     1       1.972   3.147  19.186  0.00  0.00    +0.000 A 
ATOM      2  C   UNL     1       2.697   2.181  18.515  0.00  0.00    +0.000 A 
ATOM      3  C   UNL     1       3.659   2.605  17.608  0.00  0.00    +0.000 A 
ATOM      4  C   UNL     1       3.876   3.975  17.411  0.00  0.00    +0.000 A 
ATOM      5  C   UNL     1       4.845   4.427  16.502  0.00  0.00    +0.000 A 
ATOM      6  C   UNL     1       5.055   5.788  16.322  0.00  0.00    +0.000 A 
ATOM      7  C   UNL     1       4.309   6.704  17.054  0.00  0.00    +0.000 A 
ATOM      8  C   UNL     1       3.333   6.266  17.975  0.00  0.00    +0.000 A 
ATOM      9  C   UNL     1       3.096   4.895  18.153  0.00  0.00    +0.000 A 
ATOM     10  N   UNL     1       2.150   4.474  19.014  0.00  0.00    +0.000 NA
ENDROOT
BRANCH   1  12
ATOM     11  C   UNL     1       1.444   2.806  21.437  0.00  0.00    +0.000 C 
ATOM     12  O   UNL     1       1.027   2.691  20.081  0.00  0.00    +0.000 OA
ENDBRANCH   1  12
BRANCH   8  13
ATOM     13  C   UNL     1       2.528   7.302  18.739  0.00  0.00    +0.000 C 
BRANCH  13  14
ATOM     14  C   UNL     1       2.095   8.495  17.889  0.00  0.00    +0.000 C 
BRANCH  14  15
ATOM     15  C   UNL     1       1.311   9.485  18.721  0.00  0.00    +0.000 C 
ATOM     16  O   UNL     1       0.905   9.221  19.848  0.00  0.00    +0.000 OA
ATOM     17  N   UNL     1       1.105  10.702  18.114  0.00  0.00    +0.000 N 
ATOM     18  H   UNL     1       1.645  10.933  17.288  0.00  0.00    +0.000 HD
BRANCH  17  19
ATOM     19  C   UNL     1       0.363  11.768  18.766  0.00  0.00    +0.000 C 
BRANCH  19  20
ATOM     20  C   UNL     1      -1.129  11.722  18.469  0.00  0.00    +0.000 C 
ATOM     21  F   UNL     1      -1.775  11.183  19.541  0.00  0.00    +0.000 F 
ENDBRANCH  19  20
ENDBRANCH  17  19
ENDBRANCH  14  15
ENDBRANCH  13  14
ENDBRANCH   8  13
TORSDOF 6
ENDMDL
MODEL 9
REMARK VINA RESULT:      -6.7      2.398      2.911
REMARK  Name = 
REMARK  7 active torsions:
REMARK  status: ('A' for Active; 'I' for Inactive)
REMARK    1  A    between atoms: C_1  and  O_2
REMARK    2  A    between atoms: O_2  and  C_3
REMARK    3  A    between atoms: C_10  and  C_11
REMARK    4  A    between atoms: C_11  and  C_12
REMARK    5  A    between atoms: C_12  and  C_13
REMARK    6  A    between atoms: N_15  and  C_16
REMARK    7  A    between atoms: C_16  and  C_17
REMARK                            x       y       z     vdW  Elec       q    Type
REMARK                         _______ _______ _______ _____ _____    ______ ____
ROOT
ATOM      1  C   UNL     1       2.622   7.316  18.845  0.00  0.00    +0.000 A 
ATOM      2  C   UNL     1       1.807   7.467  19.950  0.00  0.00    +0.000 A 
ATOM      3  C   UNL     1       1.624   6.365  20.776  0.00  0.00    +0.000 A 
ATOM      4  C   UNL     1       2.271   5.158  20.483  0.00  0.00    +0.000 A 
ATOM      5  C   UNL     1       2.103   4.033  21.306  0.00  0.00    +0.000 A 
ATOM      6  C   UNL     1       2.756   2.844  21.006  0.00  0.00    +0.000 A 
ATOM      7  C   UNL     1       3.586   2.774  19.893  0.00  0.00    +0.000 A 
ATOM      8  C   UNL     1       3.767   3.897  19.058  0.00  0.00    +0.000 A 
ATOM      9  C   UNL     1       3.099   5.098  19.336  0.00  0.00    +0.000 A 
ATOM     10  N   UNL     1       3.252   6.165  18.529  0.00  0.00    +0.000 NA
ENDROOT
BRANCH   1  12
ATOM     11  C   UNL     1       1.744   9.388  18.214  0.00  0.00    +0.000 C 
ATOM     12  O   UNL     1       2.784   8.429  18.048  0.00  0.00    +0.000 OA
ENDBRANCH   1  12
BRANCH   8  13
ATOM     13  C   UNL     1       4.668   3.768  17.842  0.00  0.00    +0.000 C 
BRANCH  13  14
ATOM     14  C   UNL     1       6.055   4.376  18.036  0.00  0.00    +0.000 C 
BRANCH  14  15
ATOM     15  C   UNL     1       6.763   4.521  16.708  0.00  0.00    +0.000 C 
ATOM     16  O   UNL     1       7.980   4.413  16.596  0.00  0.00    +0.000 OA
ATOM     17  N   UNL     1       5.930   4.768  15.642  0.00  0.00    +0.000 N 
ATOM     18  H   UNL     1       4.933   4.628  15.758  0.00  0.00    +0.000 HD
BRANCH  17  19
ATOM     19  C   UNL     1       6.442   4.944  14.293  0.00  0.00    +0.000 C 
BRANCH  19  20
ATOM     20  C   UNL     1       6.255   3.711  13.420  0.00  0.00    +0.000 C 
ATOM     21  F   UNL     1       5.032   3.778  12.821  0.00  0.00    +0.000 F 
ENDBRANCH  19  20
ENDBRANCH  17  19
ENDBRANCH  14  15
ENDBRANCH  13  14
ENDBRANCH   8  13
TORSDOF 6
ENDMDL
