MODEL 1
REMARK VINA RESULT:      -6.2      0.000      0.000
REMARK  Name = 
REMARK  25 active torsions:
REMARK  status: ('A' for Active; 'I' for Inactive)
REMARK    1  A    between atoms: C_1  and  C_2
REMARK    2  A    between atoms: C_2  and  C_3
REMARK    3  A    between atoms: C_3  and  C_4
REMARK    4  A    between atoms: C_4  and  C_5
REMARK    5  A    between atoms: C_5  and  C_6
REMARK    6  A    between atoms: C_6  and  C_7
REMARK    7  A    between atoms: C_7  and  C_8
REMARK    8  A    between atoms: C_8  and  C_9
REMARK    9  A    between atoms: C_9  and  C_10
REMARK   10  A    between atoms: C_10  and  C_11
REMARK   11  A    between atoms: C_11  and  C_12
REMARK   12  A    between atoms: C_12  and  C_13
REMARK   13  A    between atoms: C_13  and  C_14
REMARK   14  A    between atoms: N_16  and  C_17
REMARK   15  A    between atoms: C_17  and  C_18
REMARK   16  A    between atoms: C_17  and  C_23
REMARK   17  A    between atoms: C_18  and  C_19
REMARK   18  A    between atoms: C_19  and  C_20
REMARK   19  A    between atoms: C_20  and  C_21
REMARK   20  A    between atoms: C_21  and  N_22
REMARK   21  A    between atoms: C_23  and  N_24
REMARK   22  A    between atoms: N_28  and  C_29
REMARK   23  A    between atoms: C_29  and  C_30
REMARK   24  A    between atoms: C_30  and  C_31
REMARK   25  A    between atoms: C_31  and  C_32
REMARK                            x       y       z     vdW  Elec       q    Type
REMARK                         _______ _______ _______ _____ _____    ______ ____
ROOT
ATOM      1  C   UNL     1       3.550   5.022  19.989  0.00  0.00    +0.000 C 
ENDROOT
BRANCH   1   4
ATOM      2  C   UNL     1       2.276   7.040  19.222  0.00  0.00    +0.000 C 
ATOM      3  O   UNL     1       2.324   7.582  20.344  0.00  0.00    +0.000 OA
ATOM      4  N   UNL     1       2.846   5.812  18.962  0.00  0.00    +0.000 N 
ATOM      5  H   UNL     1       2.840   5.438  18.020  0.00  0.00    +0.000 HD
BRANCH   2   6
ATOM      6  C   UNL     1       1.553   7.735  18.102  0.00  0.00    +0.000 C 
BRANCH   6   7
ATOM      7  C   UNL     1       2.250   9.049  17.802  0.00  0.00    +0.000 C 
BRANCH   7   8
ATOM      8  C   UNL     1       1.431  10.221  18.309  0.00  0.00    +0.000 C 
BRANCH   8   9
ATOM      9  C   UNL     1      -0.037  10.022  17.969  0.00  0.00    +0.000 C 
BRANCH   9  10
ATOM     10  C   UNL     1      -0.898  10.444  19.146  0.00  0.00    +0.000 C 
BRANCH  10  11
ATOM     11  C   UNL     1      -1.489  11.818  18.890  0.00  0.00    +0.000 C 
BRANCH  11  12
ATOM     12  C   UNL     1      -2.921  11.863  19.389  0.00  0.00    +0.000 C 
BRANCH  12  13
ATOM     13  C   UNL     1      -3.106  13.046  20.319  0.00  0.00    +0.000 C 
BRANCH  13  14
ATOM     14  C   UNL     1      -1.765  13.472  20.885  0.00  0.00    +0.000 C 
BRANCH  14  15
ATOM     15  C   UNL     1      -1.642  13.011  22.325  0.00  0.00    +0.000 C 
BRANCH  15  16
ATOM     16  C   UNL     1      -0.605  11.908  22.429  0.00  0.00    +0.000 C 
BRANCH  16  18
ATOM     17  C   UNL     1      -0.168   9.592  23.220  0.00  0.00    +0.000 C 
ATOM     18  C   UNL     1      -1.226  10.660  23.035  0.00  0.00    +0.000 C 
ENDBRANCH  16  18
ENDBRANCH  15  16
ENDBRANCH  14  15
ENDBRANCH  13  14
ENDBRANCH  12  13
ENDBRANCH  11  12
ENDBRANCH  10  11
ENDBRANCH   9  10
ENDBRANCH   8   9
ENDBRANCH   7   8
ENDBRANCH   6   7
ENDBRANCH   2   6
ENDBRANCH   1   4
BRANCH   1  19
ATOM     19  C   UNL     1       2.590   4.034  20.685  0.00  0.00    +0.000 C 
BRANCH  19  20
ATOM     20  C   UNL     1       1.173   4.163  20.145  0.00  0.00    +0.000 C 
BRANCH  20  21
ATOM     21  C   UNL     1       0.641   2.907  19.516  0.00  0.00    +0.000 C 
BRANCH  21  22
ATOM     22  C   UNL     1       1.483   2.591  18.286  0.00  0.00    +0.000 C 
BRANCH  22  23
ATOM     23  N   UNL     1       1.364   3.709  17.375  0.00  0.00    +0.000 NA
ATOM     24  H   UNL     1       0.448   3.669  16.931  0.00  0.00    +0.000 HD
ATOM     25  H   UNL     1       2.060   3.616  16.640  0.00  0.00    +0.000 HD
ENDBRANCH  22  23
ENDBRANCH  21  22
ENDBRANCH  20  21
ENDBRANCH  19  20
ENDBRANCH   1  19
BRANCH   1  26
ATOM     26  C   UNL     1       4.756   4.238  19.424  0.00  0.00    +0.000 C 
BRANCH  26  27
ATOM     27  N   UNL     1       5.462   4.895  18.349  0.00  0.00    +0.000 N 
ATOM     28  C   UNL     1       6.573   5.805  18.521  0.00  0.00    +0.000 C 
ATOM     29  C   UNL     1       6.910   6.114  17.055  0.00  0.00    +0.000 C 
ATOM     30  O   UNL     1       7.799   6.877  16.671  0.00  0.00    +0.000 OA
ATOM     31  N   UNL     1       6.072   5.346  16.266  0.00  0.00    +0.000 N 
ATOM     32  C   UNL     1       5.158   4.635  17.023  0.00  0.00    +0.000 C 
ATOM     33  O   UNL     1       4.276   3.905  16.645  0.00  0.00    +0.000 OA
BRANCH  31  34
ATOM     34  C   UNL     1       6.130   5.321  14.820  0.00  0.00    +0.000 C 
BRANCH  34  35
ATOM     35  C   UNL     1       6.275   3.913  14.262  0.00  0.00    +0.000 C 
BRANCH  35  36
ATOM     36  C   UNL     1       5.414   3.690  13.030  0.00  0.00    +0.000 C 
ATOM     37  C   UNL     1       6.193   2.892  12.004  0.00  0.00    +0.000 C 
ENDBRANCH  35  36
ENDBRANCH  34  35
ENDBRANCH  31  34
ENDBRANCH  26  27
ENDBRANCH   1  26
TORSDOF 23
ENDMDL
MODEL 2
REMARK VINA RESULT:      -6.0      3.503     10.338
REMARK  Name = 
REMARK  25 active torsions:
REMARK  status: ('A' for Active; 'I' for Inactive)
REMARK    1  A    between atoms: C_1  and  C_2
REMARK    2  A    between atoms: C_2  and  C_3
REMARK    3  A    between atoms: C_3  and  C_4
REMARK    4  A    between atoms: C_4  and  C_5
REMARK    5  A    between atoms: C_5  and  C_6
REMARK    6  A    between atoms: C_6  and  C_7
REMARK    7  A    between atoms: C_7  and  C_8
REMARK    8  A    between atoms: C_8  and  C_9
REMARK    9  A    between atoms: C_9  and  C_10
REMARK   10  A    between atoms: C_10  and  C_11
REMARK   11  A    between atoms: C_11  and  C_12
REMARK   12  A    between atoms: C_12  and  C_13
REMARK   13  A    between atoms: C_13  and  C_14
REMARK   14  A    between atoms: N_16  and  C_17
REMARK   15  A    between atoms: C_17  and  C_18
REMARK   16  A    between atoms: C_17  and  C_23
REMARK   17  A    between atoms: C_18  and  C_19
REMARK   18  A    between atoms: C_19  and  C_20
REMARK   19  A    between atoms: C_20  and  C_21
REMARK   20  A    between atoms: C_21  and  N_22
REMARK   21  A    between atoms: C_23  and  N_24
REMARK   22  A    between atoms: N_28  and  C_29
REMARK   23  A    between atoms: C_29  and  C_30
REMARK   24  A    between atoms: C_30  and  C_31
REMARK   25  A    between atoms: C_31  and  C_32
REMARK                            x       y       z     vdW  Elec       q    Type
REMARK                         _______ _______ _______ _____ _____    ______ ____
ROOT
ATOM      1  C   UNL     1       0.484  10.373  18.673  0.00  0.00    +0.000 C 
ENDROOT
BRANCH   1   4
ATOM      2  C   UNL     1       1.808   8.278  19.049  0.00  0.00    +0.000 C 
ATOM      3  O   UNL     1       1.987   8.089  17.830  0.00  0.00    +0.000 OA
ATOM      4  N   UNL     1       1.103   9.355  19.542  0.00  0.00    +0.000 N 
ATOM      5  H   UNL     1       1.037   9.505  20.542  0.00  0.00    +0.000 HD
BRANCH   2   6
ATOM      6  C   UNL     1       2.362   7.286  20.034  0.00  0.00    +0.000 C 
BRANCH   6   7
ATOM      7  C   UNL     1       2.111   5.881  19.517  0.00  0.00    +0.000 C 
BRANCH   7   8
ATOM      8  C   UNL     1       1.905   4.913  20.666  0.00  0.00    +0.000 C 
BRANCH   8   9
ATOM      9  C   UNL     1       0.902   3.840  20.276  0.00  0.00    +0.000 C 
BRANCH   9  10
ATOM     10  C   UNL     1       1.567   2.475  20.323  0.00  0.00    +0.000 C 
BRANCH  10  11
ATOM     11  C   UNL     1       3.060   2.619  20.096  0.00  0.00    +0.000 C 
BRANCH  11  12
ATOM     12  C   UNL     1       3.473   1.825  18.871  0.00  0.00    +0.000 C 
BRANCH  12  13
ATOM     13  C   UNL     1       2.614   2.221  17.686  0.00  0.00    +0.000 C 
BRANCH  13  14
ATOM     14  C   UNL     1       3.078   3.555  17.135  0.00  0.00    +0.000 C 
BRANCH  14  15
ATOM     15  C   UNL     1       4.594   3.598  17.094  0.00  0.00    +0.000 C 
BRANCH  15  16
ATOM     16  C   UNL     1       5.056   4.562  16.015  0.00  0.00    +0.000 C 
BRANCH  16  18
ATOM     17  C   UNL     1       5.546   6.200  17.819  0.00  0.00    +0.000 C 
ATOM     18  C   UNL     1       4.870   5.997  16.480  0.00  0.00    +0.000 C 
ENDBRANCH  16  18
ENDBRANCH  15  16
ENDBRANCH  14  15
ENDBRANCH  13  14
ENDBRANCH  12  13
ENDBRANCH  11  12
ENDBRANCH  10  11
ENDBRANCH   9  10
ENDBRANCH   8   9
ENDBRANCH   7   8
ENDBRANCH   6   7
ENDBRANCH   2   6
ENDBRANCH   1   4
BRANCH   1  19
ATOM     19  C   UNL     1      -1.056  10.272  18.709  0.00  0.00    +0.000 C 
BRANCH  19  20
ATOM     20  C   UNL     1      -1.634  10.099  17.312  0.00  0.00    +0.000 C 
BRANCH  20  21
ATOM     21  C   UNL     1      -3.107   9.804  17.291  0.00  0.00    +0.000 C 
BRANCH  21  22
ATOM     22  C   UNL     1      -3.772  10.739  16.288  0.00  0.00    +0.000 C 
BRANCH  22  23
ATOM     23  N   UNL     1      -4.115  11.958  16.988  0.00  0.00    +0.000 NA
ATOM     24  H   UNL     1      -4.965  11.795  17.526  0.00  0.00    +0.000 HD
ATOM     25  H   UNL     1      -4.324  12.685  16.309  0.00  0.00    +0.000 HD
ENDBRANCH  22  23
ENDBRANCH  21  22
ENDBRANCH  20  21
ENDBRANCH  19  20
ENDBRANCH   1  19
BRANCH   1  26
ATOM     26  C   UNL     1       0.903  11.813  19.040  0.00  0.00    +0.000 C 
BRANCH  26  27
ATOM     27  N   UNL     1      -0.014  12.515  19.907  0.00  0.00    +0.000 N 
ATOM     28  C   UNL     1      -0.951  13.528  19.475  0.00  0.00    +0.000 C 
ATOM     29  C   UNL     1      -1.654  13.844  20.804  0.00  0.00    +0.000 C 
ATOM     30  O   UNL     1      -2.546  14.679  20.961  0.00  0.00    +0.000 OA
ATOM     31  N   UNL     1      -1.137  12.987  21.760  0.00  0.00    +0.000 N 
ATOM     32  C   UNL     1      -0.113  12.206  21.254  0.00  0.00    +0.000 C 
ATOM     33  O   UNL     1       0.564  11.390  21.828  0.00  0.00    +0.000 OA
BRANCH  31  34
ATOM     34  C   UNL     1      -1.595  12.944  23.132  0.00  0.00    +0.000 C 
BRANCH  34  35
ATOM     35  C   UNL     1      -2.764  11.990  23.331  0.00  0.00    +0.000 C 
BRANCH  35  36
ATOM     36  C   UNL     1      -3.829  12.569  24.248  0.00  0.00    +0.000 C 
ATOM     37  C   UNL     1      -3.696  14.079  24.289  0.00  0.00    +0.000 C 
ENDBRANCH  35  36
ENDBRANCH  34  35
ENDBRANCH  31  34
ENDBRANCH  26  27
ENDBRANCH   1  26
TORSDOF 23
ENDMDL
MODEL 3
REMARK VINA RESULT:      -6.0      1.907      3.038
REMARK  Name = 
REMARK  25 active torsions:
REMARK  status: ('A' for Active; 'I' for Inactive)
REMARK    1  A    between atoms: C_1  and  C_2
REMARK    2  A    between atoms: C_2  and  C_3
REMARK    3  A    between atoms: C_3  and  C_4
REMARK    4  A    between atoms: C_4  and  C_5
REMARK    5  A    between atoms: C_5  and  C_6
REMARK    6  A    between atoms: C_6  and  C_7
REMARK    7  A    between atoms: C_7  and  C_8
REMARK    8  A    between atoms: C_8  and  C_9
REMARK    9  A    between atoms: C_9  and  C_10
REMARK   10  A    between atoms: C_10  and  C_11
REMARK   11  A    between atoms: C_11  and  C_12
REMARK   12  A    between atoms: C_12  and  C_13
REMARK   13  A    between atoms: C_13  and  C_14
REMARK   14  A    between atoms: N_16  and  C_17
REMARK   15  A    between atoms: C_17  and  C_18
REMARK   16  A    between atoms: C_17  and  C_23
REMARK   17  A    between atoms: C_18  and  C_19
REMARK   18  A    between atoms: C_19  and  C_20
REMARK   19  A    between atoms: C_20  and  C_21
REMARK   20  A    between atoms: C_21  and  N_22
REMARK   21  A    between atoms: C_23  and  N_24
REMARK   22  A    between atoms: N_28  and  C_29
REMARK   23  A    between atoms: C_29  and  C_30
REMARK   24  A    between atoms: C_30  and  C_31
REMARK   25  A    between atoms: C_31  and  C_32
REMARK                            x       y       z     vdW  Elec       q    Type
REMARK                         _______ _______ _______ _____ _____    ______ ____
ROOT
ATOM      1  C   UNL     1       3.108   5.923  19.855  0.00  0.00    +0.000 C 
ENDROOT
BRANCH   1   4
ATOM      2  C   UNL     1       1.631   7.909  20.248  0.00  0.00    +0.000 C 
ATOM      3  O   UNL     1       2.063   8.515  19.248  0.00  0.00    +0.000 OA
ATOM      4  N   UNL     1       2.075   6.655  20.609  0.00  0.00    +0.000 N 
ATOM      5  H   UNL     1       1.650   6.172  21.393  0.00  0.00    +0.000 HD
BRANCH   2   6
ATOM      6  C   UNL     1       0.599   8.571  21.117  0.00  0.00    +0.000 C 
BRANCH   6   7
ATOM      7  C   UNL     1       0.858  10.066  21.144  0.00  0.00    +0.000 C 
BRANCH   7   8
ATOM      8  C   UNL     1      -0.444  10.841  21.088  0.00  0.00    +0.000 C 
BRANCH   8   9
ATOM      9  C   UNL     1      -0.436  11.798  19.907  0.00  0.00    +0.000 C 
BRANCH   9  10
ATOM     10  C   UNL     1      -0.444  11.011  18.609  0.00  0.00    +0.000 C 
BRANCH  10  11
ATOM     11  C   UNL     1      -1.699  11.329  17.818  0.00  0.00    +0.000 C 
BRANCH  11  12
ATOM     12  C   UNL     1      -2.581  10.098  17.736  0.00  0.00    +0.000 C 
BRANCH  12  13
ATOM     13  C   UNL     1      -3.701  10.332  16.741  0.00  0.00    +0.000 C 
BRANCH  13  14
ATOM     14  C   UNL     1      -4.483  11.573  17.125  0.00  0.00    +0.000 C 
BRANCH  14  15
ATOM     15  C   UNL     1      -5.087  11.396  18.505  0.00  0.00    +0.000 C 
BRANCH  15  16
ATOM     16  C   UNL     1      -6.519  10.904  18.386  0.00  0.00    +0.000 C 
BRANCH  16  18
ATOM     17  C   UNL     1      -6.398  11.925  20.649  0.00  0.00    +0.000 C 
ATOM     18  C   UNL     1      -7.261  11.130  19.692  0.00  0.00    +0.000 C 
ENDBRANCH  16  18
ENDBRANCH  15  16
ENDBRANCH  14  15
ENDBRANCH  13  14
ENDBRANCH  12  13
ENDBRANCH  11  12
ENDBRANCH  10  11
ENDBRANCH   9  10
ENDBRANCH   8   9
ENDBRANCH   7   8
ENDBRANCH   6   7
ENDBRANCH   2   6
ENDBRANCH   1   4
BRANCH   1  19
ATOM     19  C   UNL     1       3.043   4.409  20.149  0.00  0.00    +0.000 C 
BRANCH  19  20
ATOM     20  C   UNL     1       1.610   3.947  20.374  0.00  0.00    +0.000 C 
BRANCH  20  21
ATOM     21  C   UNL     1       1.402   2.474  20.169  0.00  0.00    +0.000 C 
BRANCH  21  22
ATOM     22  C   UNL     1       2.444   1.975  19.175  0.00  0.00    +0.000 C 
BRANCH  22  23
ATOM     23  N   UNL     1       1.834   1.979  17.862  0.00  0.00    +0.000 NA
ATOM     24  H   UNL     1       1.010   2.577  17.889  0.00  0.00    +0.000 HD
ATOM     25  H   UNL     1       1.518   1.040  17.638  0.00  0.00    +0.000 HD
ENDBRANCH  22  23
ENDBRANCH  21  22
ENDBRANCH  20  21
ENDBRANCH  19  20
ENDBRANCH   1  19
BRANCH   1  26
ATOM     26  C   UNL     1       3.010   6.143  18.329  0.00  0.00    +0.000 C 
BRANCH  26  27
ATOM     27  N   UNL     1       4.252   5.996  17.608  0.00  0.00    +0.000 N 
ATOM     28  C   UNL     1       5.353   6.932  17.654  0.00  0.00    +0.000 C 
ATOM     29  C   UNL     1       6.367   6.217  16.749  0.00  0.00    +0.000 C 
ATOM     30  O   UNL     1       7.487   6.639  16.456  0.00  0.00    +0.000 OA
ATOM     31  N   UNL     1       5.808   5.007  16.377  0.00  0.00    +0.000 N 
ATOM     32  C   UNL     1       4.513   4.870  16.845  0.00  0.00    +0.000 C 
ATOM     33  O   UNL     1       3.744   3.958  16.670  0.00  0.00    +0.000 OA
BRANCH  31  34
ATOM     34  C   UNL     1       6.491   4.022  15.565  0.00  0.00    +0.000 C 
BRANCH  34  35
ATOM     35  C   UNL     1       6.555   4.415  14.096  0.00  0.00    +0.000 C 
BRANCH  35  36
ATOM     36  C   UNL     1       5.382   3.865  13.302  0.00  0.00    +0.000 C 
ATOM     37  C   UNL     1       5.898   3.080  12.112  0.00  0.00    +0.000 C 
ENDBRANCH  35  36
ENDBRANCH  34  35
ENDBRANCH  31  34
ENDBRANCH  26  27
ENDBRANCH   1  26
TORSDOF 23
ENDMDL
MODEL 4
REMARK VINA RESULT:      -5.9      1.207      2.128
REMARK  Name = 
REMARK  25 active torsions:
REMARK  status: ('A' for Active; 'I' for Inactive)
REMARK    1  A    between atoms: C_1  and  C_2
REMARK    2  A    between atoms: C_2  and  C_3
REMARK    3  A    between atoms: C_3  and  C_4
REMARK    4  A    between atoms: C_4  and  C_5
REMARK    5  A    between atoms: C_5  and  C_6
REMARK    6  A    between atoms: C_6  and  C_7
REMARK    7  A    between atoms: C_7  and  C_8
REMARK    8  A    between atoms: C_8  and  C_9
REMARK    9  A    between atoms: C_9  and  C_10
REMARK   10  A    between atoms: C_10  and  C_11
REMARK   11  A    between atoms: C_11  and  C_12
REMARK   12  A    between atoms: C_12  and  C_13
REMARK   13  A    between atoms: C_13  and  C_14
REMARK   14  A    between atoms: N_16  and  C_17
REMARK   15  A    between atoms: C_17  and  C_18
REMARK   16  A    between atoms: C_17  and  C_23
REMARK   17  A    between atoms: C_18  and  C_19
REMARK   18  A    between atoms: C_19  and  C_20
REMARK   19  A    between atoms: C_20  and  C_21
REMARK   20  A    between atoms: C_21  and  N_22
REMARK   21  A    between atoms: C_23  and  N_24
REMARK   22  A    between atoms: N_28  and  C_29
REMARK   23  A    between atoms: C_29  and  C_30
REMARK   24  A    between atoms: C_30  and  C_31
REMARK   25  A    between atoms: C_31  and  C_32
REMARK                            x       y       z     vdW  Elec       q    Type
REMARK                         _______ _______ _______ _____ _____    ______ ____
ROOT
ATOM      1  C   UNL     1       3.203   5.896  19.897  0.00  0.00    +0.000 C 
ENDROOT
BRANCH   1   4
ATOM      2  C   UNL     1       2.102   7.954  18.983  0.00  0.00    +0.000 C 
ATOM      3  O   UNL     1       1.781   8.369  20.114  0.00  0.00    +0.000 OA
ATOM      4  N   UNL     1       2.793   6.777  18.788  0.00  0.00    +0.000 N 
ATOM      5  H   UNL     1       3.090   6.510  17.856  0.00  0.00    +0.000 HD
BRANCH   2   6
ATOM      6  C   UNL     1       1.707   8.751  17.771  0.00  0.00    +0.000 C 
BRANCH   6   7
ATOM      7  C   UNL     1       0.929   9.975  18.215  0.00  0.00    +0.000 C 
BRANCH   7   8
ATOM      8  C   UNL     1      -0.546   9.822  17.894  0.00  0.00    +0.000 C 
BRANCH   8   9
ATOM      9  C   UNL     1      -1.296  11.097  18.244  0.00  0.00    +0.000 C 
BRANCH   9  10
ATOM     10  C   UNL     1      -0.336  12.107  18.846  0.00  0.00    +0.000 C 
BRANCH  10  11
ATOM     11  C   UNL     1      -0.870  12.602  20.176  0.00  0.00    +0.000 C 
BRANCH  11  12
ATOM     12  C   UNL     1       0.012  12.102  21.304  0.00  0.00    +0.000 C 
BRANCH  12  13
ATOM     13  C   UNL     1      -0.830  11.374  22.333  0.00  0.00    +0.000 C 
BRANCH  13  14
ATOM     14  C   UNL     1      -2.068  12.188  22.657  0.00  0.00    +0.000 C 
BRANCH  14  15
ATOM     15  C   UNL     1      -1.704  13.337  23.579  0.00  0.00    +0.000 C 
BRANCH  15  16
ATOM     16  C   UNL     1      -2.217  14.645  23.006  0.00  0.00    +0.000 C 
BRANCH  16  18
ATOM     17  C   UNL     1      -4.155  15.768  21.927  0.00  0.00    +0.000 C 
ATOM     18  C   UNL     1      -3.686  14.515  22.635  0.00  0.00    +0.000 C 
ENDBRANCH  16  18
ENDBRANCH  15  16
ENDBRANCH  14  15
ENDBRANCH  13  14
ENDBRANCH  12  13
ENDBRANCH  11  12
ENDBRANCH  10  11
ENDBRANCH   9  10
ENDBRANCH   8   9
ENDBRANCH   7   8
ENDBRANCH   6   7
ENDBRANCH   2   6
ENDBRANCH   1   4
BRANCH   1  19
ATOM     19  C   UNL     1       1.990   5.145  20.486  0.00  0.00    +0.000 C 
BRANCH  19  20
ATOM     20  C   UNL     1       2.077   3.650  20.215  0.00  0.00    +0.000 C 
BRANCH  20  21
ATOM     21  C   UNL     1       0.750   2.998  19.949  0.00  0.00    +0.000 C 
BRANCH  21  22
ATOM     22  C   UNL     1       0.856   2.200  18.655  0.00  0.00    +0.000 C 
BRANCH  22  23
ATOM     23  N   UNL     1       2.261   1.962  18.402  0.00  0.00    +0.000 NA
ATOM     24  H   UNL     1       2.738   2.861  18.347  0.00  0.00    +0.000 HD
ATOM     25  H   UNL     1       2.366   1.509  17.498  0.00  0.00    +0.000 HD
ENDBRANCH  22  23
ENDBRANCH  21  22
ENDBRANCH  20  21
ENDBRANCH  19  20
ENDBRANCH   1  19
BRANCH   1  26
ATOM     26  C   UNL     1       4.280   4.868  19.483  0.00  0.00    +0.000 C 
BRANCH  26  27
ATOM     27  N   UNL     1       5.004   5.194  18.276  0.00  0.00    +0.000 N 
ATOM     28  C   UNL     1       6.288   5.856  18.234  0.00  0.00    +0.000 C 
ATOM     29  C   UNL     1       6.546   5.871  16.720  0.00  0.00    +0.000 C 
ATOM     30  O   UNL     1       7.533   6.358  16.167  0.00  0.00    +0.000 OA
ATOM     31  N   UNL     1       5.499   5.196  16.115  0.00  0.00    +0.000 N 
ATOM     32  C   UNL     1       4.532   4.818  17.029  0.00  0.00    +0.000 C 
ATOM     33  O   UNL     1       3.488   4.250  16.827  0.00  0.00    +0.000 OA
BRANCH  31  34
ATOM     34  C   UNL     1       5.417   4.952  14.691  0.00  0.00    +0.000 C 
BRANCH  34  35
ATOM     35  C   UNL     1       6.202   3.721  14.260  0.00  0.00    +0.000 C 
BRANCH  35  36
ATOM     36  C   UNL     1       6.410   3.669  12.756  0.00  0.00    +0.000 C 
ATOM     37  C   UNL     1       5.099   3.334  12.074  0.00  0.00    +0.000 C 
ENDBRANCH  35  36
ENDBRANCH  34  35
ENDBRANCH  31  34
ENDBRANCH  26  27
ENDBRANCH   1  26
TORSDOF 23
ENDMDL
MODEL 5
REMARK VINA RESULT:      -5.8      2.024      3.351
REMARK  Name = 
REMARK  25 active torsions:
REMARK  status: ('A' for Active; 'I' for Inactive)
REMARK    1  A    between atoms: C_1  and  C_2
REMARK    2  A    between atoms: C_2  and  C_3
REMARK    3  A    between atoms: C_3  and  C_4
REMARK    4  A    between atoms: C_4  and  C_5
REMARK    5  A    between atoms: C_5  and  C_6
REMARK    6  A    between atoms: C_6  and  C_7
REMARK    7  A    between atoms: C_7  and  C_8
REMARK    8  A    between atoms: C_8  and  C_9
REMARK    9  A    between atoms: C_9  and  C_10
REMARK   10  A    between atoms: C_10  and  C_11
REMARK   11  A    between atoms: C_11  and  C_12
REMARK   12  A    between atoms: C_12  and  C_13
REMARK   13  A    between atoms: C_13  and  C_14
REMARK   14  A    between atoms: N_16  and  C_17
REMARK   15  A    between atoms: C_17  and  C_18
REMARK   16  A    between atoms: C_17  and  C_23
REMARK   17  A    between atoms: C_18  and  C_19
REMARK   18  A    between atoms: C_19  and  C_20
REMARK   19  A    between atoms: C_20  and  C_21
REMARK   20  A    between atoms: C_21  and  N_22
REMARK   21  A    between atoms: C_23  and  N_24
REMARK   22  A    between atoms: N_28  and  C_29
REMARK   23  A    between atoms: C_29  and  C_30
REMARK   24  A    between atoms: C_30  and  C_31
REMARK   25  A    between atoms: C_31  and  C_32
REMARK                            x       y       z     vdW  Elec       q    Type
REMARK                         _______ _______ _______ _____ _____    ______ ____
ROOT
ATOM      1  C   UNL     1       3.233   6.520  18.798  0.00  0.00    +0.000 C 
ENDROOT
BRANCH   1   4
ATOM      2  C   UNL     1       1.578   7.104  20.587  0.00  0.00    +0.000 C 
ATOM      3  O   UNL     1       1.707   6.005  21.162  0.00  0.00    +0.000 OA
ATOM      4  N   UNL     1       2.279   7.437  19.448  0.00  0.00    +0.000 N 
ATOM      5  H   UNL     1       2.191   8.365  19.050  0.00  0.00    +0.000 HD
BRANCH   2   6
ATOM      6  C   UNL     1       0.605   8.109  21.138  0.00  0.00    +0.000 C 
BRANCH   6   7
ATOM      7  C   UNL     1       0.928   9.477  20.565  0.00  0.00    +0.000 C 
BRANCH   7   8
ATOM      8  C   UNL     1       0.149  10.560  21.286  0.00  0.00    +0.000 C 
BRANCH   8   9
ATOM      9  C   UNL     1       0.790  11.917  21.044  0.00  0.00    +0.000 C 
BRANCH   9  10
ATOM     10  C   UNL     1      -0.195  13.019  21.392  0.00  0.00    +0.000 C 
BRANCH  10  11
ATOM     11  C   UNL     1      -1.616  12.514  21.231  0.00  0.00    +0.000 C 
BRANCH  11  12
ATOM     12  C   UNL     1      -2.271  13.190  20.041  0.00  0.00    +0.000 C 
BRANCH  12  13
ATOM     13  C   UNL     1      -2.774  12.144  19.066  0.00  0.00    +0.000 C 
BRANCH  13  14
ATOM     14  C   UNL     1      -1.638  11.678  18.176  0.00  0.00    +0.000 C 
BRANCH  14  15
ATOM     15  C   UNL     1      -2.047  10.420  17.433  0.00  0.00    +0.000 C 
BRANCH  15  16
ATOM     16  C   UNL     1      -3.560  10.357  17.313  0.00  0.00    +0.000 C 
BRANCH  16  18
ATOM     17  C   UNL     1      -2.961  10.357  14.901  0.00  0.00    +0.000 C 
ATOM     18  C   UNL     1      -3.994  10.786  15.922  0.00  0.00    +0.000 C 
ENDBRANCH  16  18
ENDBRANCH  15  16
ENDBRANCH  14  15
ENDBRANCH  13  14
ENDBRANCH  12  13
ENDBRANCH  11  12
ENDBRANCH  10  11
ENDBRANCH   9  10
ENDBRANCH   8   9
ENDBRANCH   7   8
ENDBRANCH   6   7
ENDBRANCH   2   6
ENDBRANCH   1   4
BRANCH   1  19
ATOM     19  C   UNL     1       2.494   5.407  18.024  0.00  0.00    +0.000 C 
BRANCH  19  20
ATOM     20  C   UNL     1       2.874   4.026  18.538  0.00  0.00    +0.000 C 
BRANCH  20  21
ATOM     21  C   UNL     1       2.754   2.936  17.510  0.00  0.00    +0.000 C 
BRANCH  21  22
ATOM     22  C   UNL     1       3.544   1.727  17.997  0.00  0.00    +0.000 C 
BRANCH  22  23
ATOM     23  N   UNL     1       4.380   2.164  19.095  0.00  0.00    +0.000 NA
ATOM     24  H   UNL     1       3.802   2.243  19.931  0.00  0.00    +0.000 HD
ATOM     25  H   UNL     1       4.743   3.090  18.891  0.00  0.00    +0.000 HD
ENDBRANCH  22  23
ENDBRANCH  21  22
ENDBRANCH  20  21
ENDBRANCH  19  20
ENDBRANCH   1  19
BRANCH   1  26
ATOM     26  C   UNL     1       4.204   7.242  17.837  0.00  0.00    +0.000 C 
BRANCH  26  27
ATOM     27  N   UNL     1       5.281   6.427  17.329  0.00  0.00    +0.000 N 
ATOM     28  C   UNL     1       6.165   5.621  18.141  0.00  0.00    +0.000 C 
ATOM     29  C   UNL     1       7.034   4.974  17.053  0.00  0.00    +0.000 C 
ATOM     30  O   UNL     1       7.968   4.196  17.251  0.00  0.00    +0.000 OA
ATOM     31  N   UNL     1       6.539   5.387  15.828  0.00  0.00    +0.000 N 
ATOM     32  C   UNL     1       5.510   6.301  15.968  0.00  0.00    +0.000 C 
ATOM     33  O   UNL     1       4.891   6.874  15.106  0.00  0.00    +0.000 OA
BRANCH  31  34
ATOM     34  C   UNL     1       7.064   4.938  14.556  0.00  0.00    +0.000 C 
BRANCH  34  35
ATOM     35  C   UNL     1       5.975   4.461  13.606  0.00  0.00    +0.000 C 
BRANCH  35  36
ATOM     36  C   UNL     1       6.485   3.424  12.620  0.00  0.00    +0.000 C 
ATOM     37  C   UNL     1       5.324   2.877  11.814  0.00  0.00    +0.000 C 
ENDBRANCH  35  36
ENDBRANCH  34  35
ENDBRANCH  31  34
ENDBRANCH  26  27
ENDBRANCH   1  26
TORSDOF 23
ENDMDL
MODEL 6
REMARK VINA RESULT:      -5.8      5.176      8.381
REMARK  Name = 
REMARK  25 active torsions:
REMARK  status: ('A' for Active; 'I' for Inactive)
REMARK    1  A    between atoms: C_1  and  C_2
REMARK    2  A    between atoms: C_2  and  C_3
REMARK    3  A    between atoms: C_3  and  C_4
REMARK    4  A    between atoms: C_4  and  C_5
REMARK    5  A    between atoms: C_5  and  C_6
REMARK    6  A    between atoms: C_6  and  C_7
REMARK    7  A    between atoms: C_7  and  C_8
REMARK    8  A    between atoms: C_8  and  C_9
REMARK    9  A    between atoms: C_9  and  C_10
REMARK   10  A    between atoms: C_10  and  C_11
REMARK   11  A    between atoms: C_11  and  C_12
REMARK   12  A    between atoms: C_12  and  C_13
REMARK   13  A    between atoms: C_13  and  C_14
REMARK   14  A    between atoms: N_16  and  C_17
REMARK   15  A    between atoms: C_17  and  C_18
REMARK   16  A    between atoms: C_17  and  C_23
REMARK   17  A    between atoms: C_18  and  C_19
REMARK   18  A    between atoms: C_19  and  C_20
REMARK   19  A    between atoms: C_20  and  C_21
REMARK   20  A    between atoms: C_21  and  N_22
REMARK   21  A    between atoms: C_23  and  N_24
REMARK   22  A    between atoms: N_28  and  C_29
REMARK   23  A    between atoms: C_29  and  C_30
REMARK   24  A    between atoms: C_30  and  C_31
REMARK   25  A    between atoms: C_31  and  C_32
REMARK                            x       y       z     vdW  Elec       q    Type
REMARK                         _______ _______ _______ _____ _____    ______ ____
ROOT
ATOM      1  C   UNL     1       5.243   6.662  16.687  0.00  0.00    +0.000 C 
ENDROOT
BRANCH   1   4
ATOM      2  C   UNL     1       7.361   7.668  17.572  0.00  0.00    +0.000 C 
ATOM      3  O   UNL     1       7.588   6.701  18.325  0.00  0.00    +0.000 OA
ATOM      4  N   UNL     1       6.260   7.728  16.745  0.00  0.00    +0.000 N 
ATOM      5  H   UNL     1       6.149   8.503  16.102  0.00  0.00    +0.000 HD
BRANCH   2   6
ATOM      6  C   UNL     1       8.311   8.833  17.570  0.00  0.00    +0.000 C 
BRANCH   6   7
ATOM      7  C   UNL     1       8.750   9.117  18.994  0.00  0.00    +0.000 C 
BRANCH   7   8
ATOM      8  C   UNL     1       9.591  10.378  19.058  0.00  0.00    +0.000 C 
BRANCH   8   9
ATOM      9  C   UNL     1       9.381  11.084  20.388  0.00  0.00    +0.000 C 
BRANCH   9  10
ATOM     10  C   UNL     1      10.576  11.969  20.693  0.00  0.00    +0.000 C 
BRANCH  10  11
ATOM     11  C   UNL     1      10.109  13.378  21.008  0.00  0.00    +0.000 C 
BRANCH  11  12
ATOM     12  C   UNL     1      10.886  14.376  20.170  0.00  0.00    +0.000 C 
BRANCH  12  13
ATOM     13  C   UNL     1      11.264  13.751  18.842  0.00  0.00    +0.000 C 
BRANCH  13  14
ATOM     14  C   UNL     1      10.173  14.009  17.820  0.00  0.00    +0.000 C 
BRANCH  14  15
ATOM     15  C   UNL     1       9.650  15.425  17.970  0.00  0.00    +0.000 C 
BRANCH  15  16
ATOM     16  C   UNL     1       8.133  15.428  17.890  0.00  0.00    +0.000 C 
BRANCH  16  18
ATOM     17  C   UNL     1       8.674  17.347  19.375  0.00  0.00    +0.000 C 
ATOM     18  C   UNL     1       7.573  16.645  18.608  0.00  0.00    +0.000 C 
ENDBRANCH  16  18
ENDBRANCH  15  16
ENDBRANCH  14  15
ENDBRANCH  13  14
ENDBRANCH  12  13
ENDBRANCH  11  12
ENDBRANCH  10  11
ENDBRANCH   9  10
ENDBRANCH   8   9
ENDBRANCH   7   8
ENDBRANCH   6   7
ENDBRANCH   2   6
ENDBRANCH   1   4
BRANCH   1  19
ATOM     19  C   UNL     1       5.879   5.309  16.302  0.00  0.00    +0.000 C 
BRANCH  19  20
ATOM     20  C   UNL     1       5.515   4.908  14.880  0.00  0.00    +0.000 C 
BRANCH  20  21
ATOM     21  C   UNL     1       6.383   3.824  14.308  0.00  0.00    +0.000 C 
BRANCH  21  22
ATOM     22  C   UNL     1       5.977   3.597  12.857  0.00  0.00    +0.000 C 
BRANCH  22  23
ATOM     23  N   UNL     1       7.065   4.056  12.021  0.00  0.00    +0.000 NA
ATOM     24  H   UNL     1       7.851   4.306  12.619  0.00  0.00    +0.000 HD
ATOM     25  H   UNL     1       6.777   4.899  11.532  0.00  0.00    +0.000 HD
ENDBRANCH  22  23
ENDBRANCH  21  22
ENDBRANCH  20  21
ENDBRANCH  19  20
ENDBRANCH   1  19
BRANCH   1  26
ATOM     26  C   UNL     1       4.469   6.495  18.014  0.00  0.00    +0.000 C 
BRANCH  26  27
ATOM     27  N   UNL     1       4.299   5.131  18.456  0.00  0.00    +0.000 N 
ATOM     28  C   UNL     1       5.259   4.390  19.243  0.00  0.00    +0.000 C 
ATOM     29  C   UNL     1       4.506   3.064  19.428  0.00  0.00    +0.000 C 
ATOM     30  O   UNL     1       4.931   2.078  20.031  0.00  0.00    +0.000 OA
ATOM     31  N   UNL     1       3.262   3.209  18.839  0.00  0.00    +0.000 N 
ATOM     32  C   UNL     1       3.130   4.432  18.206  0.00  0.00    +0.000 C 
ATOM     33  O   UNL     1       2.192   4.855  17.575  0.00  0.00    +0.000 OA
BRANCH  31  34
ATOM     34  C   UNL     1       2.240   2.185  18.858  0.00  0.00    +0.000 C 
BRANCH  34  35
ATOM     35  C   UNL     1       0.913   2.690  19.408  0.00  0.00    +0.000 C 
BRANCH  35  36
ATOM     36  C   UNL     1       1.084   3.460  20.707  0.00  0.00    +0.000 C 
ATOM     37  C   UNL     1       1.548   2.516  21.799  0.00  0.00    +0.000 C 
ENDBRANCH  35  36
ENDBRANCH  34  35
ENDBRANCH  31  34
ENDBRANCH  26  27
ENDBRANCH   1  26
TORSDOF 23
ENDMDL
MODEL 7
REMARK VINA RESULT:      -5.7      4.740      7.561
REMARK  Name = 
REMARK  25 active torsions:
REMARK  status: ('A' for Active; 'I' for Inactive)
REMARK    1  A    between atoms: C_1  and  C_2
REMARK    2  A    between atoms: C_2  and  C_3
REMARK    3  A    between atoms: C_3  and  C_4
REMARK    4  A    between atoms: C_4  and  C_5
REMARK    5  A    between atoms: C_5  and  C_6
REMARK    6  A    between atoms: C_6  and  C_7
REMARK    7  A    between atoms: C_7  and  C_8
REMARK    8  A    between atoms: C_8  and  C_9
REMARK    9  A    between atoms: C_9  and  C_10
REMARK   10  A    between atoms: C_10  and  C_11
REMARK   11  A    between atoms: C_11  and  C_12
REMARK   12  A    between atoms: C_12  and  C_13
REMARK   13  A    between atoms: C_13  and  C_14
REMARK   14  A    between atoms: N_16  and  C_17
REMARK   15  A    between atoms: C_17  and  C_18
REMARK   16  A    between atoms: C_17  and  C_23
REMARK   17  A    between atoms: C_18  and  C_19
REMARK   18  A    between atoms: C_19  and  C_20
REMARK   19  A    between atoms: C_20  and  C_21
REMARK   20  A    between atoms: C_21  and  N_22
REMARK   21  A    between atoms: C_23  and  N_24
REMARK   22  A    between atoms: N_28  and  C_29
REMARK   23  A    between atoms: C_29  and  C_30
REMARK   24  A    between atoms: C_30  and  C_31
REMARK   25  A    between atoms: C_31  and  C_32
REMARK                            x       y       z     vdW  Elec       q    Type
REMARK                         _______ _______ _______ _____ _____    ______ ____
ROOT
ATOM      1  C   UNL     1       6.352   5.975  16.665  0.00  0.00    +0.000 C 
ENDROOT
BRANCH   1   4
ATOM      2  C   UNL     1       7.566   7.950  17.619  0.00  0.00    +0.000 C 
ATOM      3  O   UNL     1       6.917   8.767  16.936  0.00  0.00    +0.000 OA
ATOM      4  N   UNL     1       7.354   6.589  17.555  0.00  0.00    +0.000 N 
ATOM      5  H   UNL     1       7.860   5.967  18.175  0.00  0.00    +0.000 HD
BRANCH   2   6
ATOM      6  C   UNL     1       8.642   8.456  18.539  0.00  0.00    +0.000 C 
BRANCH   6   7
ATOM      7  C   UNL     1       8.650   9.973  18.506  0.00  0.00    +0.000 C 
BRANCH   7   8
ATOM      8  C   UNL     1       9.959  10.517  19.045  0.00  0.00    +0.000 C 
BRANCH   8   9
ATOM      9  C   UNL     1       9.762  11.925  19.582  0.00  0.00    +0.000 C 
BRANCH   9  10
ATOM     10  C   UNL     1      10.446  12.060  20.930  0.00  0.00    +0.000 C 
BRANCH  10  11
ATOM     11  C   UNL     1       9.514  12.732  21.920  0.00  0.00    +0.000 C 
BRANCH  11  12
ATOM     12  C   UNL     1       8.333  11.825  22.211  0.00  0.00    +0.000 C 
BRANCH  12  13
ATOM     13  C   UNL     1       7.280  12.586  22.993  0.00  0.00    +0.000 C 
BRANCH  13  14
ATOM     14  C   UNL     1       7.882  13.849  23.577  0.00  0.00    +0.000 C 
BRANCH  14  15
ATOM     15  C   UNL     1       6.971  15.030  23.301  0.00  0.00    +0.000 C 
BRANCH  15  16
ATOM     16  C   UNL     1       6.188  14.794  22.022  0.00  0.00    +0.000 C 
BRANCH  16  18
ATOM     17  C   UNL     1       7.528  14.904  19.931  0.00  0.00    +0.000 C 
ATOM     18  C   UNL     1       6.702  15.703  20.917  0.00  0.00    +0.000 C 
ENDBRANCH  16  18
ENDBRANCH  15  16
ENDBRANCH  14  15
ENDBRANCH  13  14
ENDBRANCH  12  13
ENDBRANCH  11  12
ENDBRANCH  10  11
ENDBRANCH   9  10
ENDBRANCH   8   9
ENDBRANCH   7   8
ENDBRANCH   6   7
ENDBRANCH   2   6
ENDBRANCH   1   4
BRANCH   1  19
ATOM     19  C   UNL     1       6.791   4.562  16.226  0.00  0.00    +0.000 C 
BRANCH  19  20
ATOM     20  C   UNL     1       7.035   4.497  14.725  0.00  0.00    +0.000 C 
BRANCH  20  21
ATOM     21  C   UNL     1       5.798   4.230  13.915  0.00  0.00    +0.000 C 
BRANCH  21  22
ATOM     22  C   UNL     1       6.214   3.572  12.605  0.00  0.00    +0.000 C 
BRANCH  22  23
ATOM     23  N   UNL     1       5.007   3.180  11.909  0.00  0.00    +0.000 NA
ATOM     24  H   UNL     1       4.543   4.020  11.566  0.00  0.00    +0.000 HD
ATOM     25  H   UNL     1       4.373   2.733  12.566  0.00  0.00    +0.000 HD
ENDBRANCH  22  23
ENDBRANCH  21  22
ENDBRANCH  20  21
ENDBRANCH  19  20
ENDBRANCH   1  19
BRANCH   1  26
ATOM     26  C   UNL     1       4.949   5.890  17.306  0.00  0.00    +0.000 C 
BRANCH  26  27
ATOM     27  N   UNL     1       4.682   4.672  18.034  0.00  0.00    +0.000 N 
ATOM     28  C   UNL     1       5.379   4.250  19.228  0.00  0.00    +0.000 C 
ATOM     29  C   UNL     1       4.631   2.947  19.544  0.00  0.00    +0.000 C 
ATOM     30  O   UNL     1       4.876   2.191  20.485  0.00  0.00    +0.000 OA
ATOM     31  N   UNL     1       3.614   2.817  18.613  0.00  0.00    +0.000 N 
ATOM     32  C   UNL     1       3.653   3.822  17.663  0.00  0.00    +0.000 C 
ATOM     33  O   UNL     1       2.937   3.978  16.705  0.00  0.00    +0.000 OA
BRANCH  31  34
ATOM     34  C   UNL     1       2.652   1.736  18.620  0.00  0.00    +0.000 C 
BRANCH  34  35
ATOM     35  C   UNL     1       1.258   2.194  19.025  0.00  0.00    +0.000 C 
BRANCH  35  36
ATOM     36  C   UNL     1       1.216   2.718  20.450  0.00  0.00    +0.000 C 
ATOM     37  C   UNL     1       1.012   4.221  20.432  0.00  0.00    +0.000 C 
ENDBRANCH  35  36
ENDBRANCH  34  35
ENDBRANCH  31  34
ENDBRANCH  26  27
ENDBRANCH   1  26
TORSDOF 23
ENDMDL
MODEL 8
REMARK VINA RESULT:      -5.7      2.132      3.450
REMARK  Name = 
REMARK  25 active torsions:
REMARK  status: ('A' for Active; 'I' for Inactive)
REMARK    1  A    between atoms: C_1  and  C_2
REMARK    2  A    between atoms: C_2  and  C_3
REMARK    3  A    between atoms: C_3  and  C_4
REMARK    4  A    between atoms: C_4  and  C_5
REMARK    5  A    between atoms: C_5  and  C_6
REMARK    6  A    between atoms: C_6  and  C_7
REMARK    7  A    between atoms: C_7  and  C_8
REMARK    8  A    between atoms: C_8  and  C_9
REMARK    9  A    between atoms: C_9  and  C_10
REMARK   10  A    between atoms: C_10  and  C_11
REMARK   11  A    between atoms: C_11  and  C_12
REMARK   12  A    between atoms: C_12  and  C_13
REMARK   13  A    between atoms: C_13  and  C_14
REMARK   14  A    between atoms: N_16  and  C_17
REMARK   15  A    between atoms: C_17  and  C_18
REMARK   16  A    between atoms: C_17  and  C_23
REMARK   17  A    between atoms: C_18  and  C_19
REMARK   18  A    between atoms: C_19  and  C_20
REMARK   19  A    between atoms: C_20  and  C_21
REMARK   20  A    between atoms: C_21  and  N_22
REMARK   21  A    between atoms: C_23  and  N_24
REMARK   22  A    between atoms: N_28  and  C_29
REMARK   23  A    between atoms: C_29  and  C_30
REMARK   24  A    between atoms: C_30  and  C_31
REMARK   25  A    between atoms: C_31  and  C_32
REMARK                            x       y       z     vdW  Elec       q    Type
REMARK                         _______ _______ _______ _____ _____    ______ ____
ROOT
ATOM      1  C   UNL     1       3.044   4.630  17.913  0.00  0.00    +0.000 C 
ENDROOT
BRANCH   1   4
ATOM      2  C   UNL     1       2.479   6.528  19.449  0.00  0.00    +0.000 C 
ATOM      3  O   UNL     1       2.795   5.888  20.471  0.00  0.00    +0.000 OA
ATOM      4  N   UNL     1       2.574   6.002  18.178  0.00  0.00    +0.000 N 
ATOM      5  H   UNL     1       2.368   6.580  17.372  0.00  0.00    +0.000 HD
BRANCH   2   6
ATOM      6  C   UNL     1       1.952   7.928  19.597  0.00  0.00    +0.000 C 
BRANCH   6   7
ATOM      7  C   UNL     1       1.405   8.396  18.260  0.00  0.00    +0.000 C 
BRANCH   7   8
ATOM      8  C   UNL     1       2.111   9.657  17.801  0.00  0.00    +0.000 C 
BRANCH   8   9
ATOM      9  C   UNL     1       1.557  10.867  18.534  0.00  0.00    +0.000 C 
BRANCH   9  10
ATOM     10  C   UNL     1       0.043  10.777  18.601  0.00  0.00    +0.000 C 
BRANCH  10  11
ATOM     11  C   UNL     1      -0.463  11.468  19.852  0.00  0.00    +0.000 C 
BRANCH  11  12
ATOM     12  C   UNL     1      -1.127  12.781  19.482  0.00  0.00    +0.000 C 
BRANCH  12  13
ATOM     13  C   UNL     1      -1.252  13.660  20.711  0.00  0.00    +0.000 C 
BRANCH  13  14
ATOM     14  C   UNL     1      -2.714  13.944  20.998  0.00  0.00    +0.000 C 
BRANCH  14  15
ATOM     15  C   UNL     1      -3.417  12.664  21.408  0.00  0.00    +0.000 C 
BRANCH  15  16
ATOM     16  C   UNL     1      -3.001  12.272  22.815  0.00  0.00    +0.000 C 
BRANCH  16  18
ATOM     17  C   UNL     1      -4.508  12.352  24.791  0.00  0.00    +0.000 C 
ATOM     18  C   UNL     1      -3.674  13.178  23.833  0.00  0.00    +0.000 C 
ENDBRANCH  16  18
ENDBRANCH  15  16
ENDBRANCH  14  15
ENDBRANCH  13  14
ENDBRANCH  12  13
ENDBRANCH  11  12
ENDBRANCH  10  11
ENDBRANCH   9  10
ENDBRANCH   8   9
ENDBRANCH   7   8
ENDBRANCH   6   7
ENDBRANCH   2   6
ENDBRANCH   1   4
BRANCH   1  19
ATOM     19  C   UNL     1       1.920   3.766  17.303  0.00  0.00    +0.000 C 
BRANCH  19  20
ATOM     20  C   UNL     1       1.165   2.996  18.377  0.00  0.00    +0.000 C 
BRANCH  20  21
ATOM     21  C   UNL     1       2.044   2.156  19.260  0.00  0.00    +0.000 C 
BRANCH  21  22
ATOM     22  C   UNL     1       1.781   2.544  20.710  0.00  0.00    +0.000 C 
BRANCH  22  23
ATOM     23  N   UNL     1       0.735   3.544  20.712  0.00  0.00    +0.000 NA
ATOM     24  H   UNL     1       0.045   3.294  20.005  0.00  0.00    +0.000 HD
ATOM     25  H   UNL     1       1.129   4.442  20.444  0.00  0.00    +0.000 HD
ENDBRANCH  22  23
ENDBRANCH  21  22
ENDBRANCH  20  21
ENDBRANCH  19  20
ENDBRANCH   1  19
BRANCH   1  26
ATOM     26  C   UNL     1       4.276   4.585  16.981  0.00  0.00    +0.000 C 
BRANCH  26  27
ATOM     27  N   UNL     1       5.459   5.230  17.500  0.00  0.00    +0.000 N 
ATOM     28  C   UNL     1       6.221   4.771  18.640  0.00  0.00    +0.000 C 
ATOM     29  C   UNL     1       7.350   5.812  18.660  0.00  0.00    +0.000 C 
ATOM     30  O   UNL     1       8.267   5.857  19.481  0.00  0.00    +0.000 OA
ATOM     31  N   UNL     1       7.168   6.642  17.567  0.00  0.00    +0.000 N 
ATOM     32  C   UNL     1       6.007   6.339  16.877  0.00  0.00    +0.000 C 
ATOM     33  O   UNL     1       5.545   6.888  15.908  0.00  0.00    +0.000 OA
BRANCH  31  34
ATOM     34  C   UNL     1       8.070   7.717  17.215  0.00  0.00    +0.000 C 
BRANCH  34  35
ATOM     35  C   UNL     1       7.714   9.030  17.898  0.00  0.00    +0.000 C 
BRANCH  35  36
ATOM     36  C   UNL     1       8.851   9.560  18.755  0.00  0.00    +0.000 C 
ATOM     37  C   UNL     1       9.403  10.829  18.136  0.00  0.00    +0.000 C 
ENDBRANCH  35  36
ENDBRANCH  34  35
ENDBRANCH  31  34
ENDBRANCH  26  27
ENDBRANCH   1  26
TORSDOF 23
ENDMDL
MODEL 9
REMARK VINA RESULT:      -5.7      2.063      5.010
REMARK  Name = 
REMARK  25 active torsions:
REMARK  status: ('A' for Active; 'I' for Inactive)
REMARK    1  A    between atoms: C_1  and  C_2
REMARK    2  A    between atoms: C_2  and  C_3
REMARK    3  A    between atoms: C_3  and  C_4
REMARK    4  A    between atoms: C_4  and  C_5
REMARK    5  A    between atoms: C_5  and  C_6
REMARK    6  A    between atoms: C_6  and  C_7
REMARK    7  A    between atoms: C_7  and  C_8
REMARK    8  A    between atoms: C_8  and  C_9
REMARK    9  A    between atoms: C_9  and  C_10
REMARK   10  A    between atoms: C_10  and  C_11
REMARK   11  A    between atoms: C_11  and  C_12
REMARK   12  A    between atoms: C_12  and  C_13
REMARK   13  A    between atoms: C_13  and  C_14
REMARK   14  A    between atoms: N_16  and  C_17
REMARK   15  A    between atoms: C_17  and  C_18
REMARK   16  A    between atoms: C_17  and  C_23
REMARK   17  A    between atoms: C_18  and  C_19
REMARK   18  A    between atoms: C_19  and  C_20
REMARK   19  A    between atoms: C_20  and  C_21
REMARK   20  A    between atoms: C_21  and  N_22
REMARK   21  A    between atoms: C_23  and  N_24
REMARK   22  A    between atoms: N_28  and  C_29
REMARK   23  A    between atoms: C_29  and  C_30
REMARK   24  A    between atoms: C_30  and  C_31
REMARK   25  A    between atoms: C_31  and  C_32
REMARK                            x       y       z     vdW  Elec       q    Type
REMARK                         _______ _______ _______ _____ _____    ______ ____
ROOT
ATOM      1  C   UNL     1       4.921   6.439  17.178  0.00  0.00    +0.000 C 
ENDROOT
BRANCH   1   4
ATOM      2  C   UNL     1       2.966   7.840  17.882  0.00  0.00    +0.000 C 
ATOM      3  O   UNL     1       2.968   8.499  16.824  0.00  0.00    +0.000 OA
ATOM      4  N   UNL     1       3.866   6.826  18.132  0.00  0.00    +0.000 N 
ATOM      5  H   UNL     1       3.787   6.273  18.978  0.00  0.00    +0.000 HD
BRANCH   2   6
ATOM      6  C   UNL     1       1.957   8.168  18.947  0.00  0.00    +0.000 C 
BRANCH   6   7
ATOM      7  C   UNL     1       1.535   9.618  18.801  0.00  0.00    +0.000 C 
BRANCH   7   8
ATOM      8  C   UNL     1       0.130   9.716  18.238  0.00  0.00    +0.000 C 
BRANCH   8   9
ATOM      9  C   UNL     1      -0.704  10.677  19.068  0.00  0.00    +0.000 C 
BRANCH   9  10
ATOM     10  C   UNL     1      -0.105  12.070  18.996  0.00  0.00    +0.000 C 
BRANCH  10  11
ATOM     11  C   UNL     1      -1.181  13.111  19.244  0.00  0.00    +0.000 C 
BRANCH  11  12
ATOM     12  C   UNL     1      -2.479  12.427  19.629  0.00  0.00    +0.000 C 
BRANCH  12  13
ATOM     13  C   UNL     1      -3.195  13.240  20.689  0.00  0.00    +0.000 C 
BRANCH  13  14
ATOM     14  C   UNL     1      -3.124  12.525  22.025  0.00  0.00    +0.000 C 
BRANCH  14  15
ATOM     15  C   UNL     1      -2.012  13.118  22.869  0.00  0.00    +0.000 C 
BRANCH  15  16
ATOM     16  C   UNL     1      -0.816  12.183  22.884  0.00  0.00    +0.000 C 
BRANCH  16  18
ATOM     17  C   UNL     1      -0.240   9.788  23.218  0.00  0.00    +0.000 C 
ATOM     18  C   UNL     1      -1.269  10.749  22.662  0.00  0.00    +0.000 C 
ENDBRANCH  16  18
ENDBRANCH  15  16
ENDBRANCH  14  15
ENDBRANCH  13  14
ENDBRANCH  12  13
ENDBRANCH  11  12
ENDBRANCH  10  11
ENDBRANCH   9  10
ENDBRANCH   8   9
ENDBRANCH   7   8
ENDBRANCH   6   7
ENDBRANCH   2   6
ENDBRANCH   1   4
BRANCH   1  19
ATOM     19  C   UNL     1       6.319   6.542  17.824  0.00  0.00    +0.000 C 
BRANCH  19  20
ATOM     20  C   UNL     1       7.037   7.814  17.395  0.00  0.00    +0.000 C 
BRANCH  20  21
ATOM     21  C   UNL     1       8.296   8.096  18.165  0.00  0.00    +0.000 C 
BRANCH  21  22
ATOM     22  C   UNL     1       8.496   9.605  18.223  0.00  0.00    +0.000 C 
BRANCH  22  23
ATOM     23  N   UNL     1       9.252   9.900  19.421  0.00  0.00    +0.000 NA
ATOM     24  H   UNL     1       9.925  10.635  19.208  0.00  0.00    +0.000 HD
ATOM     25  H   UNL     1       9.782   9.077  19.694  0.00  0.00    +0.000 HD
ENDBRANCH  22  23
ENDBRANCH  21  22
ENDBRANCH  20  21
ENDBRANCH  19  20
ENDBRANCH   1  19
BRANCH   1  26
ATOM     26  C   UNL     1       4.730   5.012  16.615  0.00  0.00    +0.000 C 
BRANCH  26  27
ATOM     27  N   UNL     1       4.335   4.020  17.587  0.00  0.00    +0.000 N 
ATOM     28  C   UNL     1       5.114   3.636  18.744  0.00  0.00    +0.000 C 
ATOM     29  C   UNL     1       4.169   2.612  19.390  0.00  0.00    +0.000 C 
ATOM     30  O   UNL     1       4.400   1.976  20.419  0.00  0.00    +0.000 OA
ATOM     31  N   UNL     1       3.010   2.583  18.634  0.00  0.00    +0.000 N 
ATOM     32  C   UNL     1       3.104   3.390  17.514  0.00  0.00    +0.000 C 
ATOM     33  O   UNL     1       2.289   3.561  16.641  0.00  0.00    +0.000 OA
BRANCH  31  34
ATOM     34  C   UNL     1       1.856   1.775  18.964  0.00  0.00    +0.000 C 
BRANCH  34  35
ATOM     35  C   UNL     1       0.680   2.605  19.460  0.00  0.00    +0.000 C 
BRANCH  35  36
ATOM     36  C   UNL     1       1.076   3.549  20.583  0.00  0.00    +0.000 C 
ATOM     37  C   UNL     1       1.324   2.754  21.850  0.00  0.00    +0.000 C 
ENDBRANCH  35  36
ENDBRANCH  34  35
ENDBRANCH  31  34
ENDBRANCH  26  27
ENDBRANCH   1  26
TORSDOF 23
ENDMDL
