MODEL 1
REMARK VINA RESULT:      -7.2      0.000      0.000
REMARK  Name = 
REMARK  17 active torsions:
REMARK  status: ('A' for Active; 'I' for Inactive)
REMARK    1  A    between atoms: C_1  and  C_2
REMARK    2  A    between atoms: C_2  and  C_3
REMARK    3  A    between atoms: C_3  and  C_4
REMARK    4  A    between atoms: C_4  and  C_5
REMARK    5  A    between atoms: C_5  and  C_6
REMARK    6  A    between atoms: C_6  and  N_7
REMARK    7  A    between atoms: N_7  and  N_8
REMARK    8  A    between atoms: N_7  and  C_10
REMARK    9  A    between atoms: C_13  and  N_14
REMARK   10  A    between atoms: C_17  and  N_18
REMARK   11  A    between atoms: N_18  and  C_19
REMARK   12  A    between atoms: N_18  and  N_25
REMARK   13  A    between atoms: C_19  and  C_20
REMARK   14  A    between atoms: C_20  and  C_21
REMARK   15  A    between atoms: C_21  and  C_22
REMARK   16  A    between atoms: C_22  and  C_23
REMARK   17  A    between atoms: C_23  and  C_24
REMARK                            x       y       z     vdW  Elec       q    Type
REMARK                         _______ _______ _______ _____ _____    ______ ____
ROOT
ATOM      1  C   UNL     1       6.028   5.020  15.828  0.00  0.00    +0.000 A 
ATOM      2  C   UNL     1       5.834   6.334  16.269  0.00  0.00    +0.000 A 
ATOM      3  C   UNL     1       5.033   6.585  17.360  0.00  0.00    +0.000 A 
ATOM      4  C   UNL     1       4.393   5.509  18.021  0.00  0.00    +0.000 A 
ATOM      5  C   UNL     1       4.700   4.145  17.769  0.00  0.00    +0.000 A 
ATOM      6  C   UNL     1       5.482   3.967  16.607  0.00  0.00    +0.000 A 
ENDROOT
BRANCH   4   7
ATOM      7  N   UNL     1       3.249   5.994  18.796  0.00  0.00    +0.000 N 
ATOM      8  O   UNL     1       2.327   6.470  18.135  0.00  0.00    +0.000 OA
ATOM      9  O   UNL     1       3.385   6.069  20.018  0.00  0.00    +0.000 OA
ENDBRANCH   4   7
BRANCH   1  10
ATOM     10  N   UNL     1       6.811   4.797  14.664  0.00  0.00    +0.000 N 
BRANCH  10  11
ATOM     11  N   UNL     1       7.575   5.826  14.226  0.00  0.00    +0.000 NA
ATOM     12  O   UNL     1       8.431   5.495  13.390  0.00  0.00    +0.000 OA
ENDBRANCH  10  11
BRANCH  10  13
ATOM     13  C   UNL     1       6.467   3.591  13.867  0.00  0.00    +0.000 C 
BRANCH  13  14
ATOM     14  C   UNL     1       5.411   3.910  12.803  0.00  0.00    +0.000 C 
BRANCH  14  15
ATOM     15  C   UNL     1       5.247   2.808  11.753  0.00  0.00    +0.000 C 
BRANCH  15  16
ATOM     16  C   UNL     1       3.870   2.950  11.099  0.00  0.00    +0.000 C 
BRANCH  16  18
ATOM     17  C   UNL     1       2.525   4.198   9.393  0.00  0.00    +0.000 C 
ATOM     18  C   UNL     1       3.713   4.263  10.341  0.00  0.00    +0.000 C 
ENDBRANCH  16  18
ENDBRANCH  15  16
ENDBRANCH  14  15
ENDBRANCH  13  14
ENDBRANCH  10  13
ENDBRANCH   1  10
BRANCH   5  19
ATOM     19  N   UNL     1       4.288   2.994  18.527  0.00  0.00    +0.000 N 
BRANCH  19  20
ATOM     20  N   UNL     1       4.612   2.897  19.845  0.00  0.00    +0.000 NA
ATOM     21  O   UNL     1       5.066   1.792  20.168  0.00  0.00    +0.000 OA
ENDBRANCH  19  20
BRANCH  19  22
ATOM     22  C   UNL     1       3.276   2.035  17.921  0.00  0.00    +0.000 C 
BRANCH  22  23
ATOM     23  C   UNL     1       1.904   1.994  18.618  0.00  0.00    +0.000 C 
BRANCH  23  24
ATOM     24  C   UNL     1       1.074   3.276  18.670  0.00  0.00    +0.000 C 
BRANCH  24  25
ATOM     25  C   UNL     1       0.775   3.759  20.082  0.00  0.00    +0.000 C 
BRANCH  25  26
ATOM     26  C   UNL     1       1.144   2.712  21.133  0.00  0.00    +0.000 C 
ATOM     27  C   UNL     1       2.290   3.205  22.005  0.00  0.00    +0.000 C 
ENDBRANCH  25  26
ENDBRANCH  24  25
ENDBRANCH  23  24
ENDBRANCH  22  23
ENDBRANCH  19  22
ENDBRANCH   5  19
TORSDOF 15
ENDMDL
MODEL 2
REMARK VINA RESULT:      -6.8      2.748      7.692
REMARK  Name = 
REMARK  17 active torsions:
REMARK  status: ('A' for Active; 'I' for Inactive)
REMARK    1  A    between atoms: C_1  and  C_2
REMARK    2  A    between atoms: C_2  and  C_3
REMARK    3  A    between atoms: C_3  and  C_4
REMARK    4  A    between atoms: C_4  and  C_5
REMARK    5  A    between atoms: C_5  and  C_6
REMARK    6  A    between atoms: C_6  and  N_7
REMARK    7  A    between atoms: N_7  and  N_8
REMARK    8  A    between atoms: N_7  and  C_10
REMARK    9  A    between atoms: C_13  and  N_14
REMARK   10  A    between atoms: C_17  and  N_18
REMARK   11  A    between atoms: N_18  and  C_19
REMARK   12  A    between atoms: N_18  and  N_25
REMARK   13  A    between atoms: C_19  and  C_20
REMARK   14  A    between atoms: C_20  and  C_21
REMARK   15  A    between atoms: C_21  and  C_22
REMARK   16  A    between atoms: C_22  and  C_23
REMARK   17  A    between atoms: C_23  and  C_24
REMARK                            x       y       z     vdW  Elec       q    Type
REMARK                         _______ _______ _______ _____ _____    ______ ____
ROOT
ATOM      1  C   UNL     1       3.639   3.871  18.613  0.00  0.00    +0.000 A 
ATOM      2  C   UNL     1       4.418   4.403  19.647  0.00  0.00    +0.000 A 
ATOM      3  C   UNL     1       5.660   4.931  19.373  0.00  0.00    +0.000 A 
ATOM      4  C   UNL     1       6.151   4.916  18.046  0.00  0.00    +0.000 A 
ATOM      5  C   UNL     1       5.348   4.588  16.920  0.00  0.00    +0.000 A 
ATOM      6  C   UNL     1       4.113   4.007  17.282  0.00  0.00    +0.000 A 
ENDROOT
BRANCH   4   7
ATOM      7  N   UNL     1       7.610   5.050  18.039  0.00  0.00    +0.000 N 
ATOM      8  O   UNL     1       8.043   6.119  18.465  0.00  0.00    +0.000 OA
ATOM      9  O   UNL     1       8.253   4.189  17.437  0.00  0.00    +0.000 OA
ENDBRANCH   4   7
BRANCH   1  10
ATOM     10  N   UNL     1       2.389   3.279  18.934  0.00  0.00    +0.000 N 
BRANCH  10  11
ATOM     11  N   UNL     1       1.714   2.675  17.927  0.00  0.00    +0.000 NA
ATOM     12  O   UNL     1       0.586   2.268  18.251  0.00  0.00    +0.000 OA
ENDBRANCH  10  11
BRANCH  10  13
ATOM     13  C   UNL     1       1.802   3.662  20.245  0.00  0.00    +0.000 C 
BRANCH  13  14
ATOM     14  C   UNL     1       1.146   5.045  20.177  0.00  0.00    +0.000 C 
BRANCH  14  15
ATOM     15  C   UNL     1       1.844   6.097  21.044  0.00  0.00    +0.000 C 
BRANCH  15  16
ATOM     16  C   UNL     1       1.657   7.472  20.397  0.00  0.00    +0.000 C 
BRANCH  16  18
ATOM     17  C   UNL     1       1.296   9.115  22.253  0.00  0.00    +0.000 C 
ATOM     18  C   UNL     1       0.635   8.332  21.130  0.00  0.00    +0.000 C 
ENDBRANCH  16  18
ENDBRANCH  15  16
ENDBRANCH  14  15
ENDBRANCH  13  14
ENDBRANCH  10  13
ENDBRANCH   1  10
BRANCH   5  19
ATOM     19  N   UNL     1       5.669   4.756  15.529  0.00  0.00    +0.000 N 
BRANCH  19  20
ATOM     20  N   UNL     1       5.973   5.992  15.047  0.00  0.00    +0.000 NA
ATOM     21  O   UNL     1       5.124   6.853  15.311  0.00  0.00    +0.000 OA
ENDBRANCH  19  20
BRANCH  19  22
ATOM     22  C   UNL     1       5.925   3.524  14.676  0.00  0.00    +0.000 C 
BRANCH  22  23
ATOM     23  C   UNL     1       6.178   3.796  13.182  0.00  0.00    +0.000 C 
BRANCH  23  24
ATOM     24  C   UNL     1       4.975   4.013  12.266  0.00  0.00    +0.000 C 
BRANCH  24  25
ATOM     25  C   UNL     1       4.704   2.854  11.318  0.00  0.00    +0.000 C 
BRANCH  25  26
ATOM     26  C   UNL     1       3.287   2.903  10.746  0.00  0.00    +0.000 C 
ATOM     27  C   UNL     1       3.105   4.128   9.862  0.00  0.00    +0.000 C 
ENDBRANCH  25  26
ENDBRANCH  24  25
ENDBRANCH  23  24
ENDBRANCH  22  23
ENDBRANCH  19  22
ENDBRANCH   5  19
TORSDOF 15
ENDMDL
MODEL 3
REMARK VINA RESULT:      -6.8      3.302      7.571
REMARK  Name = 
REMARK  17 active torsions:
REMARK  status: ('A' for Active; 'I' for Inactive)
REMARK    1  A    between atoms: C_1  and  C_2
REMARK    2  A    between atoms: C_2  and  C_3
REMARK    3  A    between atoms: C_3  and  C_4
REMARK    4  A    between atoms: C_4  and  C_5
REMARK    5  A    between atoms: C_5  and  C_6
REMARK    6  A    between atoms: C_6  and  N_7
REMARK    7  A    between atoms: N_7  and  N_8
REMARK    8  A    between atoms: N_7  and  C_10
REMARK    9  A    between atoms: C_13  and  N_14
REMARK   10  A    between atoms: C_17  and  N_18
REMARK   11  A    between atoms: N_18  and  C_19
REMARK   12  A    between atoms: N_18  and  N_25
REMARK   13  A    between atoms: C_19  and  C_20
REMARK   14  A    between atoms: C_20  and  C_21
REMARK   15  A    between atoms: C_21  and  C_22
REMARK   16  A    between atoms: C_22  and  C_23
REMARK   17  A    between atoms: C_23  and  C_24
REMARK                            x       y       z     vdW  Elec       q    Type
REMARK                         _______ _______ _______ _____ _____    ______ ____
ROOT
ATOM      1  C   UNL     1       4.178   3.375  18.997  0.00  0.00    +0.000 A 
ATOM      2  C   UNL     1       3.485   3.399  17.781  0.00  0.00    +0.000 A 
ATOM      3  C   UNL     1       3.894   4.240  16.770  0.00  0.00    +0.000 A 
ATOM      4  C   UNL     1       5.007   5.090  16.974  0.00  0.00    +0.000 A 
ATOM      5  C   UNL     1       5.881   4.978  18.088  0.00  0.00    +0.000 A 
ATOM      6  C   UNL     1       5.368   4.140  19.102  0.00  0.00    +0.000 A 
ENDROOT
BRANCH   4   7
ATOM      7  N   UNL     1       4.978   6.206  16.026  0.00  0.00    +0.000 N 
ATOM      8  O   UNL     1       4.253   7.149  16.343  0.00  0.00    +0.000 OA
ATOM      9  O   UNL     1       5.505   6.028  14.927  0.00  0.00    +0.000 OA
ENDBRANCH   4   7
BRANCH   1  10
ATOM     10  N   UNL     1       3.696   2.542  20.042  0.00  0.00    +0.000 N 
BRANCH  10  11
ATOM     11  N   UNL     1       4.615   2.019  20.889  0.00  0.00    +0.000 NA
ATOM     12  O   UNL     1       5.275   1.088  20.400  0.00  0.00    +0.000 OA
ENDBRANCH  10  11
BRANCH  10  13
ATOM     13  C   UNL     1       2.293   2.070  19.908  0.00  0.00    +0.000 C 
BRANCH  13  14
ATOM     14  C   UNL     1       1.363   2.814  20.873  0.00  0.00    +0.000 C 
BRANCH  14  15
ATOM     15  C   UNL     1       0.946   4.201  20.375  0.00  0.00    +0.000 C 
BRANCH  15  16
ATOM     16  C   UNL     1       1.885   5.246  20.983  0.00  0.00    +0.000 C 
BRANCH  16  18
ATOM     17  C   UNL     1       2.537   7.138  19.476  0.00  0.00    +0.000 C 
ATOM     18  C   UNL     1       1.554   6.664  20.536  0.00  0.00    +0.000 C 
ENDBRANCH  16  18
ENDBRANCH  15  16
ENDBRANCH  14  15
ENDBRANCH  13  14
ENDBRANCH  10  13
ENDBRANCH   1  10
BRANCH   5  19
ATOM     19  N   UNL     1       7.152   5.624  18.281  0.00  0.00    +0.000 N 
BRANCH  19  20
ATOM     20  N   UNL     1       8.230   4.896  18.680  0.00  0.00    +0.000 NA
ATOM     21  O   UNL     1       8.608   4.064  17.845  0.00  0.00    +0.000 OA
ENDBRANCH  19  20
BRANCH  19  22
ATOM     22  C   UNL     1       7.339   7.048  17.783  0.00  0.00    +0.000 C 
BRANCH  22  23
ATOM     23  C   UNL     1       8.236   7.942  18.658  0.00  0.00    +0.000 C 
BRANCH  23  24
ATOM     24  C   UNL     1       8.506   9.375  18.201  0.00  0.00    +0.000 C 
BRANCH  24  25
ATOM     25  C   UNL     1       9.301  10.201  19.202  0.00  0.00    +0.000 C 
BRANCH  25  26
ATOM     26  C   UNL     1       9.302  11.687  18.843  0.00  0.00    +0.000 C 
ATOM     27  C   UNL     1      10.386  11.993  17.819  0.00  0.00    +0.000 C 
ENDBRANCH  25  26
ENDBRANCH  24  25
ENDBRANCH  23  24
ENDBRANCH  22  23
ENDBRANCH  19  22
ENDBRANCH   5  19
TORSDOF 15
ENDMDL
MODEL 4
REMARK VINA RESULT:      -6.6      1.696      7.258
REMARK  Name = 
REMARK  17 active torsions:
REMARK  status: ('A' for Active; 'I' for Inactive)
REMARK    1  A    between atoms: C_1  and  C_2
REMARK    2  A    between atoms: C_2  and  C_3
REMARK    3  A    between atoms: C_3  and  C_4
REMARK    4  A    between atoms: C_4  and  C_5
REMARK    5  A    between atoms: C_5  and  C_6
REMARK    6  A    between atoms: C_6  and  N_7
REMARK    7  A    between atoms: N_7  and  N_8
REMARK    8  A    between atoms: N_7  and  C_10
REMARK    9  A    between atoms: C_13  and  N_14
REMARK   10  A    between atoms: C_17  and  N_18
REMARK   11  A    between atoms: N_18  and  C_19
REMARK   12  A    between atoms: N_18  and  N_25
REMARK   13  A    between atoms: C_19  and  C_20
REMARK   14  A    between atoms: C_20  and  C_21
REMARK   15  A    between atoms: C_21  and  C_22
REMARK   16  A    between atoms: C_22  and  C_23
REMARK   17  A    between atoms: C_23  and  C_24
REMARK                            x       y       z     vdW  Elec       q    Type
REMARK                         _______ _______ _______ _____ _____    ______ ____
ROOT
ATOM      1  C   UNL     1       4.363   3.719  18.044  0.00  0.00    +0.000 A 
ATOM      2  C   UNL     1       4.305   4.883  18.819  0.00  0.00    +0.000 A 
ATOM      3  C   UNL     1       5.084   5.970  18.491  0.00  0.00    +0.000 A 
ATOM      4  C   UNL     1       5.956   5.898  17.379  0.00  0.00    +0.000 A 
ATOM      5  C   UNL     1       5.922   4.842  16.428  0.00  0.00    +0.000 A 
ATOM      6  C   UNL     1       5.145   3.745  16.859  0.00  0.00    +0.000 A 
ENDROOT
BRANCH   4   7
ATOM      7  N   UNL     1       7.010   6.909  17.488  0.00  0.00    +0.000 N 
ATOM      8  O   UNL     1       6.883   7.885  16.750  0.00  0.00    +0.000 OA
ATOM      9  O   UNL     1       8.011   6.613  18.141  0.00  0.00    +0.000 OA
ENDBRANCH   4   7
BRANCH   1  10
ATOM     10  N   UNL     1       3.595   2.593  18.441  0.00  0.00    +0.000 N 
BRANCH  10  11
ATOM     11  N   UNL     1       4.230   1.628  19.148  0.00  0.00    +0.000 NA
ATOM     12  O   UNL     1       4.693   2.022  20.231  0.00  0.00    +0.000 OA
ENDBRANCH  10  11
BRANCH  10  13
ATOM     13  C   UNL     1       2.277   2.433  17.772  0.00  0.00    +0.000 C 
BRANCH  13  14
ATOM     14  C   UNL     1       1.183   2.067  18.782  0.00  0.00    +0.000 C 
BRANCH  14  15
ATOM     15  C   UNL     1       0.683   3.260  19.602  0.00  0.00    +0.000 C 
BRANCH  15  16
ATOM     16  C   UNL     1       1.231   3.144  21.026  0.00  0.00    +0.000 C 
BRANCH  16  18
ATOM     17  C   UNL     1       1.670   5.601  20.810  0.00  0.00    +0.000 C 
ATOM     18  C   UNL     1       2.172   4.287  21.388  0.00  0.00    +0.000 C 
ENDBRANCH  16  18
ENDBRANCH  15  16
ENDBRANCH  14  15
ENDBRANCH  13  14
ENDBRANCH  10  13
ENDBRANCH   1  10
BRANCH   5  19
ATOM     19  N   UNL     1       6.591   4.778  15.156  0.00  0.00    +0.000 N 
BRANCH  19  20
ATOM     20  N   UNL     1       7.720   5.507  14.946  0.00  0.00    +0.000 NA
ATOM     21  O   UNL     1       8.005   5.654  13.751  0.00  0.00    +0.000 OA
ENDBRANCH  19  20
BRANCH  19  22
ATOM     22  C   UNL     1       6.184   3.703  14.161  0.00  0.00    +0.000 C 
BRANCH  22  23
ATOM     23  C   UNL     1       6.610   3.956  12.704  0.00  0.00    +0.000 C 
BRANCH  23  24
ATOM     24  C   UNL     1       6.319   2.878  11.661  0.00  0.00    +0.000 C 
BRANCH  24  25
ATOM     25  C   UNL     1       4.839   2.570  11.490  0.00  0.00    +0.000 C 
BRANCH  25  26
ATOM     26  C   UNL     1       4.032   3.821  11.141  0.00  0.00    +0.000 C 
ATOM     27  C   UNL     1       3.085   3.546   9.983  0.00  0.00    +0.000 C 
ENDBRANCH  25  26
ENDBRANCH  24  25
ENDBRANCH  23  24
ENDBRANCH  22  23
ENDBRANCH  19  22
ENDBRANCH   5  19
TORSDOF 15
ENDMDL
MODEL 5
REMARK VINA RESULT:      -6.6      2.722      4.231
REMARK  Name = 
REMARK  17 active torsions:
REMARK  status: ('A' for Active; 'I' for Inactive)
REMARK    1  A    between atoms: C_1  and  C_2
REMARK    2  A    between atoms: C_2  and  C_3
REMARK    3  A    between atoms: C_3  and  C_4
REMARK    4  A    between atoms: C_4  and  C_5
REMARK    5  A    between atoms: C_5  and  C_6
REMARK    6  A    between atoms: C_6  and  N_7
REMARK    7  A    between atoms: N_7  and  N_8
REMARK    8  A    between atoms: N_7  and  C_10
REMARK    9  A    between atoms: C_13  and  N_14
REMARK   10  A    between atoms: C_17  and  N_18
REMARK   11  A    between atoms: N_18  and  C_19
REMARK   12  A    between atoms: N_18  and  N_25
REMARK   13  A    between atoms: C_19  and  C_20
REMARK   14  A    between atoms: C_20  and  C_21
REMARK   15  A    between atoms: C_21  and  C_22
REMARK   16  A    between atoms: C_22  and  C_23
REMARK   17  A    between atoms: C_23  and  C_24
REMARK                            x       y       z     vdW  Elec       q    Type
REMARK                         _______ _______ _______ _____ _____    ______ ____
ROOT
ATOM      1  C   UNL     1       5.136   4.071  18.273  0.00  0.00    +0.000 A 
ATOM      2  C   UNL     1       4.399   3.636  17.166  0.00  0.00    +0.000 A 
ATOM      3  C   UNL     1       3.109   3.181  17.330  0.00  0.00    +0.000 A 
ATOM      4  C   UNL     1       2.541   3.140  18.625  0.00  0.00    +0.000 A 
ATOM      5  C   UNL     1       3.139   3.750  19.760  0.00  0.00    +0.000 A 
ATOM      6  C   UNL     1       4.475   4.143  19.527  0.00  0.00    +0.000 A 
ENDROOT
BRANCH   4   7
ATOM      7  N   UNL     1       1.413   2.206  18.659  0.00  0.00    +0.000 N 
ATOM      8  O   UNL     1       1.690   1.055  18.991  0.00  0.00    +0.000 OA
ATOM      9  O   UNL     1       0.348   2.589  18.171  0.00  0.00    +0.000 OA
ENDBRANCH   4   7
BRANCH   1  10
ATOM     10  N   UNL     1       6.483   4.477  18.082  0.00  0.00    +0.000 N 
BRANCH  10  11
ATOM     11  N   UNL     1       7.026   5.283  19.025  0.00  0.00    +0.000 NA
ATOM     12  O   UNL     1       8.213   5.027  19.282  0.00  0.00    +0.000 OA
ENDBRANCH  10  11
BRANCH  10  13
ATOM     13  C   UNL     1       7.048   4.250  16.726  0.00  0.00    +0.000 C 
BRANCH  13  14
ATOM     14  C   UNL     1       6.904   5.499  15.849  0.00  0.00    +0.000 C 
BRANCH  14  15
ATOM     15  C   UNL     1       5.997   5.292  14.633  0.00  0.00    +0.000 C 
BRANCH  15  16
ATOM     16  C   UNL     1       6.164   3.855  14.131  0.00  0.00    +0.000 C 
BRANCH  16  18
ATOM     17  C   UNL     1       5.237   3.110  11.926  0.00  0.00    +0.000 C 
ATOM     18  C   UNL     1       6.407   3.782  12.629  0.00  0.00    +0.000 C 
ENDBRANCH  16  18
ENDBRANCH  15  16
ENDBRANCH  14  15
ENDBRANCH  13  14
ENDBRANCH  10  13
ENDBRANCH   1  10
BRANCH   5  19
ATOM     19  N   UNL     1       2.554   3.967  21.056  0.00  0.00    +0.000 N 
BRANCH  19  20
ATOM     20  N   UNL     1       2.564   2.969  21.981  0.00  0.00    +0.000 NA
ATOM     21  O   UNL     1       1.454   2.456  22.174  0.00  0.00    +0.000 OA
ENDBRANCH  19  20
BRANCH  19  22
ATOM     22  C   UNL     1       2.175   5.380  21.468  0.00  0.00    +0.000 C 
BRANCH  22  23
ATOM     23  C   UNL     1       1.472   6.218  20.385  0.00  0.00    +0.000 C 
BRANCH  23  24
ATOM     24  C   UNL     1       1.806   7.706  20.282  0.00  0.00    +0.000 C 
BRANCH  24  25
ATOM     25  C   UNL     1       2.153   8.164  18.873  0.00  0.00    +0.000 C 
BRANCH  25  26
ATOM     26  C   UNL     1       2.619   7.003  17.994  0.00  0.00    +0.000 C 
ATOM     27  C   UNL     1       3.953   7.325  17.337  0.00  0.00    +0.000 C 
ENDBRANCH  25  26
ENDBRANCH  24  25
ENDBRANCH  23  24
ENDBRANCH  22  23
ENDBRANCH  19  22
ENDBRANCH   5  19
TORSDOF 15
ENDMDL
MODEL 6
REMARK VINA RESULT:      -6.6      2.105      7.203
REMARK  Name = 
REMARK  17 active torsions:
REMARK  status: ('A' for Active; 'I' for Inactive)
REMARK    1  A    between atoms: C_1  and  C_2
REMARK    2  A    between atoms: C_2  and  C_3
REMARK    3  A    between atoms: C_3  and  C_4
REMARK    4  A    between atoms: C_4  and  C_5
REMARK    5  A    between atoms: C_5  and  C_6
REMARK    6  A    between atoms: C_6  and  N_7
REMARK    7  A    between atoms: N_7  and  N_8
REMARK    8  A    between atoms: N_7  and  C_10
REMARK    9  A    between atoms: C_13  and  N_14
REMARK   10  A    between atoms: C_17  and  N_18
REMARK   11  A    between atoms: N_18  and  C_19
REMARK   12  A    between atoms: N_18  and  N_25
REMARK   13  A    between atoms: C_19  and  C_20
REMARK   14  A    between atoms: C_20  and  C_21
REMARK   15  A    between atoms: C_21  and  C_22
REMARK   16  A    between atoms: C_22  and  C_23
REMARK   17  A    between atoms: C_23  and  C_24
REMARK                            x       y       z     vdW  Elec       q    Type
REMARK                         _______ _______ _______ _____ _____    ______ ____
ROOT
ATOM      1  C   UNL     1       4.764   3.558  18.859  0.00  0.00    +0.000 A 
ATOM      2  C   UNL     1       4.780   4.782  19.538  0.00  0.00    +0.000 A 
ATOM      3  C   UNL     1       5.475   5.851  19.018  0.00  0.00    +0.000 A 
ATOM      4  C   UNL     1       6.188   5.699  17.805  0.00  0.00    +0.000 A 
ATOM      5  C   UNL     1       6.054   4.566  16.957  0.00  0.00    +0.000 A 
ATOM      6  C   UNL     1       5.374   3.497  17.579  0.00  0.00    +0.000 A 
ENDROOT
BRANCH   4   7
ATOM      7  N   UNL     1       7.218   6.733  17.684  0.00  0.00    +0.000 N 
ATOM      8  O   UNL     1       8.082   6.722  18.560  0.00  0.00    +0.000 OA
ATOM      9  O   UNL     1       7.027   7.627  16.858  0.00  0.00    +0.000 OA
ENDBRANCH   4   7
BRANCH   1  10
ATOM     10  N   UNL     1       4.089   2.457  19.450  0.00  0.00    +0.000 N 
BRANCH  10  11
ATOM     11  N   UNL     1       4.452   2.111  20.708  0.00  0.00    +0.000 NA
ATOM     12  O   UNL     1       5.433   1.350  20.756  0.00  0.00    +0.000 OA
ENDBRANCH  10  11
BRANCH  10  13
ATOM     13  C   UNL     1       3.297   1.604  18.526  0.00  0.00    +0.000 C 
BRANCH  13  14
ATOM     14  C   UNL     1       2.048   2.337  18.026  0.00  0.00    +0.000 C 
BRANCH  14  15
ATOM     15  C   UNL     1       0.835   2.180  18.949  0.00  0.00    +0.000 C 
BRANCH  15  16
ATOM     16  C   UNL     1       0.468   3.553  19.517  0.00  0.00    +0.000 C 
BRANCH  16  18
ATOM     17  C   UNL     1       1.690   5.386  20.710  0.00  0.00    +0.000 C 
ATOM     18  C   UNL     1       1.290   3.919  20.747  0.00  0.00    +0.000 C 
ENDBRANCH  16  18
ENDBRANCH  15  16
ENDBRANCH  14  15
ENDBRANCH  13  14
ENDBRANCH  10  13
ENDBRANCH   1  10
BRANCH   5  19
ATOM     19  N   UNL     1       6.543   4.407  15.614  0.00  0.00    +0.000 N 
BRANCH  19  20
ATOM     20  N   UNL     1       7.816   4.775  15.307  0.00  0.00    +0.000 NA
ATOM     21  O   UNL     1       7.887   5.632  14.417  0.00  0.00    +0.000 OA
ENDBRANCH  19  20
BRANCH  19  22
ATOM     22  C   UNL     1       5.728   3.590  14.624  0.00  0.00    +0.000 C 
BRANCH  22  23
ATOM     23  C   UNL     1       5.706   4.128  13.182  0.00  0.00    +0.000 C 
BRANCH  23  24
ATOM     24  C   UNL     1       5.606   3.128  12.031  0.00  0.00    +0.000 C 
BRANCH  24  25
ATOM     25  C   UNL     1       6.911   2.407  11.727  0.00  0.00    +0.000 C 
BRANCH  25  26
ATOM     26  C   UNL     1       6.724   1.305  10.683  0.00  0.00    +0.000 C 
ATOM     27  C   UNL     1       6.175   0.041  11.327  0.00  0.00    +0.000 C 
ENDBRANCH  25  26
ENDBRANCH  24  25
ENDBRANCH  23  24
ENDBRANCH  22  23
ENDBRANCH  19  22
ENDBRANCH   5  19
TORSDOF 15
ENDMDL
MODEL 7
REMARK VINA RESULT:      -6.6      3.508      4.654
REMARK  Name = 
REMARK  17 active torsions:
REMARK  status: ('A' for Active; 'I' for Inactive)
REMARK    1  A    between atoms: C_1  and  C_2
REMARK    2  A    between atoms: C_2  and  C_3
REMARK    3  A    between atoms: C_3  and  C_4
REMARK    4  A    between atoms: C_4  and  C_5
REMARK    5  A    between atoms: C_5  and  C_6
REMARK    6  A    between atoms: C_6  and  N_7
REMARK    7  A    between atoms: N_7  and  N_8
REMARK    8  A    between atoms: N_7  and  C_10
REMARK    9  A    between atoms: C_13  and  N_14
REMARK   10  A    between atoms: C_17  and  N_18
REMARK   11  A    between atoms: N_18  and  C_19
REMARK   12  A    between atoms: N_18  and  N_25
REMARK   13  A    between atoms: C_19  and  C_20
REMARK   14  A    between atoms: C_20  and  C_21
REMARK   15  A    between atoms: C_21  and  C_22
REMARK   16  A    between atoms: C_22  and  C_23
REMARK   17  A    between atoms: C_23  and  C_24
REMARK                            x       y       z     vdW  Elec       q    Type
REMARK                         _______ _______ _______ _____ _____    ______ ____
ROOT
ATOM      1  C   UNL     1       5.078   5.484  17.439  0.00  0.00    +0.000 A 
ATOM      2  C   UNL     1       4.657   4.157  17.585  0.00  0.00    +0.000 A 
ATOM      3  C   UNL     1       3.527   3.868  18.317  0.00  0.00    +0.000 A 
ATOM      4  C   UNL     1       2.804   4.916  18.934  0.00  0.00    +0.000 A 
ATOM      5  C   UNL     1       3.042   6.291  18.665  0.00  0.00    +0.000 A 
ATOM      6  C   UNL     1       4.243   6.509  17.956  0.00  0.00    +0.000 A 
ENDROOT
BRANCH   4   7
ATOM      7  N   UNL     1       1.975   4.394  20.022  0.00  0.00    +0.000 N 
ATOM      8  O   UNL     1       0.814   4.123  19.718  0.00  0.00    +0.000 OA
ATOM      9  O   UNL     1       2.434   4.459  21.163  0.00  0.00    +0.000 OA
ENDBRANCH   4   7
BRANCH   1  10
ATOM     10  N   UNL     1       6.280   5.747  16.731  0.00  0.00    +0.000 N 
BRANCH  10  11
ATOM     11  N   UNL     1       6.585   7.044  16.490  0.00  0.00    +0.000 NA
ATOM     12  O   UNL     1       7.648   7.416  17.014  0.00  0.00    +0.000 OA
ENDBRANCH  10  11
BRANCH  10  13
ATOM     13  C   UNL     1       6.905   4.583  16.050  0.00  0.00    +0.000 C 
BRANCH  13  14
ATOM     14  C   UNL     1       6.924   4.774  14.529  0.00  0.00    +0.000 C 
BRANCH  14  15
ATOM     15  C   UNL     1       5.840   3.975  13.799  0.00  0.00    +0.000 C 
BRANCH  15  16
ATOM     16  C   UNL     1       6.384   3.536  12.437  0.00  0.00    +0.000 C 
BRANCH  16  18
ATOM     17  C   UNL     1       4.158   3.281  11.317  0.00  0.00    +0.000 C 
ATOM     18  C   UNL     1       5.448   2.578  11.711  0.00  0.00    +0.000 C 
ENDBRANCH  16  18
ENDBRANCH  15  16
ENDBRANCH  14  15
ENDBRANCH  13  14
ENDBRANCH  10  13
ENDBRANCH   1  10
BRANCH   5  19
ATOM     19  N   UNL     1       2.234   7.418  19.050  0.00  0.00    +0.000 N 
BRANCH  19  20
ATOM     20  N   UNL     1       2.106   7.742  20.365  0.00  0.00    +0.000 NA
ATOM     21  O   UNL     1       1.037   7.373  20.869  0.00  0.00    +0.000 OA
ENDBRANCH  19  20
BRANCH  19  22
ATOM     22  C   UNL     1       1.755   8.383  17.978  0.00  0.00    +0.000 C 
BRANCH  22  23
ATOM     23  C   UNL     1       1.226   9.733  18.494  0.00  0.00    +0.000 C 
BRANCH  23  24
ATOM     24  C   UNL     1      -0.248  10.072  18.273  0.00  0.00    +0.000 C 
BRANCH  24  25
ATOM     25  C   UNL     1      -0.937  10.653  19.500  0.00  0.00    +0.000 C 
BRANCH  25  26
ATOM     26  C   UNL     1      -0.020  10.652  20.723  0.00  0.00    +0.000 C 
ATOM     27  C   UNL     1      -0.455  11.713  21.723  0.00  0.00    +0.000 C 
ENDBRANCH  25  26
ENDBRANCH  24  25
ENDBRANCH  23  24
ENDBRANCH  22  23
ENDBRANCH  19  22
ENDBRANCH   5  19
TORSDOF 15
ENDMDL
MODEL 8
REMARK VINA RESULT:      -6.6      3.360      4.868
REMARK  Name = 
REMARK  17 active torsions:
REMARK  status: ('A' for Active; 'I' for Inactive)
REMARK    1  A    between atoms: C_1  and  C_2
REMARK    2  A    between atoms: C_2  and  C_3
REMARK    3  A    between atoms: C_3  and  C_4
REMARK    4  A    between atoms: C_4  and  C_5
REMARK    5  A    between atoms: C_5  and  C_6
REMARK    6  A    between atoms: C_6  and  N_7
REMARK    7  A    between atoms: N_7  and  N_8
REMARK    8  A    between atoms: N_7  and  C_10
REMARK    9  A    between atoms: C_13  and  N_14
REMARK   10  A    between atoms: C_17  and  N_18
REMARK   11  A    between atoms: N_18  and  C_19
REMARK   12  A    between atoms: N_18  and  N_25
REMARK   13  A    between atoms: C_19  and  C_20
REMARK   14  A    between atoms: C_20  and  C_21
REMARK   15  A    between atoms: C_21  and  C_22
REMARK   16  A    between atoms: C_22  and  C_23
REMARK   17  A    between atoms: C_23  and  C_24
REMARK                            x       y       z     vdW  Elec       q    Type
REMARK                         _______ _______ _______ _____ _____    ______ ____
ROOT
ATOM      1  C   UNL     1       5.212   4.818  18.018  0.00  0.00    +0.000 A 
ATOM      2  C   UNL     1       4.711   3.540  18.291  0.00  0.00    +0.000 A 
ATOM      3  C   UNL     1       3.522   3.396  18.971  0.00  0.00    +0.000 A 
ATOM      4  C   UNL     1       2.821   4.545  19.408  0.00  0.00    +0.000 A 
ATOM      5  C   UNL     1       3.151   5.865  18.995  0.00  0.00    +0.000 A 
ATOM      6  C   UNL     1       4.405   5.937  18.351  0.00  0.00    +0.000 A 
ENDROOT
BRANCH   4   7
ATOM      7  N   UNL     1       1.897   4.199  20.490  0.00  0.00    +0.000 N 
ATOM      8  O   UNL     1       0.709   4.147  20.174  0.00  0.00    +0.000 OA
ATOM      9  O   UNL     1       2.348   4.190  21.636  0.00  0.00    +0.000 OA
ENDBRANCH   4   7
BRANCH   1  10
ATOM     10  N   UNL     1       6.470   4.935  17.369  0.00  0.00    +0.000 N 
BRANCH  10  11
ATOM     11  N   UNL     1       7.556   4.480  18.038  0.00  0.00    +0.000 NA
ATOM     12  O   UNL     1       7.882   5.187  19.006  0.00  0.00    +0.000 OA
ENDBRANCH  10  11
BRANCH  10  13
ATOM     13  C   UNL     1       6.512   5.829  16.182  0.00  0.00    +0.000 C 
BRANCH  13  14
ATOM     14  C   UNL     1       5.621   5.296  15.054  0.00  0.00    +0.000 C 
BRANCH  14  15
ATOM     15  C   UNL     1       6.072   3.938  14.509  0.00  0.00    +0.000 C 
BRANCH  15  16
ATOM     16  C   UNL     1       6.637   4.135  13.100  0.00  0.00    +0.000 C 
BRANCH  16  18
ATOM     17  C   UNL     1       4.588   3.378  11.875  0.00  0.00    +0.000 C 
ATOM     18  C   UNL     1       6.073   3.138  12.095  0.00  0.00    +0.000 C 
ENDBRANCH  16  18
ENDBRANCH  15  16
ENDBRANCH  14  15
ENDBRANCH  13  14
ENDBRANCH  10  13
ENDBRANCH   1  10
BRANCH   5  19
ATOM     19  N   UNL     1       2.384   7.066  19.187  0.00  0.00    +0.000 N 
BRANCH  19  20
ATOM     20  N   UNL     1       2.167   7.539  20.445  0.00  0.00    +0.000 NA
ATOM     21  O   UNL     1       0.986   7.465  20.809  0.00  0.00    +0.000 OA
ENDBRANCH  19  20
BRANCH  19  22
ATOM     22  C   UNL     1       2.055   7.932  17.982  0.00  0.00    +0.000 C 
BRANCH  22  23
ATOM     23  C   UNL     1       2.233   9.447  18.188  0.00  0.00    +0.000 C 
BRANCH  23  24
ATOM     24  C   UNL     1       0.987  10.331  18.214  0.00  0.00    +0.000 C 
BRANCH  24  25
ATOM     25  C   UNL     1      -0.306   9.584  17.922  0.00  0.00    +0.000 C 
BRANCH  25  26
ATOM     26  C   UNL     1      -1.529  10.331  18.453  0.00  0.00    +0.000 C 
ATOM     27  C   UNL     1      -2.779   9.938  17.678  0.00  0.00    +0.000 C 
ENDBRANCH  25  26
ENDBRANCH  24  25
ENDBRANCH  23  24
ENDBRANCH  22  23
ENDBRANCH  19  22
ENDBRANCH   5  19
TORSDOF 15
ENDMDL
MODEL 9
REMARK VINA RESULT:      -6.6      3.384      7.398
REMARK  Name = 
REMARK  17 active torsions:
REMARK  status: ('A' for Active; 'I' for Inactive)
REMARK    1  A    between atoms: C_1  and  C_2
REMARK    2  A    between atoms: C_2  and  C_3
REMARK    3  A    between atoms: C_3  and  C_4
REMARK    4  A    between atoms: C_4  and  C_5
REMARK    5  A    between atoms: C_5  and  C_6
REMARK    6  A    between atoms: C_6  and  N_7
REMARK    7  A    between atoms: N_7  and  N_8
REMARK    8  A    between atoms: N_7  and  C_10
REMARK    9  A    between atoms: C_13  and  N_14
REMARK   10  A    between atoms: C_17  and  N_18
REMARK   11  A    between atoms: N_18  and  C_19
REMARK   12  A    between atoms: N_18  and  N_25
REMARK   13  A    between atoms: C_19  and  C_20
REMARK   14  A    between atoms: C_20  and  C_21
REMARK   15  A    between atoms: C_21  and  C_22
REMARK   16  A    between atoms: C_22  and  C_23
REMARK   17  A    between atoms: C_23  and  C_24
REMARK                            x       y       z     vdW  Elec       q    Type
REMARK                         _______ _______ _______ _____ _____    ______ ____
ROOT
ATOM      1  C   UNL     1       3.757   4.107  18.928  0.00  0.00    +0.000 A 
ATOM      2  C   UNL     1       3.209   4.023  17.643  0.00  0.00    +0.000 A 
ATOM      3  C   UNL     1       3.941   4.436  16.552  0.00  0.00    +0.000 A 
ATOM      4  C   UNL     1       5.241   4.962  16.739  0.00  0.00    +0.000 A 
ATOM      5  C   UNL     1       5.942   4.889  17.973  0.00  0.00    +0.000 A 
ATOM      6  C   UNL     1       5.113   4.508  19.050  0.00  0.00    +0.000 A 
ENDROOT
BRANCH   4   7
ATOM      7  N   UNL     1       5.637   5.769  15.583  0.00  0.00    +0.000 N 
ATOM      8  O   UNL     1       5.049   6.843  15.463  0.00  0.00    +0.000 OA
ATOM      9  O   UNL     1       6.357   5.233  14.740  0.00  0.00    +0.000 OA
ENDBRANCH   4   7
BRANCH   1  10
ATOM     10  N   UNL     1       2.957   3.731  20.039  0.00  0.00    +0.000 N 
BRANCH  10  11
ATOM     11  N   UNL     1       2.455   2.473  20.042  0.00  0.00    +0.000 NA
ATOM     12  O   UNL     1       1.216   2.427  20.122  0.00  0.00    +0.000 OA
ENDBRANCH  10  11
BRANCH  10  13
ATOM     13  C   UNL     1       2.487   4.839  20.911  0.00  0.00    +0.000 C 
BRANCH  13  14
ATOM     14  C   UNL     1       1.570   5.799  20.143  0.00  0.00    +0.000 C 
BRANCH  14  15
ATOM     15  C   UNL     1       2.175   7.191  19.940  0.00  0.00    +0.000 C 
BRANCH  15  16
ATOM     16  C   UNL     1       2.533   7.363  18.462  0.00  0.00    +0.000 C 
BRANCH  16  18
ATOM     17  C   UNL     1       1.216   9.463  18.826  0.00  0.00    +0.000 C 
ATOM     18  C   UNL     1       2.244   8.768  17.947  0.00  0.00    +0.000 C 
ENDBRANCH  16  18
ENDBRANCH  15  16
ENDBRANCH  14  15
ENDBRANCH  13  14
ENDBRANCH  10  13
ENDBRANCH   1  10
BRANCH   5  19
ATOM     19  N   UNL     1       7.330   5.179  18.217  0.00  0.00    +0.000 N 
BRANCH  19  20
ATOM     20  N   UNL     1       8.287   4.295  17.825  0.00  0.00    +0.000 NA
ATOM     21  O   UNL     1       8.271   4.046  16.613  0.00  0.00    +0.000 OA
ENDBRANCH  19  20
BRANCH  19  22
ATOM     22  C   UNL     1       7.724   6.578  18.664  0.00  0.00    +0.000 C 
BRANCH  22  23
ATOM     23  C   UNL     1       7.326   7.714  17.706  0.00  0.00    +0.000 C 
BRANCH  23  24
ATOM     24  C   UNL     1       8.302   8.872  17.500  0.00  0.00    +0.000 C 
BRANCH  24  25
ATOM     25  C   UNL     1       8.784   9.509  18.795  0.00  0.00    +0.000 C 
BRANCH  25  26
ATOM     26  C   UNL     1       9.186  10.971  18.597  0.00  0.00    +0.000 C 
ATOM     27  C   UNL     1      10.583  11.224  19.144  0.00  0.00    +0.000 C 
ENDBRANCH  25  26
ENDBRANCH  24  25
ENDBRANCH  23  24
ENDBRANCH  22  23
ENDBRANCH  19  22
ENDBRANCH   5  19
TORSDOF 15
ENDMDL
