MODEL 1
REMARK VINA RESULT:      -5.7      0.000      0.000
REMARK  Name = 
REMARK  13 active torsions:
REMARK  status: ('A' for Active; 'I' for Inactive)
REMARK    1  A    between atoms: C_1  and  C_2
REMARK    2  A    between atoms: C_2  and  C_3
REMARK    3  A    between atoms: C_2  and  C_4
REMARK    4  A    between atoms: C_4  and  C_5
REMARK    5  A    between atoms: C_5  and  C_6
REMARK    6  A    between atoms: C_6  and  C_7
REMARK    7  A    between atoms: C_7  and  C_8
REMARK    8  A    between atoms: C_7  and  N_9
REMARK    9  A    between atoms: N_9  and  C_10
REMARK   10  A    between atoms: C_10  and  C_11
REMARK   11  A    between atoms: C_11  and  C_12
REMARK   12  A    between atoms: C_12  and  C_13
REMARK   13  A    between atoms: C_12  and  C_14
REMARK                            x       y       z     vdW  Elec       q    Type
REMARK                         _______ _______ _______ _____ _____    ______ ____
ROOT
ATOM      1  C   UNL     1       3.822   2.878  18.556  0.00  0.00    +0.000 C 
ATOM      2  C   UNL     1       3.837   1.401  18.144  0.00  0.00    +0.000 C 
ENDROOT
BRANCH   1   3
ATOM      3  N   UNL     1       5.221   3.295  18.762  0.00  0.00    +0.000 NA
ATOM      4  H   UNL     1       5.853   2.630  18.317  0.00  0.00    +0.000 HD
BRANCH   3   5
ATOM      5  C   UNL     1       5.466   4.644  18.250  0.00  0.00    +0.000 C 
BRANCH   5   6
ATOM      6  C   UNL     1       6.745   4.720  17.416  0.00  0.00    +0.000 C 
BRANCH   6   7
ATOM      7  C   UNL     1       6.435   5.082  15.948  0.00  0.00    +0.000 C 
ATOM      8  C   UNL     1       6.028   3.862  15.119  0.00  0.00    +0.000 C 
ATOM      9  C   UNL     1       5.343   6.150  15.882  0.00  0.00    +0.000 C 
ENDBRANCH   6   7
ENDBRANCH   5   6
ENDBRANCH   3   5
ENDBRANCH   1   3
BRANCH   1  10
ATOM     10  C   UNL     1       3.108   3.756  17.506  0.00  0.00    +0.000 C 
BRANCH  10  11
ATOM     11  C   UNL     1       1.750   4.271  17.979  0.00  0.00    +0.000 C 
BRANCH  11  12
ATOM     12  C   UNL     1       1.104   3.299  18.968  0.00  0.00    +0.000 C 
BRANCH  12  14
ATOM     13  C   UNL     1       1.383   2.859  21.424  0.00  0.00    +0.000 C 
ATOM     14  C   UNL     1       0.955   3.893  20.379  0.00  0.00    +0.000 C 
ATOM     15  C   UNL     1       1.766   5.178  20.559  0.00  0.00    +0.000 C 
ENDBRANCH  12  14
ENDBRANCH  11  12
ENDBRANCH  10  11
ENDBRANCH   1  10
TORSDOF 8
ENDMDL
MODEL 2
REMARK VINA RESULT:      -5.6      1.124      1.592
REMARK  Name = 
REMARK  13 active torsions:
REMARK  status: ('A' for Active; 'I' for Inactive)
REMARK    1  A    between atoms: C_1  and  C_2
REMARK    2  A    between atoms: C_2  and  C_3
REMARK    3  A    between atoms: C_2  and  C_4
REMARK    4  A    between atoms: C_4  and  C_5
REMARK    5  A    between atoms: C_5  and  C_6
REMARK    6  A    between atoms: C_6  and  C_7
REMARK    7  A    between atoms: C_7  and  C_8
REMARK    8  A    between atoms: C_7  and  N_9
REMARK    9  A    between atoms: N_9  and  C_10
REMARK   10  A    between atoms: C_10  and  C_11
REMARK   11  A    between atoms: C_11  and  C_12
REMARK   12  A    between atoms: C_12  and  C_13
REMARK   13  A    between atoms: C_12  and  C_14
REMARK                            x       y       z     vdW  Elec       q    Type
REMARK                         _______ _______ _______ _____ _____    ______ ____
ROOT
ATOM      1  C   UNL     1       3.757   2.943  18.128  0.00  0.00    +0.000 C 
ATOM      2  C   UNL     1       3.805   1.431  18.376  0.00  0.00    +0.000 C 
ENDROOT
BRANCH   1   3
ATOM      3  N   UNL     1       5.012   3.323  17.455  0.00  0.00    +0.000 NA
ATOM      4  H   UNL     1       5.602   2.501  17.327  0.00  0.00    +0.000 HD
BRANCH   3   5
ATOM      5  C   UNL     1       4.762   3.968  16.166  0.00  0.00    +0.000 C 
BRANCH   5   6
ATOM      6  C   UNL     1       5.568   5.257  16.000  0.00  0.00    +0.000 C 
BRANCH   6   7
ATOM      7  C   UNL     1       5.551   6.097  17.294  0.00  0.00    +0.000 C 
ATOM      8  C   UNL     1       6.750   7.044  17.391  0.00  0.00    +0.000 C 
ATOM      9  C   UNL     1       4.247   6.888  17.400  0.00  0.00    +0.000 C 
ENDBRANCH   6   7
ENDBRANCH   5   6
ENDBRANCH   3   5
ENDBRANCH   1   3
BRANCH   1  10
ATOM     10  C   UNL     1       2.515   3.347  17.305  0.00  0.00    +0.000 C 
BRANCH  10  11
ATOM     11  C   UNL     1       1.489   4.137  18.114  0.00  0.00    +0.000 C 
BRANCH  11  12
ATOM     12  C   UNL     1       0.876   3.276  19.220  0.00  0.00    +0.000 C 
BRANCH  12  14
ATOM     13  C   UNL     1       1.772   2.836  21.523  0.00  0.00    +0.000 C 
ATOM     14  C   UNL     1       1.087   3.867  20.624  0.00  0.00    +0.000 C 
ATOM     15  C   UNL     1       1.908   5.157  20.596  0.00  0.00    +0.000 C 
ENDBRANCH  12  14
ENDBRANCH  11  12
ENDBRANCH  10  11
ENDBRANCH   1  10
TORSDOF 8
ENDMDL
MODEL 3
REMARK VINA RESULT:      -5.5      1.419      2.212
REMARK  Name = 
REMARK  13 active torsions:
REMARK  status: ('A' for Active; 'I' for Inactive)
REMARK    1  A    between atoms: C_1  and  C_2
REMARK    2  A    between atoms: C_2  and  C_3
REMARK    3  A    between atoms: C_2  and  C_4
REMARK    4  A    between atoms: C_4  and  C_5
REMARK    5  A    between atoms: C_5  and  C_6
REMARK    6  A    between atoms: C_6  and  C_7
REMARK    7  A    between atoms: C_7  and  C_8
REMARK    8  A    between atoms: C_7  and  N_9
REMARK    9  A    between atoms: N_9  and  C_10
REMARK   10  A    between atoms: C_10  and  C_11
REMARK   11  A    between atoms: C_11  and  C_12
REMARK   12  A    between atoms: C_12  and  C_13
REMARK   13  A    between atoms: C_12  and  C_14
REMARK                            x       y       z     vdW  Elec       q    Type
REMARK                         _______ _______ _______ _____ _____    ______ ____
ROOT
ATOM      1  C   UNL     1       3.675   3.860  17.184  0.00  0.00    +0.000 C 
ATOM      2  C   UNL     1       3.472   5.302  17.663  0.00  0.00    +0.000 C 
ENDROOT
BRANCH   1   3
ATOM      3  N   UNL     1       4.874   3.332  17.860  0.00  0.00    +0.000 NA
ATOM      4  H   UNL     1       5.412   2.754  17.215  0.00  0.00    +0.000 HD
BRANCH   3   5
ATOM      5  C   UNL     1       5.713   4.407  18.392  0.00  0.00    +0.000 C 
BRANCH   5   6
ATOM      6  C   UNL     1       6.884   4.736  17.465  0.00  0.00    +0.000 C 
BRANCH   6   7
ATOM      7  C   UNL     1       7.778   5.841  18.065  0.00  0.00    +0.000 C 
ATOM      8  C   UNL     1       7.414   7.234  17.546  0.00  0.00    +0.000 C 
ATOM      9  C   UNL     1       7.707   5.815  19.592  0.00  0.00    +0.000 C 
ENDBRANCH   6   7
ENDBRANCH   5   6
ENDBRANCH   3   5
ENDBRANCH   1   3
BRANCH   1  10
ATOM     10  C   UNL     1       2.430   2.988  17.455  0.00  0.00    +0.000 C 
BRANCH  10  11
ATOM     11  C   UNL     1       1.341   3.723  18.234  0.00  0.00    +0.000 C 
BRANCH  11  12
ATOM     12  C   UNL     1       0.860   2.894  19.427  0.00  0.00    +0.000 C 
BRANCH  12  14
ATOM     13  C   UNL     1       2.383   2.781  21.419  0.00  0.00    +0.000 C 
ATOM     14  C   UNL     1       1.213   3.533  20.781  0.00  0.00    +0.000 C 
ATOM     15  C   UNL     1       1.559   5.017  20.652  0.00  0.00    +0.000 C 
ENDBRANCH  12  14
ENDBRANCH  11  12
ENDBRANCH  10  11
ENDBRANCH   1  10
TORSDOF 8
ENDMDL
MODEL 4
REMARK VINA RESULT:      -5.5      2.030      5.910
REMARK  Name = 
REMARK  13 active torsions:
REMARK  status: ('A' for Active; 'I' for Inactive)
REMARK    1  A    between atoms: C_1  and  C_2
REMARK    2  A    between atoms: C_2  and  C_3
REMARK    3  A    between atoms: C_2  and  C_4
REMARK    4  A    between atoms: C_4  and  C_5
REMARK    5  A    between atoms: C_5  and  C_6
REMARK    6  A    between atoms: C_6  and  C_7
REMARK    7  A    between atoms: C_7  and  C_8
REMARK    8  A    between atoms: C_7  and  N_9
REMARK    9  A    between atoms: N_9  and  C_10
REMARK   10  A    between atoms: C_10  and  C_11
REMARK   11  A    between atoms: C_11  and  C_12
REMARK   12  A    between atoms: C_12  and  C_13
REMARK   13  A    between atoms: C_12  and  C_14
REMARK                            x       y       z     vdW  Elec       q    Type
REMARK                         _______ _______ _______ _____ _____    ______ ____
ROOT
ATOM      1  C   UNL     1       7.067   4.674  17.557  0.00  0.00    +0.000 C 
ATOM      2  C   UNL     1       7.751   5.865  18.240  0.00  0.00    +0.000 C 
ENDROOT
BRANCH   1   3
ATOM      3  N   UNL     1       6.093   4.115  18.512  0.00  0.00    +0.000 NA
ATOM      4  H   UNL     1       6.559   3.470  19.149  0.00  0.00    +0.000 HD
BRANCH   3   5
ATOM      5  C   UNL     1       5.412   5.166  19.269  0.00  0.00    +0.000 C 
BRANCH   5   6
ATOM      6  C   UNL     1       3.904   4.929  19.357  0.00  0.00    +0.000 C 
BRANCH   6   7
ATOM      7  C   UNL     1       3.204   5.284  18.028  0.00  0.00    +0.000 C 
ATOM      8  C   UNL     1       1.948   4.444  17.787  0.00  0.00    +0.000 C 
ATOM      9  C   UNL     1       2.856   6.772  17.989  0.00  0.00    +0.000 C 
ENDBRANCH   6   7
ENDBRANCH   5   6
ENDBRANCH   3   5
ENDBRANCH   1   3
BRANCH   1  10
ATOM     10  C   UNL     1       6.401   5.085  16.227  0.00  0.00    +0.000 C 
BRANCH  10  11
ATOM     11  C   UNL     1       6.052   3.893  15.337  0.00  0.00    +0.000 C 
BRANCH  11  12
ATOM     12  C   UNL     1       5.504   4.355  13.985  0.00  0.00    +0.000 C 
BRANCH  12  14
ATOM     13  C   UNL     1       4.852   3.209  11.850  0.00  0.00    +0.000 C 
ATOM     14  C   UNL     1       6.006   3.496  12.812  0.00  0.00    +0.000 C 
ATOM     15  C   UNL     1       7.159   4.160  12.056  0.00  0.00    +0.000 C 
ENDBRANCH  12  14
ENDBRANCH  11  12
ENDBRANCH  10  11
ENDBRANCH   1  10
TORSDOF 8
ENDMDL
MODEL 5
REMARK VINA RESULT:      -5.4      1.394      2.158
REMARK  Name = 
REMARK  13 active torsions:
REMARK  status: ('A' for Active; 'I' for Inactive)
REMARK    1  A    between atoms: C_1  and  C_2
REMARK    2  A    between atoms: C_2  and  C_3
REMARK    3  A    between atoms: C_2  and  C_4
REMARK    4  A    between atoms: C_4  and  C_5
REMARK    5  A    between atoms: C_5  and  C_6
REMARK    6  A    between atoms: C_6  and  C_7
REMARK    7  A    between atoms: C_7  and  C_8
REMARK    8  A    between atoms: C_7  and  N_9
REMARK    9  A    between atoms: N_9  and  C_10
REMARK   10  A    between atoms: C_10  and  C_11
REMARK   11  A    between atoms: C_11  and  C_12
REMARK   12  A    between atoms: C_12  and  C_13
REMARK   13  A    between atoms: C_12  and  C_14
REMARK                            x       y       z     vdW  Elec       q    Type
REMARK                         _______ _______ _______ _____ _____    ______ ____
ROOT
ATOM      1  C   UNL     1       3.989   4.123  17.626  0.00  0.00    +0.000 C 
ATOM      2  C   UNL     1       4.227   4.341  19.125  0.00  0.00    +0.000 C 
ENDROOT
BRANCH   1   3
ATOM      3  N   UNL     1       5.189   3.467  17.076  0.00  0.00    +0.000 NA
ATOM      4  H   UNL     1       4.918   2.672  16.498  0.00  0.00    +0.000 HD
BRANCH   3   5
ATOM      5  C   UNL     1       6.009   4.398  16.301  0.00  0.00    +0.000 C 
BRANCH   5   6
ATOM      6  C   UNL     1       7.306   4.762  17.023  0.00  0.00    +0.000 C 
BRANCH   6   7
ATOM      7  C   UNL     1       7.088   5.925  18.014  0.00  0.00    +0.000 C 
ATOM      8  C   UNL     1       7.803   5.698  19.348  0.00  0.00    +0.000 C 
ATOM      9  C   UNL     1       7.540   7.247  17.394  0.00  0.00    +0.000 C 
ENDBRANCH   6   7
ENDBRANCH   5   6
ENDBRANCH   3   5
ENDBRANCH   1   3
BRANCH   1  10
ATOM     10  C   UNL     1       2.711   3.297  17.366  0.00  0.00    +0.000 C 
BRANCH  10  11
ATOM     11  C   UNL     1       2.379   2.331  18.502  0.00  0.00    +0.000 C 
BRANCH  11  12
ATOM     12  C   UNL     1       0.937   2.516  18.981  0.00  0.00    +0.000 C 
BRANCH  12  14
ATOM     13  C   UNL     1       1.914   2.489  21.292  0.00  0.00    +0.000 C 
ATOM     14  C   UNL     1       0.849   3.119  20.393  0.00  0.00    +0.000 C 
ATOM     15  C   UNL     1       1.007   4.640  20.388  0.00  0.00    +0.000 C 
ENDBRANCH  12  14
ENDBRANCH  11  12
ENDBRANCH  10  11
ENDBRANCH   1  10
TORSDOF 8
ENDMDL
MODEL 6
REMARK VINA RESULT:      -5.4      1.441      5.457
REMARK  Name = 
REMARK  13 active torsions:
REMARK  status: ('A' for Active; 'I' for Inactive)
REMARK    1  A    between atoms: C_1  and  C_2
REMARK    2  A    between atoms: C_2  and  C_3
REMARK    3  A    between atoms: C_2  and  C_4
REMARK    4  A    between atoms: C_4  and  C_5
REMARK    5  A    between atoms: C_5  and  C_6
REMARK    6  A    between atoms: C_6  and  C_7
REMARK    7  A    between atoms: C_7  and  C_8
REMARK    8  A    between atoms: C_7  and  N_9
REMARK    9  A    between atoms: N_9  and  C_10
REMARK   10  A    between atoms: C_10  and  C_11
REMARK   11  A    between atoms: C_11  and  C_12
REMARK   12  A    between atoms: C_12  and  C_13
REMARK   13  A    between atoms: C_12  and  C_14
REMARK                            x       y       z     vdW  Elec       q    Type
REMARK                         _______ _______ _______ _____ _____    ______ ____
ROOT
ATOM      1  C   UNL     1       2.977   2.117  17.538  0.00  0.00    +0.000 C 
ATOM      2  C   UNL     1       3.742   1.430  18.675  0.00  0.00    +0.000 C 
ENDROOT
BRANCH   1   3
ATOM      3  N   UNL     1       1.545   2.092  17.887  0.00  0.00    +0.000 NA
ATOM      4  H   UNL     1       1.099   1.274  17.472  0.00  0.00    +0.000 HD
BRANCH   3   5
ATOM      5  C   UNL     1       1.340   2.095  19.336  0.00  0.00    +0.000 C 
BRANCH   5   6
ATOM      6  C   UNL     1       0.651   3.372  19.818  0.00  0.00    +0.000 C 
BRANCH   6   7
ATOM      7  C   UNL     1       1.449   4.043  20.955  0.00  0.00    +0.000 C 
ATOM      8  C   UNL     1       2.357   3.056  21.693  0.00  0.00    +0.000 C 
ATOM      9  C   UNL     1       2.273   5.210  20.413  0.00  0.00    +0.000 C 
ENDBRANCH   6   7
ENDBRANCH   5   6
ENDBRANCH   3   5
ENDBRANCH   1   3
BRANCH   1  10
ATOM     10  C   UNL     1       3.486   3.554  17.295  0.00  0.00    +0.000 C 
BRANCH  10  11
ATOM     11  C   UNL     1       4.721   3.902  18.124  0.00  0.00    +0.000 C 
BRANCH  11  12
ATOM     12  C   UNL     1       5.777   4.608  17.271  0.00  0.00    +0.000 C 
BRANCH  12  14
ATOM     13  C   UNL     1       5.238   6.486  15.696  0.00  0.00    +0.000 C 
ATOM     14  C   UNL     1       5.269   4.966  15.864  0.00  0.00    +0.000 C 
ATOM     15  C   UNL     1       6.123   4.339  14.760  0.00  0.00    +0.000 C 
ENDBRANCH  12  14
ENDBRANCH  11  12
ENDBRANCH  10  11
ENDBRANCH   1  10
TORSDOF 8
ENDMDL
MODEL 7
REMARK VINA RESULT:      -5.4      1.412      2.163
REMARK  Name = 
REMARK  13 active torsions:
REMARK  status: ('A' for Active; 'I' for Inactive)
REMARK    1  A    between atoms: C_1  and  C_2
REMARK    2  A    between atoms: C_2  and  C_3
REMARK    3  A    between atoms: C_2  and  C_4
REMARK    4  A    between atoms: C_4  and  C_5
REMARK    5  A    between atoms: C_5  and  C_6
REMARK    6  A    between atoms: C_6  and  C_7
REMARK    7  A    between atoms: C_7  and  C_8
REMARK    8  A    between atoms: C_7  and  N_9
REMARK    9  A    between atoms: N_9  and  C_10
REMARK   10  A    between atoms: C_10  and  C_11
REMARK   11  A    between atoms: C_11  and  C_12
REMARK   12  A    between atoms: C_12  and  C_13
REMARK   13  A    between atoms: C_12  and  C_14
REMARK                            x       y       z     vdW  Elec       q    Type
REMARK                         _______ _______ _______ _____ _____    ______ ____
ROOT
ATOM      1  C   UNL     1       3.935   3.306  18.068  0.00  0.00    +0.000 C 
ATOM      2  C   UNL     1       3.777   1.791  18.238  0.00  0.00    +0.000 C 
ENDROOT
BRANCH   1   3
ATOM      3  N   UNL     1       5.263   3.550  17.475  0.00  0.00    +0.000 NA
ATOM      4  H   UNL     1       5.469   2.837  16.776  0.00  0.00    +0.000 HD
BRANCH   3   5
ATOM      5  C   UNL     1       5.353   4.883  16.878  0.00  0.00    +0.000 C 
BRANCH   5   6
ATOM      6  C   UNL     1       5.758   5.946  17.899  0.00  0.00    +0.000 C 
BRANCH   6   7
ATOM      7  C   UNL     1       7.281   6.196  17.872  0.00  0.00    +0.000 C 
ATOM      8  C   UNL     1       7.628   7.654  17.564  0.00  0.00    +0.000 C 
ATOM      9  C   UNL     1       7.914   5.773  19.197  0.00  0.00    +0.000 C 
ENDBRANCH   6   7
ENDBRANCH   5   6
ENDBRANCH   3   5
ENDBRANCH   1   3
BRANCH   1  10
ATOM     10  C   UNL     1       2.801   3.904  17.208  0.00  0.00    +0.000 C 
BRANCH  10  11
ATOM     11  C   UNL     1       1.788   4.705  18.023  0.00  0.00    +0.000 C 
BRANCH  11  12
ATOM     12  C   UNL     1       2.237   4.844  19.479  0.00  0.00    +0.000 C 
BRANCH  12  14
ATOM     13  C   UNL     1       0.573   2.980  19.720  0.00  0.00    +0.000 C 
ATOM     14  C   UNL     1       1.327   4.086  20.461  0.00  0.00    +0.000 C 
ATOM     15  C   UNL     1       2.107   3.486  21.633  0.00  0.00    +0.000 C 
ENDBRANCH  12  14
ENDBRANCH  11  12
ENDBRANCH  10  11
ENDBRANCH   1  10
TORSDOF 8
ENDMDL
MODEL 8
REMARK VINA RESULT:      -5.4      1.779      2.804
REMARK  Name = 
REMARK  13 active torsions:
REMARK  status: ('A' for Active; 'I' for Inactive)
REMARK    1  A    between atoms: C_1  and  C_2
REMARK    2  A    between atoms: C_2  and  C_3
REMARK    3  A    between atoms: C_2  and  C_4
REMARK    4  A    between atoms: C_4  and  C_5
REMARK    5  A    between atoms: C_5  and  C_6
REMARK    6  A    between atoms: C_6  and  C_7
REMARK    7  A    between atoms: C_7  and  C_8
REMARK    8  A    between atoms: C_7  and  N_9
REMARK    9  A    between atoms: N_9  and  C_10
REMARK   10  A    between atoms: C_10  and  C_11
REMARK   11  A    between atoms: C_11  and  C_12
REMARK   12  A    between atoms: C_12  and  C_13
REMARK   13  A    between atoms: C_12  and  C_14
REMARK                            x       y       z     vdW  Elec       q    Type
REMARK                         _______ _______ _______ _____ _____    ______ ____
ROOT
ATOM      1  C   UNL     1       4.735   4.504  16.866  0.00  0.00    +0.000 C 
ATOM      2  C   UNL     1       5.617   5.651  17.375  0.00  0.00    +0.000 C 
ENDROOT
BRANCH   1   3
ATOM      3  N   UNL     1       5.629   3.471  16.309  0.00  0.00    +0.000 NA
ATOM      4  H   UNL     1       5.088   2.648  16.045  0.00  0.00    +0.000 HD
BRANCH   3   5
ATOM      5  C   UNL     1       6.383   3.969  15.159  0.00  0.00    +0.000 C 
BRANCH   5   6
ATOM      6  C   UNL     1       5.474   4.306  13.976  0.00  0.00    +0.000 C 
BRANCH   6   7
ATOM      7  C   UNL     1       5.812   3.436  12.747  0.00  0.00    +0.000 C 
ATOM      8  C   UNL     1       4.645   3.341  11.760  0.00  0.00    +0.000 C 
ATOM      9  C   UNL     1       7.055   3.974  12.038  0.00  0.00    +0.000 C 
ENDBRANCH   6   7
ENDBRANCH   5   6
ENDBRANCH   3   5
ENDBRANCH   1   3
BRANCH   1  10
ATOM     10  C   UNL     1       3.829   3.943  17.982  0.00  0.00    +0.000 C 
BRANCH  10  11
ATOM     11  C   UNL     1       2.444   4.586  18.011  0.00  0.00    +0.000 C 
BRANCH  11  12
ATOM     12  C   UNL     1       1.413   3.648  18.642  0.00  0.00    +0.000 C 
BRANCH  12  14
ATOM     13  C   UNL     1       1.396   2.905  21.039  0.00  0.00    +0.000 C 
ATOM     14  C   UNL     1       1.045   4.045  20.082  0.00  0.00    +0.000 C 
ATOM     15  C   UNL     1       1.744   5.331  20.528  0.00  0.00    +0.000 C 
ENDBRANCH  12  14
ENDBRANCH  11  12
ENDBRANCH  10  11
ENDBRANCH   1  10
TORSDOF 8
ENDMDL
MODEL 9
REMARK VINA RESULT:      -5.3      1.797      5.822
REMARK  Name = 
REMARK  13 active torsions:
REMARK  status: ('A' for Active; 'I' for Inactive)
REMARK    1  A    between atoms: C_1  and  C_2
REMARK    2  A    between atoms: C_2  and  C_3
REMARK    3  A    between atoms: C_2  and  C_4
REMARK    4  A    between atoms: C_4  and  C_5
REMARK    5  A    between atoms: C_5  and  C_6
REMARK    6  A    between atoms: C_6  and  C_7
REMARK    7  A    between atoms: C_7  and  C_8
REMARK    8  A    between atoms: C_7  and  N_9
REMARK    9  A    between atoms: N_9  and  C_10
REMARK   10  A    between atoms: C_10  and  C_11
REMARK   11  A    between atoms: C_11  and  C_12
REMARK   12  A    between atoms: C_12  and  C_13
REMARK   13  A    between atoms: C_12  and  C_14
REMARK                            x       y       z     vdW  Elec       q    Type
REMARK                         _______ _______ _______ _____ _____    ______ ____
ROOT
ATOM      1  C   UNL     1       4.422   3.957  17.298  0.00  0.00    +0.000 C 
ATOM      2  C   UNL     1       5.092   3.903  18.676  0.00  0.00    +0.000 C 
ENDROOT
BRANCH   1   3
ATOM      3  N   UNL     1       3.125   3.264  17.407  0.00  0.00    +0.000 NA
ATOM      4  H   UNL     1       3.131   2.419  16.836  0.00  0.00    +0.000 HD
BRANCH   3   5
ATOM      5  C   UNL     1       2.804   2.932  18.795  0.00  0.00    +0.000 C 
BRANCH   5   6
ATOM      6  C   UNL     1       1.335   3.197  19.127  0.00  0.00    +0.000 C 
BRANCH   6   7
ATOM      7  C   UNL     1       1.173   3.724  20.568  0.00  0.00    +0.000 C 
ATOM      8  C   UNL     1       1.584   2.690  21.618  0.00  0.00    +0.000 C 
ATOM      9  C   UNL     1       1.974   5.012  20.758  0.00  0.00    +0.000 C 
ENDBRANCH   6   7
ENDBRANCH   5   6
ENDBRANCH   3   5
ENDBRANCH   1   3
BRANCH   1  10
ATOM     10  C   UNL     1       4.260   5.408  16.798  0.00  0.00    +0.000 C 
BRANCH  10  11
ATOM     11  C   UNL     1       5.571   6.028  16.321  0.00  0.00    +0.000 C 
BRANCH  11  12
ATOM     12  C   UNL     1       6.013   7.166  17.244  0.00  0.00    +0.000 C 
BRANCH  12  14
ATOM     13  C   UNL     1       8.018   8.590  17.743  0.00  0.00    +0.000 C 
ATOM     14  C   UNL     1       7.526   7.159  17.520  0.00  0.00    +0.000 C 
ATOM     15  C   UNL     1       7.895   6.289  18.723  0.00  0.00    +0.000 C 
ENDBRANCH  12  14
ENDBRANCH  11  12
ENDBRANCH  10  11
ENDBRANCH   1  10
TORSDOF 8
ENDMDL
