MODEL 1
REMARK VINA RESULT:      -8.3      0.000      0.000
REMARK  Name = 
REMARK  6 active torsions:
REMARK  status: ('A' for Active; 'I' for Inactive)
REMARK    1  A    between atoms: C_1  and  C_2
REMARK    2  A    between atoms: C_2  and  C_3
REMARK    3  A    between atoms: C_2  and  C_4
REMARK    4  A    between atoms: C_4  and  N_5
REMARK    5  A    between atoms: C_12  and  C_13
REMARK    6  A    between atoms: C_14  and  C_15
REMARK                            x       y       z     vdW  Elec       q    Type
REMARK                         _______ _______ _______ _____ _____    ______ ____
ROOT
ATOM      1  N   UNL     1       0.661  10.434  19.172  0.00  0.00    +0.000 N 
ATOM      2  C   UNL     1      -0.379  10.463  20.095  0.00  0.00    +0.000 A 
ATOM      3  N   UNL     1      -1.349  11.390  20.095  0.00  0.00    +0.000 N 
ATOM      4  N   UNL     1      -0.259   9.496  20.963  0.00  0.00    +0.000 NA
ATOM      5  C   UNL     1       0.774   8.715  20.513  0.00  0.00    +0.000 A 
ATOM      6  C   UNL     1       1.258   7.512  21.070  0.00  0.00    +0.000 A 
ATOM      7  C   UNL     1       2.193   6.727  20.378  0.00  0.00    +0.000 A 
ATOM      8  C   UNL     1       2.648   7.129  19.128  0.00  0.00    +0.000 A 
ATOM      9  C   UNL     1       2.290   8.449  18.646  0.00  0.00    +0.000 A 
ATOM     10  C   UNL     1       1.323   9.214  19.337  0.00  0.00    +0.000 A 
ATOM     11  H   UNL     1      -1.475  12.121  19.415  0.00  0.00    +0.000 HD
ATOM     12  H   UNL     1      -2.070  11.308  20.802  0.00  0.00    +0.000 HD
ENDROOT
BRANCH   8  13
ATOM     13  C   UNL     1       3.413   6.217  18.221  0.00  0.00    +0.000 A 
ATOM     14  C   UNL     1       3.060   4.899  17.914  0.00  0.00    +0.000 A 
ATOM     15  N   UNL     1       3.716   4.477  16.774  0.00  0.00    +0.000 NA
ATOM     16  C   UNL     1       4.746   5.309  16.728  0.00  0.00    +0.000 A 
ATOM     17  S   UNL     1       6.374   4.804  16.272  0.00  0.00    +0.000 S 
ATOM     18  C   UNL     1       6.768   4.833  17.983  0.00  0.00    +0.000 A 
ATOM     19  C   UNL     1       5.877   5.542  18.720  0.00  0.00    +0.000 A 
ATOM     20  N   UNL     1       4.773   5.978  17.952  0.00  0.00    +0.000 N 
BRANCH  14  21
ATOM     21  C   UNL     1       2.537   4.029  18.962  0.00  0.00    +0.000 A 
ATOM     22  C   UNL     1       1.193   3.718  19.049  0.00  0.00    +0.000 A 
ATOM     23  C   UNL     1       0.739   3.005  20.160  0.00  0.00    +0.000 A 
ATOM     24  C   UNL     1       1.621   2.604  21.154  0.00  0.00    +0.000 A 
ATOM     25  F   UNL     1       1.151   1.970  22.245  0.00  0.00    +0.000 F 
ATOM     26  C   UNL     1       2.971   2.852  21.058  0.00  0.00    +0.000 A 
ATOM     27  C   UNL     1       3.432   3.526  19.943  0.00  0.00    +0.000 A 
ENDBRANCH  14  21
ENDBRANCH   8  13
BRANCH   1  28
ATOM     28  C   UNL     1       0.905  11.505  18.210  0.00  0.00    +0.000 C 
BRANCH  28  30
ATOM     29  C   UNL     1       2.830  13.172  18.175  0.00  0.00    +0.000 C 
ATOM     30  C   UNL     1       1.468  12.830  18.801  0.00  0.00    +0.000 C 
ATOM     31  C   UNL     1       0.572  14.065  18.632  0.00  0.00    +0.000 C 
ENDBRANCH  28  30
ENDBRANCH   1  28
TORSDOF 4
ENDMDL
MODEL 2
REMARK VINA RESULT:      -8.0      2.786      4.564
REMARK  Name = 
REMARK  6 active torsions:
REMARK  status: ('A' for Active; 'I' for Inactive)
REMARK    1  A    between atoms: C_1  and  C_2
REMARK    2  A    between atoms: C_2  and  C_3
REMARK    3  A    between atoms: C_2  and  C_4
REMARK    4  A    between atoms: C_4  and  N_5
REMARK    5  A    between atoms: C_12  and  C_13
REMARK    6  A    between atoms: C_14  and  C_15
REMARK                            x       y       z     vdW  Elec       q    Type
REMARK                         _______ _______ _______ _____ _____    ______ ____
ROOT
ATOM      1  N   UNL     1       0.482  10.619  19.753  0.00  0.00    +0.000 N 
ATOM      2  C   UNL     1       1.077  11.735  19.175  0.00  0.00    +0.000 A 
ATOM      3  N   UNL     1       0.802  12.998  19.536  0.00  0.00    +0.000 N 
ATOM      4  N   UNL     1       1.903  11.384  18.228  0.00  0.00    +0.000 NA
ATOM      5  C   UNL     1       1.985  10.017  18.290  0.00  0.00    +0.000 A 
ATOM      6  C   UNL     1       2.795   9.161  17.513  0.00  0.00    +0.000 A 
ATOM      7  C   UNL     1       2.914   7.799  17.835  0.00  0.00    +0.000 A 
ATOM      8  C   UNL     1       2.234   7.284  18.931  0.00  0.00    +0.000 A 
ATOM      9  C   UNL     1       1.265   8.122  19.611  0.00  0.00    +0.000 A 
ATOM     10  C   UNL     1       1.181   9.497  19.298  0.00  0.00    +0.000 A 
ATOM     11  H   UNL     1       0.195  13.284  20.286  0.00  0.00    +0.000 HD
ATOM     12  H   UNL     1       1.306  13.737  19.063  0.00  0.00    +0.000 HD
ENDROOT
BRANCH   8  13
ATOM     13  C   UNL     1       2.532   5.929  19.496  0.00  0.00    +0.000 A 
ATOM     14  C   UNL     1       3.767   5.276  19.420  0.00  0.00    +0.000 A 
ATOM     15  N   UNL     1       3.832   4.262  20.355  0.00  0.00    +0.000 NA
ATOM     16  C   UNL     1       2.550   4.026  20.593  0.00  0.00    +0.000 A 
ATOM     17  S   UNL     1       1.891   2.403  20.804  0.00  0.00    +0.000 S 
ATOM     18  C   UNL     1       1.289   2.528  19.159  0.00  0.00    +0.000 A 
ATOM     19  C   UNL     1       1.252   3.805  18.704  0.00  0.00    +0.000 A 
ATOM     20  N   UNL     1       1.831   4.717  19.617  0.00  0.00    +0.000 N 
BRANCH  14  21
ATOM     21  C   UNL     1       4.548   5.348  18.191  0.00  0.00    +0.000 A 
ATOM     22  C   UNL     1       4.189   4.646  17.056  0.00  0.00    +0.000 A 
ATOM     23  C   UNL     1       5.061   4.640  15.965  0.00  0.00    +0.000 A 
ATOM     24  C   UNL     1       6.262   5.334  16.015  0.00  0.00    +0.000 A 
ATOM     25  F   UNL     1       7.114   5.265  14.974  0.00  0.00    +0.000 F 
ATOM     26  C   UNL     1       6.612   6.086  17.112  0.00  0.00    +0.000 A 
ATOM     27  C   UNL     1       5.737   6.125  18.182  0.00  0.00    +0.000 A 
ENDBRANCH  14  21
ENDBRANCH   8  13
BRANCH   1  28
ATOM     28  C   UNL     1      -0.630  10.706  20.696  0.00  0.00    +0.000 C 
BRANCH  28  30
ATOM     29  C   UNL     1      -1.254  11.596  22.999  0.00  0.00    +0.000 C 
ATOM     30  C   UNL     1      -0.238  10.762  22.201  0.00  0.00    +0.000 C 
ATOM     31  C   UNL     1      -0.118   9.403  22.906  0.00  0.00    +0.000 C 
ENDBRANCH  28  30
ENDBRANCH   1  28
TORSDOF 4
ENDMDL
MODEL 3
REMARK VINA RESULT:      -7.8      6.873      9.532
REMARK  Name = 
REMARK  6 active torsions:
REMARK  status: ('A' for Active; 'I' for Inactive)
REMARK    1  A    between atoms: C_1  and  C_2
REMARK    2  A    between atoms: C_2  and  C_3
REMARK    3  A    between atoms: C_2  and  C_4
REMARK    4  A    between atoms: C_4  and  N_5
REMARK    5  A    between atoms: C_12  and  C_13
REMARK    6  A    between atoms: C_14  and  C_15
REMARK                            x       y       z     vdW  Elec       q    Type
REMARK                         _______ _______ _______ _____ _____    ______ ____
ROOT
ATOM      1  N   UNL     1      -5.844  11.309  18.982  0.00  0.00    +0.000 N 
ATOM      2  C   UNL     1      -6.812  10.492  19.554  0.00  0.00    +0.000 A 
ATOM      3  N   UNL     1      -7.349   9.428  18.937  0.00  0.00    +0.000 N 
ATOM      4  N   UNL     1      -7.139  10.918  20.743  0.00  0.00    +0.000 NA
ATOM      5  C   UNL     1      -6.260  11.929  21.033  0.00  0.00    +0.000 A 
ATOM      6  C   UNL     1      -6.159  12.675  22.227  0.00  0.00    +0.000 A 
ATOM      7  C   UNL     1      -5.074  13.540  22.442  0.00  0.00    +0.000 A 
ATOM      8  C   UNL     1      -4.084  13.665  21.476  0.00  0.00    +0.000 A 
ATOM      9  C   UNL     1      -4.286  13.041  20.183  0.00  0.00    +0.000 A 
ATOM     10  C   UNL     1      -5.364  12.148  19.992  0.00  0.00    +0.000 A 
ATOM     11  H   UNL     1      -7.085   9.066  18.036  0.00  0.00    +0.000 HD
ATOM     12  H   UNL     1      -8.035   8.889  19.451  0.00  0.00    +0.000 HD
ENDROOT
BRANCH   8  13
ATOM     13  C   UNL     1      -2.774  14.338  21.752  0.00  0.00    +0.000 A 
ATOM     14  C   UNL     1      -1.516  13.818  21.432  0.00  0.00    +0.000 A 
ATOM     15  N   UNL     1      -0.565  14.820  21.442  0.00  0.00    +0.000 NA
ATOM     16  C   UNL     1      -1.142  15.737  22.204  0.00  0.00    +0.000 A 
ATOM     17  S   UNL     1      -0.262  16.688  23.403  0.00  0.00    +0.000 S 
ATOM     18  C   UNL     1      -0.949  15.626  24.621  0.00  0.00    +0.000 A 
ATOM     19  C   UNL     1      -2.022  14.928  24.172  0.00  0.00    +0.000 A 
ATOM     20  N   UNL     1      -2.251  15.126  22.791  0.00  0.00    +0.000 N 
BRANCH  14  21
ATOM     21  C   UNL     1      -1.251  12.397  21.622  0.00  0.00    +0.000 A 
ATOM     22  C   UNL     1      -1.269  11.812  22.875  0.00  0.00    +0.000 A 
ATOM     23  C   UNL     1      -0.859  10.484  23.002  0.00  0.00    +0.000 A 
ATOM     24  C   UNL     1      -0.453   9.758  21.891  0.00  0.00    +0.000 A 
ATOM     25  F   UNL     1      -0.005   8.497  22.047  0.00  0.00    +0.000 F 
ATOM     26  C   UNL     1      -0.483  10.302  20.628  0.00  0.00    +0.000 A 
ATOM     27  C   UNL     1      -0.921  11.606  20.490  0.00  0.00    +0.000 A 
ENDBRANCH  14  21
ENDBRANCH   8  13
BRANCH   1  28
ATOM     28  C   UNL     1      -5.431  11.200  17.585  0.00  0.00    +0.000 C 
BRANCH  28  30
ATOM     29  C   UNL     1      -3.444   9.631  17.862  0.00  0.00    +0.000 C 
ATOM     30  C   UNL     1      -3.906  11.003  17.344  0.00  0.00    +0.000 C 
ATOM     31  C   UNL     1      -3.446  11.112  15.883  0.00  0.00    +0.000 C 
ENDBRANCH  28  30
ENDBRANCH   1  28
TORSDOF 4
ENDMDL
MODEL 4
REMARK VINA RESULT:      -7.7      4.043      6.867
REMARK  Name = 
REMARK  6 active torsions:
REMARK  status: ('A' for Active; 'I' for Inactive)
REMARK    1  A    between atoms: C_1  and  C_2
REMARK    2  A    between atoms: C_2  and  C_3
REMARK    3  A    between atoms: C_2  and  C_4
REMARK    4  A    between atoms: C_4  and  N_5
REMARK    5  A    between atoms: C_12  and  C_13
REMARK    6  A    between atoms: C_14  and  C_15
REMARK                            x       y       z     vdW  Elec       q    Type
REMARK                         _______ _______ _______ _____ _____    ______ ____
ROOT
ATOM      1  N   UNL     1      -4.922  12.232  19.108  0.00  0.00    +0.000 N 
ATOM      2  C   UNL     1      -5.826  11.679  18.208  0.00  0.00    +0.000 A 
ATOM      3  N   UNL     1      -7.104  12.072  18.099  0.00  0.00    +0.000 N 
ATOM      4  N   UNL     1      -5.271  10.720  17.519  0.00  0.00    +0.000 NA
ATOM      5  C   UNL     1      -3.939  10.748  17.845  0.00  0.00    +0.000 A 
ATOM      6  C   UNL     1      -2.901   9.947  17.321  0.00  0.00    +0.000 A 
ATOM      7  C   UNL     1      -1.558  10.235  17.612  0.00  0.00    +0.000 A 
ATOM      8  C   UNL     1      -1.239  11.320  18.417  0.00  0.00    +0.000 A 
ATOM      9  C   UNL     1      -2.309  12.024  19.098  0.00  0.00    +0.000 A 
ATOM     10  C   UNL     1      -3.655  11.746  18.770  0.00  0.00    +0.000 A 
ATOM     11  H   UNL     1      -7.539  12.831  18.597  0.00  0.00    +0.000 HD
ATOM     12  H   UNL     1      -7.673  11.615  17.397  0.00  0.00    +0.000 HD
ENDROOT
BRANCH   8  13
ATOM     13  C   UNL     1       0.157  11.850  18.535  0.00  0.00    +0.000 A 
ATOM     14  C   UNL     1       1.322  11.083  18.443  0.00  0.00    +0.000 A 
ATOM     15  N   UNL     1       2.413  11.893  18.193  0.00  0.00    +0.000 NA
ATOM     16  C   UNL     1       1.981  13.072  18.616  0.00  0.00    +0.000 A 
ATOM     17  S   UNL     1       2.995  14.206  19.510  0.00  0.00    +0.000 S 
ATOM     18  C   UNL     1       2.158  13.676  20.960  0.00  0.00    +0.000 A 
ATOM     19  C   UNL     1       0.992  13.037  20.695  0.00  0.00    +0.000 A 
ATOM     20  N   UNL     1       0.794  12.834  19.310  0.00  0.00    +0.000 N 
BRANCH  14  21
ATOM     21  C   UNL     1       1.371   9.765  19.065  0.00  0.00    +0.000 A 
ATOM     22  C   UNL     1       0.909   9.546  20.350  0.00  0.00    +0.000 A 
ATOM     23  C   UNL     1       1.123   8.298  20.937  0.00  0.00    +0.000 A 
ATOM     24  C   UNL     1       1.777   7.290  20.242  0.00  0.00    +0.000 A 
ATOM     25  F   UNL     1       2.025   6.114  20.851  0.00  0.00    +0.000 F 
ATOM     26  C   UNL     1       2.193   7.468  18.943  0.00  0.00    +0.000 A 
ATOM     27  C   UNL     1       1.953   8.689  18.343  0.00  0.00    +0.000 A 
ENDBRANCH  14  21
ENDBRANCH   8  13
BRANCH   1  28
ATOM     28  C   UNL     1      -5.310  13.180  20.148  0.00  0.00    +0.000 C 
BRANCH  28  30
ATOM     29  C   UNL     1      -4.269  12.938  22.460  0.00  0.00    +0.000 C 
ATOM     30  C   UNL     1      -5.478  12.586  21.577  0.00  0.00    +0.000 C 
ATOM     31  C   UNL     1      -6.736  13.031  22.337  0.00  0.00    +0.000 C 
ENDBRANCH  28  30
ENDBRANCH   1  28
TORSDOF 4
ENDMDL
MODEL 5
REMARK VINA RESULT:      -7.7      6.716      8.623
REMARK  Name = 
REMARK  6 active torsions:
REMARK  status: ('A' for Active; 'I' for Inactive)
REMARK    1  A    between atoms: C_1  and  C_2
REMARK    2  A    between atoms: C_2  and  C_3
REMARK    3  A    between atoms: C_2  and  C_4
REMARK    4  A    between atoms: C_4  and  N_5
REMARK    5  A    between atoms: C_12  and  C_13
REMARK    6  A    between atoms: C_14  and  C_15
REMARK                            x       y       z     vdW  Elec       q    Type
REMARK                         _______ _______ _______ _____ _____    ______ ____
ROOT
ATOM      1  N   UNL     1      -4.879  12.217  18.652  0.00  0.00    +0.000 N 
ATOM      2  C   UNL     1      -5.438  11.655  17.510  0.00  0.00    +0.000 A 
ATOM      3  N   UNL     1      -6.662  11.958  17.052  0.00  0.00    +0.000 N 
ATOM      4  N   UNL     1      -4.628  10.782  16.976  0.00  0.00    +0.000 NA
ATOM      5  C   UNL     1      -3.451  10.888  17.672  0.00  0.00    +0.000 A 
ATOM      6  C   UNL     1      -2.241  10.199  17.441  0.00  0.00    +0.000 A 
ATOM      7  C   UNL     1      -1.066  10.567  18.116  0.00  0.00    +0.000 A 
ATOM      8  C   UNL     1      -1.086  11.624  19.018  0.00  0.00    +0.000 A 
ATOM      9  C   UNL     1      -2.363  12.205  19.387  0.00  0.00    +0.000 A 
ATOM     10  C   UNL     1      -3.531  11.847  18.676  0.00  0.00    +0.000 A 
ATOM     11  H   UNL     1      -7.285  12.651  17.432  0.00  0.00    +0.000 HD
ATOM     12  H   UNL     1      -6.966  11.503  16.200  0.00  0.00    +0.000 HD
ENDROOT
BRANCH   8  13
ATOM     13  C   UNL     1       0.167  12.247  19.551  0.00  0.00    +0.000 A 
ATOM     14  C   UNL     1       0.571  12.229  20.890  0.00  0.00    +0.000 A 
ATOM     15  N   UNL     1       1.918  12.521  20.989  0.00  0.00    +0.000 NA
ATOM     16  C   UNL     1       2.146  13.155  19.848  0.00  0.00    +0.000 A 
ATOM     17  S   UNL     1       3.185  14.575  19.725  0.00  0.00    +0.000 S 
ATOM     18  C   UNL     1       1.715  15.536  19.657  0.00  0.00    +0.000 A 
ATOM     19  C   UNL     1       0.617  14.802  19.349  0.00  0.00    +0.000 A 
ATOM     20  N   UNL     1       0.897  13.418  19.284  0.00  0.00    +0.000 N 
BRANCH  14  21
ATOM     21  C   UNL     1      -0.417  12.417  21.946  0.00  0.00    +0.000 A 
ATOM     22  C   UNL     1      -1.131  11.358  22.474  0.00  0.00    +0.000 A 
ATOM     23  C   UNL     1      -2.165  11.627  23.373  0.00  0.00    +0.000 A 
ATOM     24  C   UNL     1      -2.464  12.932  23.739  0.00  0.00    +0.000 A 
ATOM     25  F   UNL     1      -3.505  13.171  24.561  0.00  0.00    +0.000 F 
ATOM     26  C   UNL     1      -1.728  13.996  23.271  0.00  0.00    +0.000 A 
ATOM     27  C   UNL     1      -0.681  13.734  22.408  0.00  0.00    +0.000 A 
ENDBRANCH  14  21
ENDBRANCH   8  13
BRANCH   1  28
ATOM     28  C   UNL     1      -5.628  13.070  19.570  0.00  0.00    +0.000 C 
BRANCH  28  30
ATOM     29  C   UNL     1      -5.734  13.258  22.108  0.00  0.00    +0.000 C 
ATOM     30  C   UNL     1      -6.100  12.393  20.890  0.00  0.00    +0.000 C 
ATOM     31  C   UNL     1      -7.604  12.097  20.983  0.00  0.00    +0.000 C 
ENDBRANCH  28  30
ENDBRANCH   1  28
TORSDOF 4
ENDMDL
MODEL 6
REMARK VINA RESULT:      -7.6      5.159      7.660
REMARK  Name = 
REMARK  6 active torsions:
REMARK  status: ('A' for Active; 'I' for Inactive)
REMARK    1  A    between atoms: C_1  and  C_2
REMARK    2  A    between atoms: C_2  and  C_3
REMARK    3  A    between atoms: C_2  and  C_4
REMARK    4  A    between atoms: C_4  and  N_5
REMARK    5  A    between atoms: C_12  and  C_13
REMARK    6  A    between atoms: C_14  and  C_15
REMARK                            x       y       z     vdW  Elec       q    Type
REMARK                         _______ _______ _______ _____ _____    ______ ____
ROOT
ATOM      1  N   UNL     1      -5.287  12.479  19.467  0.00  0.00    +0.000 N 
ATOM      2  C   UNL     1      -6.266  12.004  18.602  0.00  0.00    +0.000 A 
ATOM      3  N   UNL     1      -7.543  12.413  18.623  0.00  0.00    +0.000 N 
ATOM      4  N   UNL     1      -5.778  11.096  17.801  0.00  0.00    +0.000 NA
ATOM      5  C   UNL     1      -4.425  11.089  18.022  0.00  0.00    +0.000 A 
ATOM      6  C   UNL     1      -3.442  10.323  17.359  0.00  0.00    +0.000 A 
ATOM      7  C   UNL     1      -2.076  10.578  17.564  0.00  0.00    +0.000 A 
ATOM      8  C   UNL     1      -1.682  11.597  18.422  0.00  0.00    +0.000 A 
ATOM      9  C   UNL     1      -2.686  12.255  19.236  0.00  0.00    +0.000 A 
ATOM     10  C   UNL     1      -4.057  12.012  18.995  0.00  0.00    +0.000 A 
ATOM     11  H   UNL     1      -7.928  13.135  19.210  0.00  0.00    +0.000 HD
ATOM     12  H   UNL     1      -8.171  12.016  17.935  0.00  0.00    +0.000 HD
ENDROOT
BRANCH   8  13
ATOM     13  C   UNL     1      -0.274  12.106  18.470  0.00  0.00    +0.000 A 
ATOM     14  C   UNL     1       0.801  11.453  19.081  0.00  0.00    +0.000 A 
ATOM     15  N   UNL     1       1.999  11.959  18.615  0.00  0.00    +0.000 NA
ATOM     16  C   UNL     1       1.635  13.149  18.161  0.00  0.00    +0.000 A 
ATOM     17  S   UNL     1       2.608  14.605  18.381  0.00  0.00    +0.000 S 
ATOM     18  C   UNL     1       1.496  15.049  19.665  0.00  0.00    +0.000 A 
ATOM     19  C   UNL     1       0.326  14.366  19.612  0.00  0.00    +0.000 A 
ATOM     20  N   UNL     1       0.333  13.366  18.613  0.00  0.00    +0.000 N 
BRANCH  14  21
ATOM     21  C   UNL     1       0.605  10.779  20.359  0.00  0.00    +0.000 A 
ATOM     22  C   UNL     1       0.908   9.442  20.534  0.00  0.00    +0.000 A 
ATOM     23  C   UNL     1       0.556   8.825  21.736  0.00  0.00    +0.000 A 
ATOM     24  C   UNL     1      -0.075   9.542  22.743  0.00  0.00    +0.000 A 
ATOM     25  F   UNL     1      -0.458   8.911  23.870  0.00  0.00    +0.000 F 
ATOM     26  C   UNL     1      -0.332  10.887  22.613  0.00  0.00    +0.000 A 
ATOM     27  C   UNL     1       0.045  11.513  21.439  0.00  0.00    +0.000 A 
ENDBRANCH  14  21
ENDBRANCH   8  13
BRANCH   1  28
ATOM     28  C   UNL     1      -5.581  13.348  20.604  0.00  0.00    +0.000 C 
BRANCH  28  30
ATOM     29  C   UNL     1      -4.059  13.003  22.617  0.00  0.00    +0.000 C 
ATOM     30  C   UNL     1      -5.438  12.695  22.009  0.00  0.00    +0.000 C 
ATOM     31  C   UNL     1      -6.491  13.114  23.045  0.00  0.00    +0.000 C 
ENDBRANCH  28  30
ENDBRANCH   1  28
TORSDOF 4
ENDMDL
MODEL 7
REMARK VINA RESULT:      -7.5      8.274     11.773
REMARK  Name = 
REMARK  6 active torsions:
REMARK  status: ('A' for Active; 'I' for Inactive)
REMARK    1  A    between atoms: C_1  and  C_2
REMARK    2  A    between atoms: C_2  and  C_3
REMARK    3  A    between atoms: C_2  and  C_4
REMARK    4  A    between atoms: C_4  and  N_5
REMARK    5  A    between atoms: C_12  and  C_13
REMARK    6  A    between atoms: C_14  and  C_15
REMARK                            x       y       z     vdW  Elec       q    Type
REMARK                         _______ _______ _______ _____ _____    ______ ____
ROOT
ATOM      1  N   UNL     1      10.320  13.519  17.521  0.00  0.00    +0.000 N 
ATOM      2  C   UNL     1      11.421  13.994  16.817  0.00  0.00    +0.000 A 
ATOM      3  N   UNL     1      12.277  13.205  16.151  0.00  0.00    +0.000 N 
ATOM      4  N   UNL     1      11.518  15.291  16.923  0.00  0.00    +0.000 NA
ATOM      5  C   UNL     1      10.376  15.701  17.562  0.00  0.00    +0.000 A 
ATOM      6  C   UNL     1       9.976  17.021  17.860  0.00  0.00    +0.000 A 
ATOM      7  C   UNL     1       8.683  17.287  18.339  0.00  0.00    +0.000 A 
ATOM      8  C   UNL     1       7.781  16.245  18.519  0.00  0.00    +0.000 A 
ATOM      9  C   UNL     1       8.254  14.880  18.387  0.00  0.00    +0.000 A 
ATOM     10  C   UNL     1       9.546  14.629  17.873  0.00  0.00    +0.000 A 
ATOM     11  H   UNL     1      12.199  12.208  16.031  0.00  0.00    +0.000 HD
ATOM     12  H   UNL     1      13.037  13.655  15.656  0.00  0.00    +0.000 HD
ENDROOT
BRANCH   8  13
ATOM     13  C   UNL     1       6.320  16.479  18.749  0.00  0.00    +0.000 A 
ATOM     14  C   UNL     1       5.735  16.782  19.983  0.00  0.00    +0.000 A 
ATOM     15  N   UNL     1       4.478  17.322  19.799  0.00  0.00    +0.000 NA
ATOM     16  C   UNL     1       4.167  16.888  18.586  0.00  0.00    +0.000 A 
ATOM     17  S   UNL     1       2.555  16.320  18.148  0.00  0.00    +0.000 S 
ATOM     18  C   UNL     1       3.190  14.688  18.280  0.00  0.00    +0.000 A 
ATOM     19  C   UNL     1       4.545  14.642  18.250  0.00  0.00    +0.000 A 
ATOM     20  N   UNL     1       5.126  15.931  18.250  0.00  0.00    +0.000 N 
BRANCH  14  21
ATOM     21  C   UNL     1       6.198  16.104  21.188  0.00  0.00    +0.000 A 
ATOM     22  C   UNL     1       7.229  16.608  21.959  0.00  0.00    +0.000 A 
ATOM     23  C   UNL     1       7.721  15.834  23.012  0.00  0.00    +0.000 A 
ATOM     24  C   UNL     1       7.180  14.586  23.287  0.00  0.00    +0.000 A 
ATOM     25  F   UNL     1       7.711  13.832  24.270  0.00  0.00    +0.000 F 
ATOM     26  C   UNL     1       6.116  14.091  22.570  0.00  0.00    +0.000 A 
ATOM     27  C   UNL     1       5.600  14.867  21.549  0.00  0.00    +0.000 A 
ENDBRANCH  14  21
ENDBRANCH   8  13
BRANCH   1  28
ATOM     28  C   UNL     1      10.073  12.099  17.752  0.00  0.00    +0.000 C 
BRANCH  28  30
ATOM     29  C   UNL     1       9.366  10.226  19.327  0.00  0.00    +0.000 C 
ATOM     30  C   UNL     1       9.844  11.685  19.235  0.00  0.00    +0.000 C 
ATOM     31  C   UNL     1      11.065  11.818  20.156  0.00  0.00    +0.000 C 
ENDBRANCH  28  30
ENDBRANCH   1  28
TORSDOF 4
ENDMDL
MODEL 8
REMARK VINA RESULT:      -7.5      2.804      4.495
REMARK  Name = 
REMARK  6 active torsions:
REMARK  status: ('A' for Active; 'I' for Inactive)
REMARK    1  A    between atoms: C_1  and  C_2
REMARK    2  A    between atoms: C_2  and  C_3
REMARK    3  A    between atoms: C_2  and  C_4
REMARK    4  A    between atoms: C_4  and  N_5
REMARK    5  A    between atoms: C_12  and  C_13
REMARK    6  A    between atoms: C_14  and  C_15
REMARK                            x       y       z     vdW  Elec       q    Type
REMARK                         _______ _______ _______ _____ _____    ______ ____
ROOT
ATOM      1  N   UNL     1       1.056  10.966  20.213  0.00  0.00    +0.000 N 
ATOM      2  C   UNL     1       1.513  11.921  19.311  0.00  0.00    +0.000 A 
ATOM      3  N   UNL     1       1.533  13.238  19.566  0.00  0.00    +0.000 N 
ATOM      4  N   UNL     1       1.883  11.364  18.191  0.00  0.00    +0.000 NA
ATOM      5  C   UNL     1       1.831  10.011  18.410  0.00  0.00    +0.000 A 
ATOM      6  C   UNL     1       2.194   8.974  17.523  0.00  0.00    +0.000 A 
ATOM      7  C   UNL     1       2.272   7.645  17.969  0.00  0.00    +0.000 A 
ATOM      8  C   UNL     1       1.995   7.341  19.296  0.00  0.00    +0.000 A 
ATOM      9  C   UNL     1       1.448   8.376  20.152  0.00  0.00    +0.000 A 
ATOM     10  C   UNL     1       1.406   9.714  19.700  0.00  0.00    +0.000 A 
ATOM     11  H   UNL     1       1.284  13.681  20.435  0.00  0.00    +0.000 HD
ATOM     12  H   UNL     1       1.905  13.846  18.846  0.00  0.00    +0.000 HD
ENDROOT
BRANCH   8  13
ATOM     13  C   UNL     1       2.330   6.012  19.901  0.00  0.00    +0.000 A 
ATOM     14  C   UNL     1       3.559   5.356  19.781  0.00  0.00    +0.000 A 
ATOM     15  N   UNL     1       3.682   4.384  20.754  0.00  0.00    +0.000 NA
ATOM     16  C   UNL     1       2.418   4.159  21.079  0.00  0.00    +0.000 A 
ATOM     17  S   UNL     1       1.776   2.547  21.401  0.00  0.00    +0.000 S 
ATOM     18  C   UNL     1       1.075   2.600  19.791  0.00  0.00    +0.000 A 
ATOM     19  C   UNL     1       1.009   3.856  19.283  0.00  0.00    +0.000 A 
ATOM     20  N   UNL     1       1.640   4.807  20.118  0.00  0.00    +0.000 N 
BRANCH  14  21
ATOM     21  C   UNL     1       4.265   5.372  18.505  0.00  0.00    +0.000 A 
ATOM     22  C   UNL     1       5.198   6.345  18.199  0.00  0.00    +0.000 A 
ATOM     23  C   UNL     1       5.724   6.389  16.906  0.00  0.00    +0.000 A 
ATOM     24  C   UNL     1       5.328   5.466  15.948  0.00  0.00    +0.000 A 
ATOM     25  F   UNL     1       5.804   5.564  14.692  0.00  0.00    +0.000 F 
ATOM     26  C   UNL     1       4.445   4.454  16.248  0.00  0.00    +0.000 A 
ATOM     27  C   UNL     1       3.947   4.384  17.535  0.00  0.00    +0.000 A 
ENDBRANCH  14  21
ENDBRANCH   8  13
BRANCH   1  28
ATOM     28  C   UNL     1       0.390  11.308  21.467  0.00  0.00    +0.000 C 
BRANCH  28  30
ATOM     29  C   UNL     1      -1.730  12.201  22.559  0.00  0.00    +0.000 C 
ATOM     30  C   UNL     1      -1.166  11.334  21.422  0.00  0.00    +0.000 C 
ATOM     31  C   UNL     1      -1.783  11.848  20.113  0.00  0.00    +0.000 C 
ENDBRANCH  28  30
ENDBRANCH   1  28
TORSDOF 4
ENDMDL
MODEL 9
REMARK VINA RESULT:      -7.4      6.412      8.992
REMARK  Name = 
REMARK  6 active torsions:
REMARK  status: ('A' for Active; 'I' for Inactive)
REMARK    1  A    between atoms: C_1  and  C_2
REMARK    2  A    between atoms: C_2  and  C_3
REMARK    3  A    between atoms: C_2  and  C_4
REMARK    4  A    between atoms: C_4  and  N_5
REMARK    5  A    between atoms: C_12  and  C_13
REMARK    6  A    between atoms: C_14  and  C_15
REMARK                            x       y       z     vdW  Elec       q    Type
REMARK                         _______ _______ _______ _____ _____    ______ ____
ROOT
ATOM      1  N   UNL     1      -3.457  11.294  17.347  0.00  0.00    +0.000 N 
ATOM      2  C   UNL     1      -3.258  10.363  16.334  0.00  0.00    +0.000 A 
ATOM      3  N   UNL     1      -4.131  10.146  15.338  0.00  0.00    +0.000 N 
ATOM      4  N   UNL     1      -2.135   9.720  16.506  0.00  0.00    +0.000 NA
ATOM      5  C   UNL     1      -1.501  10.347  17.548  0.00  0.00    +0.000 A 
ATOM      6  C   UNL     1      -0.225  10.066  18.081  0.00  0.00    +0.000 A 
ATOM      7  C   UNL     1       0.366  10.930  19.018  0.00  0.00    +0.000 A 
ATOM      8  C   UNL     1      -0.304  12.076  19.424  0.00  0.00    +0.000 A 
ATOM      9  C   UNL     1      -1.683  12.262  19.016  0.00  0.00    +0.000 A 
ATOM     10  C   UNL     1      -2.253  11.405  18.048  0.00  0.00    +0.000 A 
ATOM     11  H   UNL     1      -4.983  10.654  15.172  0.00  0.00    +0.000 HD
ATOM     12  H   UNL     1      -3.878   9.456  14.641  0.00  0.00    +0.000 HD
ENDROOT
BRANCH   8  13
ATOM     13  C   UNL     1       0.371  13.173  20.189  0.00  0.00    +0.000 A 
ATOM     14  C   UNL     1       0.297  13.356  21.573  0.00  0.00    +0.000 A 
ATOM     15  N   UNL     1       1.320  14.178  22.005  0.00  0.00    +0.000 NA
ATOM     16  C   UNL     1       1.644  14.821  20.892  0.00  0.00    +0.000 A 
ATOM     17  S   UNL     1       2.041  16.539  20.851  0.00  0.00    +0.000 S 
ATOM     18  C   UNL     1       0.423  16.809  20.222  0.00  0.00    +0.000 A 
ATOM     19  C   UNL     1      -0.149  15.682  19.731  0.00  0.00    +0.000 A 
ATOM     20  N   UNL     1       0.643  14.533  19.963  0.00  0.00    +0.000 N 
BRANCH  14  21
ATOM     21  C   UNL     1      -0.971  13.148  22.263  0.00  0.00    +0.000 A 
ATOM     22  C   UNL     1      -1.277  11.951  22.881  0.00  0.00    +0.000 A 
ATOM     23  C   UNL     1      -2.564  11.768  23.391  0.00  0.00    +0.000 A 
ATOM     24  C   UNL     1      -3.516  12.774  23.291  0.00  0.00    +0.000 A 
ATOM     25  F   UNL     1      -4.768  12.553  23.736  0.00  0.00    +0.000 F 
ATOM     26  C   UNL     1      -3.214  13.994  22.732  0.00  0.00    +0.000 A 
ATOM     27  C   UNL     1      -1.932  14.195  22.257  0.00  0.00    +0.000 A 
ENDBRANCH  14  21
ENDBRANCH   8  13
BRANCH   1  28
ATOM     28  C   UNL     1      -4.714  12.015  17.532  0.00  0.00    +0.000 C 
BRANCH  28  30
ATOM     29  C   UNL     1      -5.332  12.714  19.902  0.00  0.00    +0.000 C 
ATOM     30  C   UNL     1      -5.523  11.647  18.811  0.00  0.00    +0.000 C 
ATOM     31  C   UNL     1      -7.035  11.472  18.611  0.00  0.00    +0.000 C 
ENDBRANCH  28  30
ENDBRANCH   1  28
TORSDOF 4
ENDMDL
