MODEL 1
REMARK VINA RESULT:      -7.2      0.000      0.000
REMARK  Name = 
REMARK  7 active torsions:
REMARK  status: ('A' for Active; 'I' for Inactive)
REMARK    1  A    between atoms: C_1  and  O_2
REMARK    2  A    between atoms: O_2  and  C_3
REMARK    3  A    between atoms: C_6  and  C_7
REMARK    4  A    between atoms: N_13  and  C_14
REMARK    5  A    between atoms: C_24  and  C_25
REMARK    6  A    between atoms: C_28  and  O_29
REMARK    7  A    between atoms: O_29  and  C_30
REMARK                            x       y       z     vdW  Elec       q    Type
REMARK                         _______ _______ _______ _____ _____    ______ ____
ROOT
ATOM      1  C   UNL     1       0.360  11.422  20.032  0.00  0.00    +0.000 C 
ATOM      2  C   UNL     1       1.597  11.551  19.146  0.00  0.00    +0.000 C 
ATOM      3  C   UNL     1       1.855  10.260  18.390  0.00  0.00    +0.000 C 
ATOM      4  O   UNL     1       2.232  10.298  17.218  0.00  0.00    +0.000 OA
ATOM      5  N   UNL     1       1.692   9.076  19.116  0.00  0.00    +0.000 N 
ATOM      6  C   UNL     1       2.033   7.863  18.374  0.00  0.00    +0.000 C 
ATOM      7  N   UNL     1       2.306   6.746  19.256  0.00  0.00    +0.000 N 
ATOM      8  C   UNL     1       1.212   6.398  20.126  0.00  0.00    +0.000 C 
ATOM      9  S   UNL     1       1.217   7.650  21.398  0.00  0.00    +0.000 S 
ATOM     10  C   UNL     1       1.158   9.083  20.404  0.00  0.00    +0.000 C 
ATOM     11  C   UNL     1       0.582  10.202  20.898  0.00  0.00    +0.000 C 
ENDROOT
BRANCH   7  12
ATOM     12  C   UNL     1       3.093   5.687  18.815  0.00  0.00    +0.000 A 
ATOM     13  C   UNL     1       4.407   5.571  19.306  0.00  0.00    +0.000 A 
ATOM     14  C   UNL     1       5.270   4.562  18.867  0.00  0.00    +0.000 A 
ATOM     15  C   UNL     1       4.836   3.638  17.924  0.00  0.00    +0.000 A 
ATOM     16  C   UNL     1       3.538   3.721  17.425  0.00  0.00    +0.000 A 
ATOM     17  C   UNL     1       2.687   4.734  17.862  0.00  0.00    +0.000 A 
ATOM     18  F   UNL     1       1.435   4.757  17.375  0.00  0.00    +0.000 F 
ENDBRANCH   7  12
BRANCH   1  22
ATOM     19  C   UNL     1      -3.567  10.982  18.172  0.00  0.00    +0.000 A 
ATOM     20  C   UNL     1      -2.455  10.330  17.627  0.00  0.00    +0.000 A 
ATOM     21  C   UNL     1      -1.182  10.485  18.180  0.00  0.00    +0.000 A 
ATOM     22  C   UNL     1      -0.974  11.329  19.276  0.00  0.00    +0.000 A 
ATOM     23  C   UNL     1      -2.069  12.095  19.709  0.00  0.00    +0.000 A 
ATOM     24  C   UNL     1      -3.364  11.927  19.183  0.00  0.00    +0.000 A 
BRANCH  19  26
ATOM     25  C   UNL     1      -5.403  11.727  16.890  0.00  0.00    +0.000 C 
ATOM     26  O   UNL     1      -4.831  10.712  17.721  0.00  0.00    +0.000 OA
ENDBRANCH  19  26
BRANCH  24  27
ATOM     27  O   UNL     1      -4.268  12.740  19.809  0.00  0.00    +0.000 OA
ATOM     28  C   UNL     1      -4.238  12.860  21.220  0.00  0.00    +0.000 C 
ENDBRANCH  24  27
ENDBRANCH   1  22
BRANCH  11  29
ATOM     29  C   UNL     1       0.124  10.208  22.348  0.00  0.00    +0.000 C 
ATOM     30  N   UNL     1      -0.255  10.213  23.550  0.00  0.00    +0.000 NA
ENDBRANCH  11  29
TORSDOF 5
ENDMDL
MODEL 2
REMARK VINA RESULT:      -7.1      0.825      1.840
REMARK  Name = 
REMARK  7 active torsions:
REMARK  status: ('A' for Active; 'I' for Inactive)
REMARK    1  A    between atoms: C_1  and  O_2
REMARK    2  A    between atoms: O_2  and  C_3
REMARK    3  A    between atoms: C_6  and  C_7
REMARK    4  A    between atoms: N_13  and  C_14
REMARK    5  A    between atoms: C_24  and  C_25
REMARK    6  A    between atoms: C_28  and  O_29
REMARK    7  A    between atoms: O_29  and  C_30
REMARK                            x       y       z     vdW  Elec       q    Type
REMARK                         _______ _______ _______ _____ _____    ______ ____
ROOT
ATOM      1  C   UNL     1       0.157  11.438  19.975  0.00  0.00    +0.000 C 
ATOM      2  C   UNL     1       1.361  11.578  19.044  0.00  0.00    +0.000 C 
ATOM      3  C   UNL     1       1.647  10.268  18.333  0.00  0.00    +0.000 C 
ATOM      4  O   UNL     1       1.986  10.271  17.149  0.00  0.00    +0.000 OA
ATOM      5  N   UNL     1       1.553   9.109  19.111  0.00  0.00    +0.000 N 
ATOM      6  C   UNL     1       1.919   7.881  18.408  0.00  0.00    +0.000 C 
ATOM      7  N   UNL     1       2.262   6.812  19.325  0.00  0.00    +0.000 N 
ATOM      8  C   UNL     1       1.210   6.459  20.243  0.00  0.00    +0.000 C 
ATOM      9  S   UNL     1       1.204   7.762  21.463  0.00  0.00    +0.000 S 
ATOM     10  C   UNL     1       1.058   9.149  20.414  0.00  0.00    +0.000 C 
ATOM     11  C   UNL     1       0.453  10.265  20.882  0.00  0.00    +0.000 C 
ENDROOT
BRANCH   7  12
ATOM     12  C   UNL     1       3.077   5.766  18.903  0.00  0.00    +0.000 A 
ATOM     13  C   UNL     1       4.378   5.668  19.429  0.00  0.00    +0.000 A 
ATOM     14  C   UNL     1       5.268   4.673  19.011  0.00  0.00    +0.000 A 
ATOM     15  C   UNL     1       4.874   3.747  18.053  0.00  0.00    +0.000 A 
ATOM     16  C   UNL     1       3.589   3.813  17.518  0.00  0.00    +0.000 A 
ATOM     17  C   UNL     1       2.712   4.812  17.935  0.00  0.00    +0.000 A 
ATOM     18  F   UNL     1       1.473   4.819  17.413  0.00  0.00    +0.000 F 
ENDBRANCH   7  12
BRANCH   1  22
ATOM     19  C   UNL     1      -3.555  11.151  17.692  0.00  0.00    +0.000 A 
ATOM     20  C   UNL     1      -3.544  11.792  18.937  0.00  0.00    +0.000 A 
ATOM     21  C   UNL     1      -2.380  11.863  19.704  0.00  0.00    +0.000 A 
ATOM     22  C   UNL     1      -1.193  11.263  19.266  0.00  0.00    +0.000 A 
ATOM     23  C   UNL     1      -1.264  10.491  18.094  0.00  0.00    +0.000 A 
ATOM     24  C   UNL     1      -2.421  10.435  17.294  0.00  0.00    +0.000 A 
BRANCH  19  26
ATOM     25  C   UNL     1      -5.542  12.303  17.150  0.00  0.00    +0.000 C 
ATOM     26  O   UNL     1      -4.656  11.212  16.881  0.00  0.00    +0.000 OA
ENDBRANCH  19  26
BRANCH  24  27
ATOM     27  O   UNL     1      -2.222   9.673  16.177  0.00  0.00    +0.000 OA
ATOM     28  C   UNL     1      -2.719  10.122  14.928  0.00  0.00    +0.000 C 
ENDBRANCH  24  27
ENDBRANCH   1  22
BRANCH  11  29
ATOM     29  C   UNL     1       0.040  10.313  22.343  0.00  0.00    +0.000 C 
ATOM     30  N   UNL     1      -0.303  10.353  23.556  0.00  0.00    +0.000 NA
ENDBRANCH  11  29
TORSDOF 5
ENDMDL
MODEL 3
REMARK VINA RESULT:      -7.0      1.290      2.175
REMARK  Name = 
REMARK  7 active torsions:
REMARK  status: ('A' for Active; 'I' for Inactive)
REMARK    1  A    between atoms: C_1  and  O_2
REMARK    2  A    between atoms: O_2  and  C_3
REMARK    3  A    between atoms: C_6  and  C_7
REMARK    4  A    between atoms: N_13  and  C_14
REMARK    5  A    between atoms: C_24  and  C_25
REMARK    6  A    between atoms: C_28  and  O_29
REMARK    7  A    between atoms: O_29  and  C_30
REMARK                            x       y       z     vdW  Elec       q    Type
REMARK                         _______ _______ _______ _____ _____    ______ ____
ROOT
ATOM      1  C   UNL     1       0.434  11.358  20.243  0.00  0.00    +0.000 C 
ATOM      2  C   UNL     1       1.582  11.666  19.283  0.00  0.00    +0.000 C 
ATOM      3  C   UNL     1       1.817  10.505  18.334  0.00  0.00    +0.000 C 
ATOM      4  O   UNL     1       2.087  10.722  17.152  0.00  0.00    +0.000 OA
ATOM      5  N   UNL     1       1.762   9.226  18.898  0.00  0.00    +0.000 N 
ATOM      6  C   UNL     1       2.078   8.145  17.966  0.00  0.00    +0.000 C 
ATOM      7  N   UNL     1       2.468   6.931  18.657  0.00  0.00    +0.000 N 
ATOM      8  C   UNL     1       1.469   6.415  19.556  0.00  0.00    +0.000 C 
ATOM      9  S   UNL     1       1.543   7.479  20.988  0.00  0.00    +0.000 S 
ATOM     10  C   UNL     1       1.344   9.031  20.213  0.00  0.00    +0.000 C 
ATOM     11  C   UNL     1       0.775  10.043  20.907  0.00  0.00    +0.000 C 
ENDROOT
BRANCH   7  12
ATOM     12  C   UNL     1       3.250   5.981  18.007  0.00  0.00    +0.000 A 
ATOM     13  C   UNL     1       2.750   4.672  17.874  0.00  0.00    +0.000 A 
ATOM     14  C   UNL     1       3.503   3.654  17.279  0.00  0.00    +0.000 A 
ATOM     15  C   UNL     1       4.779   3.924  16.799  0.00  0.00    +0.000 A 
ATOM     16  C   UNL     1       5.298   5.212  16.908  0.00  0.00    +0.000 A 
ATOM     17  C   UNL     1       4.545   6.218  17.509  0.00  0.00    +0.000 A 
ATOM     18  F   UNL     1       5.075   7.452  17.567  0.00  0.00    +0.000 F 
ENDBRANCH   7  12
BRANCH   1  22
ATOM     19  C   UNL     1      -3.383  11.400  18.121  0.00  0.00    +0.000 A 
ATOM     20  C   UNL     1      -3.252  12.070  19.344  0.00  0.00    +0.000 A 
ATOM     21  C   UNL     1      -2.054  12.040  20.060  0.00  0.00    +0.000 A 
ATOM     22  C   UNL     1      -0.957  11.306  19.595  0.00  0.00    +0.000 A 
ATOM     23  C   UNL     1      -1.158  10.514  18.452  0.00  0.00    +0.000 A 
ATOM     24  C   UNL     1      -2.348  10.558  17.701  0.00  0.00    +0.000 A 
BRANCH  19  26
ATOM     25  C   UNL     1      -5.739  11.294  18.031  0.00  0.00    +0.000 C 
ATOM     26  O   UNL     1      -4.506  11.554  17.353  0.00  0.00    +0.000 OA
ENDBRANCH  19  26
BRANCH  24  27
ATOM     27  O   UNL     1      -2.278   9.749  16.602  0.00  0.00    +0.000 OA
ATOM     28  C   UNL     1      -2.710  10.239  15.345  0.00  0.00    +0.000 C 
ENDBRANCH  24  27
ENDBRANCH   1  22
BRANCH  11  29
ATOM     29  C   UNL     1       0.449   9.828  22.376  0.00  0.00    +0.000 C 
ATOM     30  N   UNL     1       0.178   9.649  23.594  0.00  0.00    +0.000 NA
ENDBRANCH  11  29
TORSDOF 5
ENDMDL
MODEL 4
REMARK VINA RESULT:      -6.9      0.898      1.255
REMARK  Name = 
REMARK  7 active torsions:
REMARK  status: ('A' for Active; 'I' for Inactive)
REMARK    1  A    between atoms: C_1  and  O_2
REMARK    2  A    between atoms: O_2  and  C_3
REMARK    3  A    between atoms: C_6  and  C_7
REMARK    4  A    between atoms: N_13  and  C_14
REMARK    5  A    between atoms: C_24  and  C_25
REMARK    6  A    between atoms: C_28  and  O_29
REMARK    7  A    between atoms: O_29  and  C_30
REMARK                            x       y       z     vdW  Elec       q    Type
REMARK                         _______ _______ _______ _____ _____    ______ ____
ROOT
ATOM      1  C   UNL     1       0.569  11.211  20.081  0.00  0.00    +0.000 C 
ATOM      2  C   UNL     1       1.774  11.295  19.145  0.00  0.00    +0.000 C 
ATOM      3  C   UNL     1       1.927  10.013  18.347  0.00  0.00    +0.000 C 
ATOM      4  O   UNL     1       2.256  10.061  17.161  0.00  0.00    +0.000 OA
ATOM      5  N   UNL     1       1.728   8.820  19.051  0.00  0.00    +0.000 N 
ATOM      6  C   UNL     1       1.969   7.611  18.265  0.00  0.00    +0.000 C 
ATOM      7  N   UNL     1       2.215   6.457  19.107  0.00  0.00    +0.000 N 
ATOM      8  C   UNL     1       1.141   6.147  20.015  0.00  0.00    +0.000 C 
ATOM      9  S   UNL     1       1.270   7.362  21.316  0.00  0.00    +0.000 S 
ATOM     10  C   UNL     1       1.249   8.822  20.360  0.00  0.00    +0.000 C 
ATOM     11  C   UNL     1       0.758   9.958  20.906  0.00  0.00    +0.000 C 
ENDROOT
BRANCH   7  12
ATOM     12  C   UNL     1       2.922   5.368  18.607  0.00  0.00    +0.000 A 
ATOM     13  C   UNL     1       2.274   4.495  17.714  0.00  0.00    +0.000 A 
ATOM     14  C   UNL     1       2.907   3.353  17.213  0.00  0.00    +0.000 A 
ATOM     15  C   UNL     1       4.210   3.056  17.594  0.00  0.00    +0.000 A 
ATOM     16  C   UNL     1       4.881   3.906  18.470  0.00  0.00    +0.000 A 
ATOM     17  C   UNL     1       4.241   5.037  18.971  0.00  0.00    +0.000 A 
ATOM     18  F   UNL     1       4.937   5.843  19.791  0.00  0.00    +0.000 F 
ENDBRANCH   7  12
BRANCH   1  22
ATOM     19  C   UNL     1      -3.457  11.070  18.396  0.00  0.00    +0.000 A 
ATOM     20  C   UNL     1      -2.440  10.277  17.850  0.00  0.00    +0.000 A 
ATOM     21  C   UNL     1      -1.136  10.333  18.346  0.00  0.00    +0.000 A 
ATOM     22  C   UNL     1      -0.798  11.211  19.381  0.00  0.00    +0.000 A 
ATOM     23  C   UNL     1      -1.791  12.109  19.806  0.00  0.00    +0.000 A 
ATOM     24  C   UNL     1      -3.118  12.045  19.339  0.00  0.00    +0.000 A 
BRANCH  19  26
ATOM     25  C   UNL     1      -5.184  11.765  16.945  0.00  0.00    +0.000 C 
ATOM     26  O   UNL     1      -4.760  10.905  18.008  0.00  0.00    +0.000 OA
ENDBRANCH  19  26
BRANCH  24  27
ATOM     27  O   UNL     1      -3.909  12.979  19.948  0.00  0.00    +0.000 OA
ATOM     28  C   UNL     1      -4.685  12.610  21.074  0.00  0.00    +0.000 C 
ENDBRANCH  24  27
ENDBRANCH   1  22
BRANCH  11  29
ATOM     29  C   UNL     1       0.363   9.950  22.374  0.00  0.00    +0.000 C 
ATOM     30  N   UNL     1       0.035   9.943  23.591  0.00  0.00    +0.000 NA
ENDBRANCH  11  29
TORSDOF 5
ENDMDL
MODEL 5
REMARK VINA RESULT:      -6.8      5.740      7.371
REMARK  Name = 
REMARK  7 active torsions:
REMARK  status: ('A' for Active; 'I' for Inactive)
REMARK    1  A    between atoms: C_1  and  O_2
REMARK    2  A    between atoms: O_2  and  C_3
REMARK    3  A    between atoms: C_6  and  C_7
REMARK    4  A    between atoms: N_13  and  C_14
REMARK    5  A    between atoms: C_24  and  C_25
REMARK    6  A    between atoms: C_28  and  O_29
REMARK    7  A    between atoms: O_29  and  C_30
REMARK                            x       y       z     vdW  Elec       q    Type
REMARK                         _______ _______ _______ _____ _____    ______ ____
ROOT
ATOM      1  C   UNL     1      -2.437  13.027  23.570  0.00  0.00    +0.000 C 
ATOM      2  C   UNL     1      -1.937  14.437  23.880  0.00  0.00    +0.000 C 
ATOM      3  C   UNL     1      -1.567  15.170  22.603  0.00  0.00    +0.000 C 
ATOM      4  O   UNL     1      -1.838  16.365  22.479  0.00  0.00    +0.000 OA
ATOM      5  N   UNL     1      -0.873  14.427  21.643  0.00  0.00    +0.000 N 
ATOM      6  C   UNL     1      -0.464  15.195  20.468  0.00  0.00    +0.000 C 
ATOM      7  N   UNL     1       0.618  14.551  19.749  0.00  0.00    +0.000 N 
ATOM      8  C   UNL     1       0.311  13.224  19.282  0.00  0.00    +0.000 C 
ATOM      9  S   UNL     1       0.407  12.190  20.733  0.00  0.00    +0.000 S 
ATOM     10  C   UNL     1      -0.689  13.052  21.784  0.00  0.00    +0.000 C 
ATOM     11  C   UNL     1      -1.361  12.367  22.736  0.00  0.00    +0.000 C 
ENDROOT
BRANCH   7  12
ATOM     12  C   UNL     1       1.457  15.304  18.933  0.00  0.00    +0.000 A 
ATOM     13  C   UNL     1       1.025  16.574  18.509  0.00  0.00    +0.000 A 
ATOM     14  C   UNL     1       1.794  17.363  17.647  0.00  0.00    +0.000 A 
ATOM     15  C   UNL     1       3.020  16.897  17.187  0.00  0.00    +0.000 A 
ATOM     16  C   UNL     1       3.479  15.647  17.596  0.00  0.00    +0.000 A 
ATOM     17  C   UNL     1       2.703  14.865  18.449  0.00  0.00    +0.000 A 
ATOM     18  F   UNL     1       3.200  13.678  18.839  0.00  0.00    +0.000 F 
ENDBRANCH   7  12
BRANCH   1  22
ATOM     19  C   UNL     1      -6.357  12.513  21.714  0.00  0.00    +0.000 A 
ATOM     20  C   UNL     1      -5.209  12.598  20.917  0.00  0.00    +0.000 A 
ATOM     21  C   UNL     1      -3.949  12.801  21.483  0.00  0.00    +0.000 A 
ATOM     22  C   UNL     1      -3.800  12.963  22.865  0.00  0.00    +0.000 A 
ATOM     23  C   UNL     1      -4.977  13.034  23.629  0.00  0.00    +0.000 A 
ATOM     24  C   UNL     1      -6.251  12.800  23.078  0.00  0.00    +0.000 A 
BRANCH  19  26
ATOM     25  C   UNL     1      -7.755  10.764  20.971  0.00  0.00    +0.000 C 
ATOM     26  O   UNL     1      -7.565  12.168  21.170  0.00  0.00    +0.000 OA
ENDBRANCH  19  26
BRANCH  24  27
ATOM     27  O   UNL     1      -7.228  12.861  24.033  0.00  0.00    +0.000 OA
ATOM     28  C   UNL     1      -7.883  14.093  24.283  0.00  0.00    +0.000 C 
ENDBRANCH  24  27
ENDBRANCH   1  22
BRANCH  11  29
ATOM     29  C   UNL     1      -1.040  10.895  22.941  0.00  0.00    +0.000 C 
ATOM     30  N   UNL     1      -0.774   9.674  23.110  0.00  0.00    +0.000 NA
ENDBRANCH  11  29
TORSDOF 5
ENDMDL
MODEL 6
REMARK VINA RESULT:      -6.7      3.057      4.988
REMARK  Name = 
REMARK  7 active torsions:
REMARK  status: ('A' for Active; 'I' for Inactive)
REMARK    1  A    between atoms: C_1  and  O_2
REMARK    2  A    between atoms: O_2  and  C_3
REMARK    3  A    between atoms: C_6  and  C_7
REMARK    4  A    between atoms: N_13  and  C_14
REMARK    5  A    between atoms: C_24  and  C_25
REMARK    6  A    between atoms: C_28  and  O_29
REMARK    7  A    between atoms: O_29  and  C_30
REMARK                            x       y       z     vdW  Elec       q    Type
REMARK                         _______ _______ _______ _____ _____    ______ ____
ROOT
ATOM      1  C   UNL     1      -1.064  11.813  21.183  0.00  0.00    +0.000 C 
ATOM      2  C   UNL     1      -0.825  10.746  22.249  0.00  0.00    +0.000 C 
ATOM      3  C   UNL     1       0.451   9.975  21.963  0.00  0.00    +0.000 C 
ATOM      4  O   UNL     1       1.196   9.652  22.890  0.00  0.00    +0.000 OA
ATOM      5  N   UNL     1       0.676   9.626  20.627  0.00  0.00    +0.000 N 
ATOM      6  C   UNL     1       1.871   8.813  20.411  0.00  0.00    +0.000 C 
ATOM      7  N   UNL     1       1.818   8.095  19.152  0.00  0.00    +0.000 N 
ATOM      8  C   UNL     1       1.686   8.941  17.994  0.00  0.00    +0.000 C 
ATOM      9  S   UNL     1      -0.024   9.455  17.991  0.00  0.00    +0.000 S 
ATOM     10  C   UNL     1      -0.139  10.110  19.605  0.00  0.00    +0.000 C 
ATOM     11  C   UNL     1      -1.028  11.099  19.850  0.00  0.00    +0.000 C 
ENDROOT
BRANCH   7  12
ATOM     12  C   UNL     1       2.573   6.940  18.977  0.00  0.00    +0.000 A 
ATOM     13  C   UNL     1       3.473   6.877  17.897  0.00  0.00    +0.000 A 
ATOM     14  C   UNL     1       4.225   5.729  17.631  0.00  0.00    +0.000 A 
ATOM     15  C   UNL     1       4.095   4.609  18.445  0.00  0.00    +0.000 A 
ATOM     16  C   UNL     1       3.218   4.643  19.527  0.00  0.00    +0.000 A 
ATOM     17  C   UNL     1       2.467   5.788  19.780  0.00  0.00    +0.000 A 
ATOM     18  F   UNL     1       1.657   5.785  20.852  0.00  0.00    +0.000 F 
ENDBRANCH   7  12
BRANCH   1  22
ATOM     19  C   UNL     1       2.003  14.917  21.358  0.00  0.00    +0.000 A 
ATOM     20  C   UNL     1       0.919  14.951  22.243  0.00  0.00    +0.000 A 
ATOM     21  C   UNL     1      -0.095  13.993  22.182  0.00  0.00    +0.000 A 
ATOM     22  C   UNL     1      -0.076  12.988  21.208  0.00  0.00    +0.000 A 
ATOM     23  C   UNL     1       0.932  13.065  20.233  0.00  0.00    +0.000 A 
ATOM     24  C   UNL     1       1.978  14.005  20.299  0.00  0.00    +0.000 A 
BRANCH  19  26
ATOM     25  C   UNL     1       4.030  15.350  22.486  0.00  0.00    +0.000 C 
ATOM     26  O   UNL     1       3.065  15.767  21.516  0.00  0.00    +0.000 OA
ENDBRANCH  19  26
BRANCH  24  27
ATOM     27  O   UNL     1       2.868  13.837  19.274  0.00  0.00    +0.000 OA
ATOM     28  C   UNL     1       2.602  12.873  18.270  0.00  0.00    +0.000 C 
ENDBRANCH  24  27
ENDBRANCH   1  22
BRANCH  11  29
ATOM     29  C   UNL     1      -1.983  11.513  18.742  0.00  0.00    +0.000 C 
ATOM     30  N   UNL     1      -2.776  11.856  17.824  0.00  0.00    +0.000 NA
ENDBRANCH  11  29
TORSDOF 5
ENDMDL
MODEL 7
REMARK VINA RESULT:      -6.6      3.658      5.031
REMARK  Name = 
REMARK  7 active torsions:
REMARK  status: ('A' for Active; 'I' for Inactive)
REMARK    1  A    between atoms: C_1  and  O_2
REMARK    2  A    between atoms: O_2  and  C_3
REMARK    3  A    between atoms: C_6  and  C_7
REMARK    4  A    between atoms: N_13  and  C_14
REMARK    5  A    between atoms: C_24  and  C_25
REMARK    6  A    between atoms: C_28  and  O_29
REMARK    7  A    between atoms: O_29  and  C_30
REMARK                            x       y       z     vdW  Elec       q    Type
REMARK                         _______ _______ _______ _____ _____    ______ ____
ROOT
ATOM      1  C   UNL     1      -1.648  11.981  22.065  0.00  0.00    +0.000 C 
ATOM      2  C   UNL     1      -1.311  10.785  22.954  0.00  0.00    +0.000 C 
ATOM      3  C   UNL     1       0.003  10.153  22.533  0.00  0.00    +0.000 C 
ATOM      4  O   UNL     1       0.792   9.747  23.387  0.00  0.00    +0.000 OA
ATOM      5  N   UNL     1       0.212  10.023  21.156  0.00  0.00    +0.000 N 
ATOM      6  C   UNL     1       1.451   9.334  20.798  0.00  0.00    +0.000 C 
ATOM      7  N   UNL     1       1.409   8.810  19.447  0.00  0.00    +0.000 N 
ATOM      8  C   UNL     1       1.190   9.808  18.433  0.00  0.00    +0.000 C 
ATOM      9  S   UNL     1      -0.548  10.199  18.537  0.00  0.00    +0.000 S 
ATOM     10  C   UNL     1      -0.660  10.598  20.233  0.00  0.00    +0.000 C 
ATOM     11  C   UNL     1      -1.604  11.477  20.640  0.00  0.00    +0.000 C 
ENDROOT
BRANCH   7  12
ATOM     12  C   UNL     1       2.231   7.747  19.087  0.00  0.00    +0.000 A 
ATOM     13  C   UNL     1       3.090   7.901  17.983  0.00  0.00    +0.000 A 
ATOM     14  C   UNL     1       3.905   6.857  17.534  0.00  0.00    +0.000 A 
ATOM     15  C   UNL     1       3.882   5.629  18.183  0.00  0.00    +0.000 A 
ATOM     16  C   UNL     1       3.048   5.447  19.284  0.00  0.00    +0.000 A 
ATOM     17  C   UNL     1       2.234   6.490  19.720  0.00  0.00    +0.000 A 
ATOM     18  F   UNL     1       1.468   6.278  20.805  0.00  0.00    +0.000 F 
ENDBRANCH   7  12
BRANCH   1  22
ATOM     19  C   UNL     1       0.670  15.661  22.459  0.00  0.00    +0.000 A 
ATOM     20  C   UNL     1       1.074  14.670  21.556  0.00  0.00    +0.000 A 
ATOM     21  C   UNL     1       0.372  13.468  21.439  0.00  0.00    +0.000 A 
ATOM     22  C   UNL     1      -0.737  13.203  22.249  0.00  0.00    +0.000 A 
ATOM     23  C   UNL     1      -1.030  14.138  23.256  0.00  0.00    +0.000 A 
ATOM     24  C   UNL     1      -0.353  15.367  23.366  0.00  0.00    +0.000 A 
BRANCH  19  26
ATOM     25  C   UNL     1       2.692  16.868  22.311  0.00  0.00    +0.000 C 
ATOM     26  O   UNL     1       1.270  16.891  22.465  0.00  0.00    +0.000 OA
ENDBRANCH  19  26
BRANCH  24  27
ATOM     27  O   UNL     1      -0.861  16.130  24.381  0.00  0.00    +0.000 OA
ATOM     28  C   UNL     1      -1.653  15.518  25.384  0.00  0.00    +0.000 C 
ENDBRANCH  24  27
ENDBRANCH   1  22
BRANCH  11  29
ATOM     29  C   UNL     1      -2.614  11.985  19.624  0.00  0.00    +0.000 C 
ATOM     30  N   UNL     1      -3.453  12.407  18.782  0.00  0.00    +0.000 NA
ENDBRANCH  11  29
TORSDOF 5
ENDMDL
MODEL 8
REMARK VINA RESULT:      -6.6      1.203      2.073
REMARK  Name = 
REMARK  7 active torsions:
REMARK  status: ('A' for Active; 'I' for Inactive)
REMARK    1  A    between atoms: C_1  and  O_2
REMARK    2  A    between atoms: O_2  and  C_3
REMARK    3  A    between atoms: C_6  and  C_7
REMARK    4  A    between atoms: N_13  and  C_14
REMARK    5  A    between atoms: C_24  and  C_25
REMARK    6  A    between atoms: C_28  and  O_29
REMARK    7  A    between atoms: O_29  and  C_30
REMARK                            x       y       z     vdW  Elec       q    Type
REMARK                         _______ _______ _______ _____ _____    ______ ____
ROOT
ATOM      1  C   UNL     1       0.211  11.561  20.150  0.00  0.00    +0.000 C 
ATOM      2  C   UNL     1       1.426  11.821  19.261  0.00  0.00    +0.000 C 
ATOM      3  C   UNL     1       1.768  10.590  18.442  0.00  0.00    +0.000 C 
ATOM      4  O   UNL     1       2.127  10.711  17.270  0.00  0.00    +0.000 OA
ATOM      5  N   UNL     1       1.699   9.364  19.112  0.00  0.00    +0.000 N 
ATOM      6  C   UNL     1       2.117   8.216  18.309  0.00  0.00    +0.000 C 
ATOM      7  N   UNL     1       2.480   7.081  19.135  0.00  0.00    +0.000 N 
ATOM      8  C   UNL     1       1.424   6.614  19.995  0.00  0.00    +0.000 C 
ATOM      9  S   UNL     1       1.354   7.801  21.327  0.00  0.00    +0.000 S 
ATOM     10  C   UNL     1       1.180   9.271  20.402  0.00  0.00    +0.000 C 
ATOM     11  C   UNL     1       0.530  10.321  20.955  0.00  0.00    +0.000 C 
ENDROOT
BRANCH   7  12
ATOM     12  C   UNL     1       3.336   6.103  18.637  0.00  0.00    +0.000 A 
ATOM     13  C   UNL     1       3.893   6.281  17.357  0.00  0.00    +0.000 A 
ATOM     14  C   UNL     1       4.720   5.315  16.774  0.00  0.00    +0.000 A 
ATOM     15  C   UNL     1       5.012   4.144  17.462  0.00  0.00    +0.000 A 
ATOM     16  C   UNL     1       4.483   3.942  18.735  0.00  0.00    +0.000 A 
ATOM     17  C   UNL     1       3.654   4.906  19.305  0.00  0.00    +0.000 A 
ATOM     18  F   UNL     1       3.190   4.681  20.547  0.00  0.00    +0.000 F 
ENDBRANCH   7  12
BRANCH   1  22
ATOM     19  C   UNL     1      -3.431  11.325  17.752  0.00  0.00    +0.000 A 
ATOM     20  C   UNL     1      -3.442  11.998  18.980  0.00  0.00    +0.000 A 
ATOM     21  C   UNL     1      -2.301  12.055  19.783  0.00  0.00    +0.000 A 
ATOM     22  C   UNL     1      -1.120  11.408  19.401  0.00  0.00    +0.000 A 
ATOM     23  C   UNL     1      -1.176  10.607  18.248  0.00  0.00    +0.000 A 
ATOM     24  C   UNL     1      -2.308  10.565  17.411  0.00  0.00    +0.000 A 
BRANCH  19  26
ATOM     25  C   UNL     1      -5.743  11.742  17.528  0.00  0.00    +0.000 C 
ATOM     26  O   UNL     1      -4.503  11.397  16.903  0.00  0.00    +0.000 OA
ENDBRANCH  19  26
BRANCH  24  27
ATOM     27  O   UNL     1      -2.095   9.767  16.321  0.00  0.00    +0.000 OA
ATOM     28  C   UNL     1      -2.747  10.067  15.100  0.00  0.00    +0.000 C 
ENDBRANCH  24  27
ENDBRANCH   1  22
BRANCH  11  29
ATOM     29  C   UNL     1       0.090  10.225  22.407  0.00  0.00    +0.000 C 
ATOM     30  N   UNL     1      -0.275  10.146  23.611  0.00  0.00    +0.000 NA
ENDBRANCH  11  29
TORSDOF 5
ENDMDL
MODEL 9
REMARK VINA RESULT:      -6.6      3.348      4.664
REMARK  Name = 
REMARK  7 active torsions:
REMARK  status: ('A' for Active; 'I' for Inactive)
REMARK    1  A    between atoms: C_1  and  O_2
REMARK    2  A    between atoms: O_2  and  C_3
REMARK    3  A    between atoms: C_6  and  C_7
REMARK    4  A    between atoms: N_13  and  C_14
REMARK    5  A    between atoms: C_24  and  C_25
REMARK    6  A    between atoms: C_28  and  O_29
REMARK    7  A    between atoms: O_29  and  C_30
REMARK                            x       y       z     vdW  Elec       q    Type
REMARK                         _______ _______ _______ _____ _____    ______ ____
ROOT
ATOM      1  C   UNL     1      -0.856  11.859  20.827  0.00  0.00    +0.000 C 
ATOM      2  C   UNL     1      -0.823  10.840  21.964  0.00  0.00    +0.000 C 
ATOM      3  C   UNL     1       0.407   9.957  21.860  0.00  0.00    +0.000 C 
ATOM      4  O   UNL     1       1.019   9.631  22.878  0.00  0.00    +0.000 OA
ATOM      5  N   UNL     1       0.744   9.515  20.576  0.00  0.00    +0.000 N 
ATOM      6  C   UNL     1       1.883   8.600  20.534  0.00  0.00    +0.000 C 
ATOM      7  N   UNL     1       1.906   7.818  19.314  0.00  0.00    +0.000 N 
ATOM      8  C   UNL     1       1.969   8.603  18.109  0.00  0.00    +0.000 C 
ATOM      9  S   UNL     1       0.318   9.247  17.890  0.00  0.00    +0.000 S 
ATOM     10  C   UNL     1       0.087  10.002  19.447  0.00  0.00    +0.000 C 
ATOM     11  C   UNL     1      -0.738  11.069  19.543  0.00  0.00    +0.000 C 
ENDROOT
BRANCH   7  12
ATOM     12  C   UNL     1       2.575   6.599  19.281  0.00  0.00    +0.000 A 
ATOM     13  C   UNL     1       3.663   6.449  18.401  0.00  0.00    +0.000 A 
ATOM     14  C   UNL     1       4.349   5.237  18.278  0.00  0.00    +0.000 A 
ATOM     15  C   UNL     1       3.962   4.139  19.038  0.00  0.00    +0.000 A 
ATOM     16  C   UNL     1       2.894   4.258  19.924  0.00  0.00    +0.000 A 
ATOM     17  C   UNL     1       2.211   5.467  20.035  0.00  0.00    +0.000 A 
ATOM     18  F   UNL     1       1.206   5.543  20.924  0.00  0.00    +0.000 F 
ENDBRANCH   7  12
BRANCH   1  22
ATOM     19  C   UNL     1       1.939  15.212  20.968  0.00  0.00    +0.000 A 
ATOM     20  C   UNL     1       2.075  14.226  19.984  0.00  0.00    +0.000 A 
ATOM     21  C   UNL     1       1.219  13.124  19.941  0.00  0.00    +0.000 A 
ATOM     22  C   UNL     1       0.218  12.953  20.905  0.00  0.00    +0.000 A 
ATOM     23  C   UNL     1       0.199  13.867  21.972  0.00  0.00    +0.000 A 
ATOM     24  C   UNL     1       1.034  14.999  22.014  0.00  0.00    +0.000 A 
BRANCH  19  26
ATOM     25  C   UNL     1       2.113  17.412  20.134  0.00  0.00    +0.000 C 
ATOM     26  O   UNL     1       2.682  16.361  20.919  0.00  0.00    +0.000 OA
ENDBRANCH  19  26
BRANCH  24  27
ATOM     27  O   UNL     1       0.784  15.767  23.117  0.00  0.00    +0.000 OA
ATOM     28  C   UNL     1      -0.357  16.607  23.138  0.00  0.00    +0.000 C 
ENDBRANCH  24  27
ENDBRANCH   1  22
BRANCH  11  29
ATOM     29  C   UNL     1      -1.531  11.491  18.317  0.00  0.00    +0.000 C 
ATOM     30  N   UNL     1      -2.189  11.841  17.300  0.00  0.00    +0.000 NA
ENDBRANCH  11  29
TORSDOF 5
ENDMDL
