MODEL 1
REMARK VINA RESULT:      -7.8      0.000      0.000
REMARK  Name = 
REMARK  12 active torsions:
REMARK  status: ('A' for Active; 'I' for Inactive)
REMARK    1  A    between atoms: C_1  and  O_2
REMARK    2  A    between atoms: O_2  and  C_3
REMARK    3  A    between atoms: C_6  and  C_7
REMARK    4  A    between atoms: C_7  and  C_8
REMARK    5  A    between atoms: C_8  and  O_9
REMARK    6  A    between atoms: O_9  and  C_10
REMARK    7  A    between atoms: C_15  and  N_16
REMARK    8  A    between atoms: C_19  and  O_20
REMARK    9  A    between atoms: O_20  and  C_21
REMARK   10  A    between atoms: C_21  and  C_22
REMARK   11  A    between atoms: C_26  and  O_27
REMARK   12  A    between atoms: O_27  and  C_28
REMARK                            x       y       z     vdW  Elec       q    Type
REMARK                         _______ _______ _______ _____ _____    ______ ____
ROOT
ATOM      1  C   UNL     1       4.437   5.636  17.102  0.00  0.00    +0.000 C 
ATOM      2  C   UNL     1       5.679   5.511  16.145  0.00  0.00    +0.000 C 
ATOM      3  C   UNL     1       7.009   5.956  16.786  0.00  0.00    +0.000 C 
ATOM      4  C   UNL     1       7.287   5.246  18.133  0.00  0.00    +0.000 C 
ATOM      5  C   UNL     1       6.089   5.266  19.097  0.00  0.00    +0.000 C 
ATOM      6  C   UNL     1       4.713   4.856  18.472  0.00  0.00    +0.000 C 
ENDROOT
BRANCH   6   7
ATOM      7  N   UNL     1       4.635   3.354  18.384  0.00  0.00    +0.000 NA
ATOM      8  C   UNL     1       3.817   2.758  17.306  0.00  0.00    +0.000 C 
ATOM      9  C   UNL     1       2.407   2.575  17.853  0.00  0.00    +0.000 C 
ATOM     10  C   UNL     1       2.700   2.070  19.234  0.00  0.00    +0.000 C 
ATOM     11  C   UNL     1       4.003   2.786  19.611  0.00  0.00    +0.000 C 
BRANCH  10  12
ATOM     12  O   UNL     1       1.659   2.407  20.108  0.00  0.00    +0.000 OA
BRANCH  12  13
ATOM     13  C   UNL     1       1.747   3.376  21.056  0.00  0.00    +0.000 C 
ATOM     14  C   UNL     1       1.409   4.803  20.712  0.00  0.00    +0.000 C 
ATOM     15  O   UNL     1       2.054   3.101  22.192  0.00  0.00    +0.000 OA
ENDBRANCH  12  13
ENDBRANCH  10  12
ENDBRANCH   6   7
BRANCH   1  16
ATOM     16  O   UNL     1       4.047   7.026  17.230  0.00  0.00    +0.000 OA
BRANCH  16  17
ATOM     17  C   UNL     1       3.065   7.173  18.270  0.00  0.00    +0.000 C 
BRANCH  17  18
ATOM     18  C   UNL     1       1.840   8.021  17.931  0.00  0.00    +0.000 C 
BRANCH  18  22
ATOM     19  C   UNL     1       0.538  10.499  21.311  0.00  0.00    +0.000 A 
ATOM     20  C   UNL     1       1.041   9.227  21.475  0.00  0.00    +0.000 A 
ATOM     21  C   UNL     1       1.494   8.427  20.416  0.00  0.00    +0.000 A 
ATOM     22  C   UNL     1       1.477   8.934  19.121  0.00  0.00    +0.000 A 
ATOM     23  C   UNL     1       1.063  10.253  18.934  0.00  0.00    +0.000 A 
ATOM     24  C   UNL     1       0.562  11.081  19.960  0.00  0.00    +0.000 A 
BRANCH  19  26
ATOM     25  C   UNL     1      -1.200  10.991  23.017  0.00  0.00    +0.000 C 
ATOM     26  O   UNL     1       0.053  11.179  22.418  0.00  0.00    +0.000 OA
ENDBRANCH  19  26
BRANCH  24  27
ATOM     27  O   UNL     1       0.152  12.274  19.522  0.00  0.00    +0.000 OA
ATOM     28  C   UNL     1      -0.931  13.102  19.723  0.00  0.00    +0.000 C 
ENDBRANCH  24  27
ENDBRANCH  18  22
ENDBRANCH  17  18
ENDBRANCH  16  17
ENDBRANCH   1  16
TORSDOF 9
ENDMDL
MODEL 2
REMARK VINA RESULT:      -7.6      2.092      4.730
REMARK  Name = 
REMARK  12 active torsions:
REMARK  status: ('A' for Active; 'I' for Inactive)
REMARK    1  A    between atoms: C_1  and  O_2
REMARK    2  A    between atoms: O_2  and  C_3
REMARK    3  A    between atoms: C_6  and  C_7
REMARK    4  A    between atoms: C_7  and  C_8
REMARK    5  A    between atoms: C_8  and  O_9
REMARK    6  A    between atoms: O_9  and  C_10
REMARK    7  A    between atoms: C_15  and  N_16
REMARK    8  A    between atoms: C_19  and  O_20
REMARK    9  A    between atoms: O_20  and  C_21
REMARK   10  A    between atoms: C_21  and  C_22
REMARK   11  A    between atoms: C_26  and  O_27
REMARK   12  A    between atoms: O_27  and  C_28
REMARK                            x       y       z     vdW  Elec       q    Type
REMARK                         _______ _______ _______ _____ _____    ______ ____
ROOT
ATOM      1  C   UNL     1       2.686   5.804  19.671  0.00  0.00    +0.000 C 
ATOM      2  C   UNL     1       2.122   4.800  20.743  0.00  0.00    +0.000 C 
ATOM      3  C   UNL     1       0.868   4.031  20.281  0.00  0.00    +0.000 C 
ATOM      4  C   UNL     1       1.075   3.318  18.923  0.00  0.00    +0.000 C 
ATOM      5  C   UNL     1       1.692   4.221  17.841  0.00  0.00    +0.000 C 
ATOM      6  C   UNL     1       2.946   5.047  18.286  0.00  0.00    +0.000 C 
ENDROOT
BRANCH   6   7
ATOM      7  N   UNL     1       4.162   4.159  18.256  0.00  0.00    +0.000 NA
ATOM      8  C   UNL     1       5.380   4.616  18.960  0.00  0.00    +0.000 C 
ATOM      9  C   UNL     1       6.211   5.409  17.961  0.00  0.00    +0.000 C 
ATOM     10  C   UNL     1       6.067   4.561  16.732  0.00  0.00    +0.000 C 
ATOM     11  C   UNL     1       4.652   3.982  16.858  0.00  0.00    +0.000 C 
BRANCH  10  12
ATOM     12  O   UNL     1       6.199   5.345  15.580  0.00  0.00    +0.000 OA
BRANCH  12  13
ATOM     13  C   UNL     1       6.825   4.931  14.447  0.00  0.00    +0.000 C 
ATOM     14  C   UNL     1       6.221   3.836  13.608  0.00  0.00    +0.000 C 
ATOM     15  O   UNL     1       7.845   5.462  14.078  0.00  0.00    +0.000 OA
ENDBRANCH  12  13
ENDBRANCH  10  12
ENDBRANCH   6   7
BRANCH   1  16
ATOM     16  O   UNL     1       1.844   6.982  19.604  0.00  0.00    +0.000 OA
BRANCH  16  17
ATOM     17  C   UNL     1       2.504   8.023  18.863  0.00  0.00    +0.000 C 
BRANCH  17  18
ATOM     18  C   UNL     1       1.701   8.666  17.734  0.00  0.00    +0.000 C 
BRANCH  18  22
ATOM     19  C   UNL     1      -1.067  11.776  19.122  0.00  0.00    +0.000 A 
ATOM     20  C   UNL     1      -1.458  10.758  18.280  0.00  0.00    +0.000 A 
ATOM     21  C   UNL     1      -0.603   9.734  17.848  0.00  0.00    +0.000 A 
ATOM     22  C   UNL     1       0.710   9.702  18.306  0.00  0.00    +0.000 A 
ATOM     23  C   UNL     1       1.110  10.664  19.235  0.00  0.00    +0.000 A 
ATOM     24  C   UNL     1       0.299  11.734  19.668  0.00  0.00    +0.000 A 
BRANCH  19  26
ATOM     25  C   UNL     1      -2.657  12.921  20.651  0.00  0.00    +0.000 C 
ATOM     26  O   UNL     1      -1.974  12.777  19.435  0.00  0.00    +0.000 OA
ENDBRANCH  19  26
BRANCH  24  27
ATOM     27  O   UNL     1       0.929  12.570  20.496  0.00  0.00    +0.000 OA
ATOM     28  C   UNL     1       2.155  13.199  20.552  0.00  0.00    +0.000 C 
ENDBRANCH  24  27
ENDBRANCH  18  22
ENDBRANCH  17  18
ENDBRANCH  16  17
ENDBRANCH   1  16
TORSDOF 9
ENDMDL
MODEL 3
REMARK VINA RESULT:      -7.6      2.006      4.733
REMARK  Name = 
REMARK  12 active torsions:
REMARK  status: ('A' for Active; 'I' for Inactive)
REMARK    1  A    between atoms: C_1  and  O_2
REMARK    2  A    between atoms: O_2  and  C_3
REMARK    3  A    between atoms: C_6  and  C_7
REMARK    4  A    between atoms: C_7  and  C_8
REMARK    5  A    between atoms: C_8  and  O_9
REMARK    6  A    between atoms: O_9  and  C_10
REMARK    7  A    between atoms: C_15  and  N_16
REMARK    8  A    between atoms: C_19  and  O_20
REMARK    9  A    between atoms: O_20  and  C_21
REMARK   10  A    between atoms: C_21  and  C_22
REMARK   11  A    between atoms: C_26  and  O_27
REMARK   12  A    between atoms: O_27  and  C_28
REMARK                            x       y       z     vdW  Elec       q    Type
REMARK                         _______ _______ _______ _____ _____    ______ ____
ROOT
ATOM      1  C   UNL     1       2.740   5.924  19.526  0.00  0.00    +0.000 C 
ATOM      2  C   UNL     1       2.185   4.916  20.599  0.00  0.00    +0.000 C 
ATOM      3  C   UNL     1       0.981   4.085  20.112  0.00  0.00    +0.000 C 
ATOM      4  C   UNL     1       1.262   3.356  18.775  0.00  0.00    +0.000 C 
ATOM      5  C   UNL     1       1.875   4.266  17.696  0.00  0.00    +0.000 C 
ATOM      6  C   UNL     1       3.077   5.153  18.164  0.00  0.00    +0.000 C 
ENDROOT
BRANCH   6   7
ATOM      7  N   UNL     1       4.331   4.318  18.191  0.00  0.00    +0.000 NA
ATOM      8  C   UNL     1       5.508   4.846  18.915  0.00  0.00    +0.000 C 
ATOM      9  C   UNL     1       6.332   5.648  17.917  0.00  0.00    +0.000 C 
ATOM     10  C   UNL     1       6.258   4.763  16.708  0.00  0.00    +0.000 C 
ATOM     11  C   UNL     1       4.867   4.127  16.812  0.00  0.00    +0.000 C 
BRANCH  10  12
ATOM     12  O   UNL     1       6.388   5.521  15.538  0.00  0.00    +0.000 OA
BRANCH  12  13
ATOM     13  C   UNL     1       7.005   5.080  14.411  0.00  0.00    +0.000 C 
ATOM     14  C   UNL     1       6.375   3.990  13.584  0.00  0.00    +0.000 C 
ATOM     15  O   UNL     1       8.038   5.581  14.037  0.00  0.00    +0.000 OA
ENDBRANCH  12  13
ENDBRANCH  10  12
ENDBRANCH   6   7
BRANCH   1  16
ATOM     16  O   UNL     1       1.851   7.063  19.408  0.00  0.00    +0.000 OA
BRANCH  16  17
ATOM     17  C   UNL     1       1.829   7.805  20.639  0.00  0.00    +0.000 C 
BRANCH  17  18
ATOM     18  C   UNL     1       0.489   7.870  21.369  0.00  0.00    +0.000 C 
BRANCH  18  22
ATOM     19  C   UNL     1      -0.878  11.975  22.105  0.00  0.00    +0.000 A 
ATOM     20  C   UNL     1      -0.924  10.994  23.071  0.00  0.00    +0.000 A 
ATOM     21  C   UNL     1      -0.464   9.684  22.873  0.00  0.00    +0.000 A 
ATOM     22  C   UNL     1       0.106   9.338  21.652  0.00  0.00    +0.000 A 
ATOM     23  C   UNL     1       0.255  10.334  20.687  0.00  0.00    +0.000 A 
ATOM     24  C   UNL     1      -0.227  11.653  20.825  0.00  0.00    +0.000 A 
BRANCH  19  26
ATOM     25  C   UNL     1      -1.352  13.895  23.611  0.00  0.00    +0.000 C 
ATOM     26  O   UNL     1      -1.422  13.220  22.384  0.00  0.00    +0.000 OA
ENDBRANCH  19  26
BRANCH  24  27
ATOM     27  O   UNL     1      -0.039  12.400  19.736  0.00  0.00    +0.000 OA
ATOM     28  C   UNL     1      -0.823  12.945  18.740  0.00  0.00    +0.000 C 
ENDBRANCH  24  27
ENDBRANCH  18  22
ENDBRANCH  17  18
ENDBRANCH  16  17
ENDBRANCH   1  16
TORSDOF 9
ENDMDL
MODEL 4
REMARK VINA RESULT:      -7.5      0.934      1.781
REMARK  Name = 
REMARK  12 active torsions:
REMARK  status: ('A' for Active; 'I' for Inactive)
REMARK    1  A    between atoms: C_1  and  O_2
REMARK    2  A    between atoms: O_2  and  C_3
REMARK    3  A    between atoms: C_6  and  C_7
REMARK    4  A    between atoms: C_7  and  C_8
REMARK    5  A    between atoms: C_8  and  O_9
REMARK    6  A    between atoms: O_9  and  C_10
REMARK    7  A    between atoms: C_15  and  N_16
REMARK    8  A    between atoms: C_19  and  O_20
REMARK    9  A    between atoms: O_20  and  C_21
REMARK   10  A    between atoms: C_21  and  C_22
REMARK   11  A    between atoms: C_26  and  O_27
REMARK   12  A    between atoms: O_27  and  C_28
REMARK                            x       y       z     vdW  Elec       q    Type
REMARK                         _______ _______ _______ _____ _____    ______ ____
ROOT
ATOM      1  C   UNL     1       4.328   6.141  17.595  0.00  0.00    +0.000 C 
ATOM      2  C   UNL     1       5.412   6.202  16.457  0.00  0.00    +0.000 C 
ATOM      3  C   UNL     1       6.837   6.496  16.967  0.00  0.00    +0.000 C 
ATOM      4  C   UNL     1       7.280   5.526  18.089  0.00  0.00    +0.000 C 
ATOM      5  C   UNL     1       6.236   5.361  19.206  0.00  0.00    +0.000 C 
ATOM      6  C   UNL     1       4.769   5.098  18.725  0.00  0.00    +0.000 C 
ENDROOT
BRANCH   6   7
ATOM      7  N   UNL     1       4.620   3.645  18.353  0.00  0.00    +0.000 NA
ATOM      8  C   UNL     1       3.680   3.294  17.267  0.00  0.00    +0.000 C 
ATOM      9  C   UNL     1       2.322   3.037  17.907  0.00  0.00    +0.000 C 
ATOM     10  C   UNL     1       2.723   2.261  19.126  0.00  0.00    +0.000 C 
ATOM     11  C   UNL     1       4.084   2.859  19.502  0.00  0.00    +0.000 C 
BRANCH  10  12
ATOM     12  O   UNL     1       1.785   2.440  20.150  0.00  0.00    +0.000 OA
BRANCH  12  13
ATOM     13  C   UNL     1       1.872   3.407  21.100  0.00  0.00    +0.000 C 
ATOM     14  C   UNL     1       1.480   4.824  20.774  0.00  0.00    +0.000 C 
ATOM     15  O   UNL     1       2.223   3.137  22.225  0.00  0.00    +0.000 OA
ENDBRANCH  12  13
ENDBRANCH  10  12
ENDBRANCH   6   7
BRANCH   1  16
ATOM     16  O   UNL     1       4.015   7.481  18.053  0.00  0.00    +0.000 OA
BRANCH  16  17
ATOM     17  C   UNL     1       2.640   7.555  18.466  0.00  0.00    +0.000 C 
BRANCH  17  18
ATOM     18  C   UNL     1       1.742   8.500  17.670  0.00  0.00    +0.000 C 
BRANCH  18  22
ATOM     19  C   UNL     1      -0.086  11.460  20.346  0.00  0.00    +0.000 A 
ATOM     20  C   UNL     1      -0.227  11.511  18.976  0.00  0.00    +0.000 A 
ATOM     21  C   UNL     1       0.319  10.561  18.101  0.00  0.00    +0.000 A 
ATOM     22  C   UNL     1       1.018   9.478  18.620  0.00  0.00    +0.000 A 
ATOM     23  C   UNL     1       1.097   9.345  20.007  0.00  0.00    +0.000 A 
ATOM     24  C   UNL     1       0.600  10.293  20.925  0.00  0.00    +0.000 A 
BRANCH  19  26
ATOM     25  C   UNL     1       0.126  13.512  21.731  0.00  0.00    +0.000 C 
ATOM     26  O   UNL     1      -0.608  12.488  21.116  0.00  0.00    +0.000 OA
ENDBRANCH  19  26
BRANCH  24  27
ATOM     27  O   UNL     1       0.866   9.987  22.197  0.00  0.00    +0.000 OA
ATOM     28  C   UNL     1       0.196   9.411  23.255  0.00  0.00    +0.000 C 
ENDBRANCH  24  27
ENDBRANCH  18  22
ENDBRANCH  17  18
ENDBRANCH  16  17
ENDBRANCH   1  16
TORSDOF 9
ENDMDL
MODEL 5
REMARK VINA RESULT:      -7.4      2.166      4.891
REMARK  Name = 
REMARK  12 active torsions:
REMARK  status: ('A' for Active; 'I' for Inactive)
REMARK    1  A    between atoms: C_1  and  O_2
REMARK    2  A    between atoms: O_2  and  C_3
REMARK    3  A    between atoms: C_6  and  C_7
REMARK    4  A    between atoms: C_7  and  C_8
REMARK    5  A    between atoms: C_8  and  O_9
REMARK    6  A    between atoms: O_9  and  C_10
REMARK    7  A    between atoms: C_15  and  N_16
REMARK    8  A    between atoms: C_19  and  O_20
REMARK    9  A    between atoms: O_20  and  C_21
REMARK   10  A    between atoms: C_21  and  C_22
REMARK   11  A    between atoms: C_26  and  O_27
REMARK   12  A    between atoms: O_27  and  C_28
REMARK                            x       y       z     vdW  Elec       q    Type
REMARK                         _______ _______ _______ _____ _____    ______ ____
ROOT
ATOM      1  C   UNL     1       2.581   5.971  19.769  0.00  0.00    +0.000 C 
ATOM      2  C   UNL     1       2.039   4.938  20.825  0.00  0.00    +0.000 C 
ATOM      3  C   UNL     1       0.861   4.084  20.315  0.00  0.00    +0.000 C 
ATOM      4  C   UNL     1       1.175   3.377  18.974  0.00  0.00    +0.000 C 
ATOM      5  C   UNL     1       1.776   4.313  17.912  0.00  0.00    +0.000 C 
ATOM      6  C   UNL     1       2.951   5.224  18.404  0.00  0.00    +0.000 C 
ENDROOT
BRANCH   6   7
ATOM      7  N   UNL     1       4.225   4.420  18.435  0.00  0.00    +0.000 NA
ATOM      8  C   UNL     1       5.430   5.040  19.026  0.00  0.00    +0.000 C 
ATOM      9  C   UNL     1       6.172   5.751  17.902  0.00  0.00    +0.000 C 
ATOM     10  C   UNL     1       6.047   4.747  16.796  0.00  0.00    +0.000 C 
ATOM     11  C   UNL     1       4.680   4.098  17.051  0.00  0.00    +0.000 C 
BRANCH  10  12
ATOM     12  O   UNL     1       6.086   5.383  15.550  0.00  0.00    +0.000 OA
BRANCH  12  13
ATOM     13  C   UNL     1       6.796   4.926  14.485  0.00  0.00    +0.000 C 
ATOM     14  C   UNL     1       6.205   3.880  13.577  0.00  0.00    +0.000 C 
ATOM     15  O   UNL     1       7.885   5.381  14.229  0.00  0.00    +0.000 OA
ENDBRANCH  12  13
ENDBRANCH  10  12
ENDBRANCH   6   7
BRANCH   1  16
ATOM     16  O   UNL     1       1.666   7.089  19.655  0.00  0.00    +0.000 OA
BRANCH  16  17
ATOM     17  C   UNL     1       1.651   7.847  20.877  0.00  0.00    +0.000 C 
BRANCH  17  18
ATOM     18  C   UNL     1       0.291   8.371  21.334  0.00  0.00    +0.000 C 
BRANCH  18  22
ATOM     19  C   UNL     1      -0.617  12.436  19.951  0.00  0.00    +0.000 A 
ATOM     20  C   UNL     1       0.015  12.184  21.149  0.00  0.00    +0.000 A 
ATOM     21  C   UNL     1       0.346  10.898  21.599  0.00  0.00    +0.000 A 
ATOM     22  C   UNL     1       0.061   9.799  20.796  0.00  0.00    +0.000 A 
ATOM     23  C   UNL     1      -0.492  10.028  19.535  0.00  0.00    +0.000 A 
ATOM     24  C   UNL     1      -0.878  11.297  19.056  0.00  0.00    +0.000 A 
BRANCH  19  26
ATOM     25  C   UNL     1      -0.234  14.605  18.800  0.00  0.00    +0.000 C 
ATOM     26  O   UNL     1      -0.961  13.742  19.632  0.00  0.00    +0.000 OA
ENDBRANCH  19  26
BRANCH  24  27
ATOM     27  O   UNL     1      -1.459  11.253  17.855  0.00  0.00    +0.000 OA
ATOM     28  C   UNL     1      -2.728  11.426  17.344  0.00  0.00    +0.000 C 
ENDBRANCH  24  27
ENDBRANCH  18  22
ENDBRANCH  17  18
ENDBRANCH  16  17
ENDBRANCH   1  16
TORSDOF 9
ENDMDL
MODEL 6
REMARK VINA RESULT:      -7.4      1.513      4.294
REMARK  Name = 
REMARK  12 active torsions:
REMARK  status: ('A' for Active; 'I' for Inactive)
REMARK    1  A    between atoms: C_1  and  O_2
REMARK    2  A    between atoms: O_2  and  C_3
REMARK    3  A    between atoms: C_6  and  C_7
REMARK    4  A    between atoms: C_7  and  C_8
REMARK    5  A    between atoms: C_8  and  O_9
REMARK    6  A    between atoms: O_9  and  C_10
REMARK    7  A    between atoms: C_15  and  N_16
REMARK    8  A    between atoms: C_19  and  O_20
REMARK    9  A    between atoms: O_20  and  C_21
REMARK   10  A    between atoms: C_21  and  C_22
REMARK   11  A    between atoms: C_26  and  O_27
REMARK   12  A    between atoms: O_27  and  C_28
REMARK                            x       y       z     vdW  Elec       q    Type
REMARK                         _______ _______ _______ _____ _____    ______ ____
ROOT
ATOM      1  C   UNL     1       3.210   4.275  19.772  0.00  0.00    +0.000 C 
ATOM      2  C   UNL     1       3.083   2.741  20.101  0.00  0.00    +0.000 C 
ATOM      3  C   UNL     1       2.625   1.882  18.906  0.00  0.00    +0.000 C 
ATOM      4  C   UNL     1       3.500   2.098  17.648  0.00  0.00    +0.000 C 
ATOM      5  C   UNL     1       3.727   3.580  17.304  0.00  0.00    +0.000 C 
ATOM      6  C   UNL     1       4.158   4.492  18.502  0.00  0.00    +0.000 C 
ENDROOT
BRANCH   6   7
ATOM      7  N   UNL     1       5.631   4.312  18.760  0.00  0.00    +0.000 NA
ATOM      8  C   UNL     1       6.391   5.457  19.306  0.00  0.00    +0.000 C 
ATOM      9  C   UNL     1       6.924   6.254  18.123  0.00  0.00    +0.000 C 
ATOM     10  C   UNL     1       7.366   5.150  17.210  0.00  0.00    +0.000 C 
ATOM     11  C   UNL     1       6.358   4.027  17.489  0.00  0.00    +0.000 C 
BRANCH  10  12
ATOM     12  O   UNL     1       7.311   5.567  15.875  0.00  0.00    +0.000 OA
BRANCH  12  13
ATOM     13  C   UNL     1       6.216   5.435  15.082  0.00  0.00    +0.000 C 
ATOM     14  C   UNL     1       6.105   4.269  14.135  0.00  0.00    +0.000 C 
ATOM     15  O   UNL     1       5.302   6.222  15.156  0.00  0.00    +0.000 OA
ENDBRANCH  12  13
ENDBRANCH  10  12
ENDBRANCH   6   7
BRANCH   1  16
ATOM     16  O   UNL     1       1.892   4.875  19.693  0.00  0.00    +0.000 OA
BRANCH  16  17
ATOM     17  C   UNL     1       1.843   6.070  20.492  0.00  0.00    +0.000 C 
BRANCH  17  18
ATOM     18  C   UNL     1       2.280   7.363  19.806  0.00  0.00    +0.000 C 
BRANCH  18  22
ATOM     19  C   UNL     1      -0.367  10.560  21.231  0.00  0.00    +0.000 A 
ATOM     20  C   UNL     1       0.208   9.640  22.080  0.00  0.00    +0.000 A 
ATOM     21  C   UNL     1       1.082   8.630  21.656  0.00  0.00    +0.000 A 
ATOM     22  C   UNL     1       1.432   8.549  20.312  0.00  0.00    +0.000 A 
ATOM     23  C   UNL     1       0.942   9.524  19.442  0.00  0.00    +0.000 A 
ATOM     24  C   UNL     1       0.030  10.534  19.814  0.00  0.00    +0.000 A 
BRANCH  19  26
ATOM     25  C   UNL     1      -1.723  11.536  23.071  0.00  0.00    +0.000 C 
ATOM     26  O   UNL     1      -1.273  11.477  21.744  0.00  0.00    +0.000 OA
ENDBRANCH  19  26
BRANCH  24  27
ATOM     27  O   UNL     1      -0.357  11.298  18.790  0.00  0.00    +0.000 OA
ATOM     28  C   UNL     1      -1.545  11.788  18.292  0.00  0.00    +0.000 C 
ENDBRANCH  24  27
ENDBRANCH  18  22
ENDBRANCH  17  18
ENDBRANCH  16  17
ENDBRANCH   1  16
TORSDOF 9
ENDMDL
MODEL 7
REMARK VINA RESULT:      -7.3      1.795      4.548
REMARK  Name = 
REMARK  12 active torsions:
REMARK  status: ('A' for Active; 'I' for Inactive)
REMARK    1  A    between atoms: C_1  and  O_2
REMARK    2  A    between atoms: O_2  and  C_3
REMARK    3  A    between atoms: C_6  and  C_7
REMARK    4  A    between atoms: C_7  and  C_8
REMARK    5  A    between atoms: C_8  and  O_9
REMARK    6  A    between atoms: O_9  and  C_10
REMARK    7  A    between atoms: C_15  and  N_16
REMARK    8  A    between atoms: C_19  and  O_20
REMARK    9  A    between atoms: O_20  and  C_21
REMARK   10  A    between atoms: C_21  and  C_22
REMARK   11  A    between atoms: C_26  and  O_27
REMARK   12  A    between atoms: O_27  and  C_28
REMARK                            x       y       z     vdW  Elec       q    Type
REMARK                         _______ _______ _______ _____ _____    ______ ____
ROOT
ATOM      1  C   UNL     1       3.026   5.441  19.148  0.00  0.00    +0.000 C 
ATOM      2  C   UNL     1       2.403   4.232  19.938  0.00  0.00    +0.000 C 
ATOM      3  C   UNL     1       1.671   3.212  19.044  0.00  0.00    +0.000 C 
ATOM      4  C   UNL     1       2.553   2.702  17.878  0.00  0.00    +0.000 C 
ATOM      5  C   UNL     1       3.254   3.829  17.100  0.00  0.00    +0.000 C 
ATOM      6  C   UNL     1       3.977   4.906  17.978  0.00  0.00    +0.000 C 
ENDROOT
BRANCH   6   7
ATOM      7  N   UNL     1       5.311   4.368  18.427  0.00  0.00    +0.000 NA
ATOM      8  C   UNL     1       6.275   5.309  19.036  0.00  0.00    +0.000 C 
ATOM      9  C   UNL     1       7.134   5.871  17.911  0.00  0.00    +0.000 C 
ATOM     10  C   UNL     1       7.374   4.639  17.092  0.00  0.00    +0.000 C 
ATOM     11  C   UNL     1       6.081   3.832  17.268  0.00  0.00    +0.000 C 
BRANCH  10  12
ATOM     12  O   UNL     1       7.587   4.978  15.750  0.00  0.00    +0.000 OA
BRANCH  12  13
ATOM     13  C   UNL     1       6.596   5.083  14.826  0.00  0.00    +0.000 C 
ATOM     14  C   UNL     1       6.398   3.994  13.805  0.00  0.00    +0.000 C 
ATOM     15  O   UNL     1       5.839   6.024  14.838  0.00  0.00    +0.000 OA
ENDBRANCH  12  13
ENDBRANCH  10  12
ENDBRANCH   6   7
BRANCH   1  16
ATOM     16  O   UNL     1       1.982   6.363  18.747  0.00  0.00    +0.000 OA
BRANCH  16  17
ATOM     17  C   UNL     1       2.451   7.719  18.845  0.00  0.00    +0.000 C 
BRANCH  17  18
ATOM     18  C   UNL     1       1.657   8.769  18.071  0.00  0.00    +0.000 C 
BRANCH  18  22
ATOM     19  C   UNL     1       1.085  12.227  20.712  0.00  0.00    +0.000 A 
ATOM     20  C   UNL     1       1.461  12.356  19.393  0.00  0.00    +0.000 A 
ATOM     21  C   UNL     1       1.619  11.271  18.520  0.00  0.00    +0.000 A 
ATOM     22  C   UNL     1       1.356   9.984  18.975  0.00  0.00    +0.000 A 
ATOM     23  C   UNL     1       0.881   9.828  20.278  0.00  0.00    +0.000 A 
ATOM     24  C   UNL     1       0.744  10.883  21.204  0.00  0.00    +0.000 A 
BRANCH  19  26
ATOM     25  C   UNL     1      -0.138  13.920  22.059  0.00  0.00    +0.000 C 
ATOM     26  O   UNL     1       1.024  13.361  21.509  0.00  0.00    +0.000 OA
ENDBRANCH  19  26
BRANCH  24  27
ATOM     27  O   UNL     1       0.350  10.475  22.413  0.00  0.00    +0.000 OA
ATOM     28  C   UNL     1      -0.846  10.300  23.076  0.00  0.00    +0.000 C 
ENDBRANCH  24  27
ENDBRANCH  18  22
ENDBRANCH  17  18
ENDBRANCH  16  17
ENDBRANCH   1  16
TORSDOF 9
ENDMDL
MODEL 8
REMARK VINA RESULT:      -7.3      0.988      1.156
REMARK  Name = 
REMARK  12 active torsions:
REMARK  status: ('A' for Active; 'I' for Inactive)
REMARK    1  A    between atoms: C_1  and  O_2
REMARK    2  A    between atoms: O_2  and  C_3
REMARK    3  A    between atoms: C_6  and  C_7
REMARK    4  A    between atoms: C_7  and  C_8
REMARK    5  A    between atoms: C_8  and  O_9
REMARK    6  A    between atoms: O_9  and  C_10
REMARK    7  A    between atoms: C_15  and  N_16
REMARK    8  A    between atoms: C_19  and  O_20
REMARK    9  A    between atoms: O_20  and  C_21
REMARK   10  A    between atoms: C_21  and  C_22
REMARK   11  A    between atoms: C_26  and  O_27
REMARK   12  A    between atoms: O_27  and  C_28
REMARK                            x       y       z     vdW  Elec       q    Type
REMARK                         _______ _______ _______ _____ _____    ______ ____
ROOT
ATOM      1  C   UNL     1       4.077   6.192  17.550  0.00  0.00    +0.000 C 
ATOM      2  C   UNL     1       5.250   6.444  16.532  0.00  0.00    +0.000 C 
ATOM      3  C   UNL     1       6.588   6.818  17.200  0.00  0.00    +0.000 C 
ATOM      4  C   UNL     1       7.017   5.799  18.283  0.00  0.00    +0.000 C 
ATOM      5  C   UNL     1       5.896   5.448  19.277  0.00  0.00    +0.000 C 
ATOM      6  C   UNL     1       4.511   5.099  18.635  0.00  0.00    +0.000 C 
ENDROOT
BRANCH   6   7
ATOM      7  N   UNL     1       4.536   3.676  18.141  0.00  0.00    +0.000 NA
ATOM      8  C   UNL     1       3.698   3.326  16.974  0.00  0.00    +0.000 C 
ATOM      9  C   UNL     1       2.342   2.880  17.507  0.00  0.00    +0.000 C 
ATOM     10  C   UNL     1       2.757   2.047  18.683  0.00  0.00    +0.000 C 
ATOM     11  C   UNL     1       4.026   2.745  19.189  0.00  0.00    +0.000 C 
BRANCH  10  12
ATOM     12  O   UNL     1       1.752   2.043  19.657  0.00  0.00    +0.000 OA
BRANCH  12  13
ATOM     13  C   UNL     1       1.471   3.100  20.464  0.00  0.00    +0.000 C 
ATOM     14  C   UNL     1       2.061   3.172  21.847  0.00  0.00    +0.000 C 
ATOM     15  O   UNL     1       0.783   4.011  20.068  0.00  0.00    +0.000 OA
ENDBRANCH  12  13
ENDBRANCH  10  12
ENDBRANCH   6   7
BRANCH   1  16
ATOM     16  O   UNL     1       3.597   7.455  18.076  0.00  0.00    +0.000 OA
BRANCH  16  17
ATOM     17  C   UNL     1       2.235   7.323  18.519  0.00  0.00    +0.000 C 
BRANCH  17  18
ATOM     18  C   UNL     1       2.019   7.229  20.028  0.00  0.00    +0.000 C 
BRANCH  18  22
ATOM     19  C   UNL     1      -0.083  10.768  21.550  0.00  0.00    +0.000 A 
ATOM     20  C   UNL     1       0.483   9.827  22.382  0.00  0.00    +0.000 A 
ATOM     21  C   UNL     1       1.187   8.706  21.923  0.00  0.00    +0.000 A 
ATOM     22  C   UNL     1       1.369   8.526  20.556  0.00  0.00    +0.000 A 
ATOM     23  C   UNL     1       0.891   9.511  19.691  0.00  0.00    +0.000 A 
ATOM     24  C   UNL     1       0.143  10.634  20.102  0.00  0.00    +0.000 A 
BRANCH  19  26
ATOM     25  C   UNL     1      -1.896  11.667  22.994  0.00  0.00    +0.000 C 
ATOM     26  O   UNL     1      -0.818  11.805  22.107  0.00  0.00    +0.000 OA
ENDBRANCH  19  26
BRANCH  24  27
ATOM     27  O   UNL     1      -0.274  11.391  19.085  0.00  0.00    +0.000 OA
ATOM     28  C   UNL     1      -1.359  12.196  18.808  0.00  0.00    +0.000 C 
ENDBRANCH  24  27
ENDBRANCH  18  22
ENDBRANCH  17  18
ENDBRANCH  16  17
ENDBRANCH   1  16
TORSDOF 9
ENDMDL
MODEL 9
REMARK VINA RESULT:      -7.2      1.176      1.470
REMARK  Name = 
REMARK  12 active torsions:
REMARK  status: ('A' for Active; 'I' for Inactive)
REMARK    1  A    between atoms: C_1  and  O_2
REMARK    2  A    between atoms: O_2  and  C_3
REMARK    3  A    between atoms: C_6  and  C_7
REMARK    4  A    between atoms: C_7  and  C_8
REMARK    5  A    between atoms: C_8  and  O_9
REMARK    6  A    between atoms: O_9  and  C_10
REMARK    7  A    between atoms: C_15  and  N_16
REMARK    8  A    between atoms: C_19  and  O_20
REMARK    9  A    between atoms: O_20  and  C_21
REMARK   10  A    between atoms: C_21  and  C_22
REMARK   11  A    between atoms: C_26  and  O_27
REMARK   12  A    between atoms: O_27  and  C_28
REMARK                            x       y       z     vdW  Elec       q    Type
REMARK                         _______ _______ _______ _____ _____    ______ ____
ROOT
ATOM      1  C   UNL     1       4.035   6.324  17.567  0.00  0.00    +0.000 C 
ATOM      2  C   UNL     1       5.241   6.516  16.575  0.00  0.00    +0.000 C 
ATOM      3  C   UNL     1       6.589   6.786  17.274  0.00  0.00    +0.000 C 
ATOM      4  C   UNL     1       6.929   5.720  18.343  0.00  0.00    +0.000 C 
ATOM      5  C   UNL     1       5.768   5.426  19.309  0.00  0.00    +0.000 C 
ATOM      6  C   UNL     1       4.375   5.183  18.637  0.00  0.00    +0.000 C 
ENDROOT
BRANCH   6   7
ATOM      7  N   UNL     1       4.315   3.771  18.113  0.00  0.00    +0.000 NA
ATOM      8  C   UNL     1       3.298   3.448  17.089  0.00  0.00    +0.000 C 
ATOM      9  C   UNL     1       2.044   2.991  17.822  0.00  0.00    +0.000 C 
ATOM     10  C   UNL     1       2.638   2.132  18.898  0.00  0.00    +0.000 C 
ATOM     11  C   UNL     1       3.975   2.817  19.209  0.00  0.00    +0.000 C 
BRANCH  10  12
ATOM     12  O   UNL     1       1.803   2.107  20.021  0.00  0.00    +0.000 OA
BRANCH  12  13
ATOM     13  C   UNL     1       1.781   3.074  20.974  0.00  0.00    +0.000 C 
ATOM     14  C   UNL     1       1.127   4.400  20.690  0.00  0.00    +0.000 C 
ATOM     15  O   UNL     1       2.246   2.869  22.070  0.00  0.00    +0.000 OA
ENDBRANCH  12  13
ENDBRANCH  10  12
ENDBRANCH   6   7
BRANCH   1  16
ATOM     16  O   UNL     1       3.631   7.605  18.111  0.00  0.00    +0.000 OA
BRANCH  16  17
ATOM     17  C   UNL     1       2.272   7.540  18.576  0.00  0.00    +0.000 C 
BRANCH  17  18
ATOM     18  C   UNL     1       2.063   7.685  20.082  0.00  0.00    +0.000 C 
BRANCH  18  22
ATOM     19  C   UNL     1      -0.775  10.894  21.037  0.00  0.00    +0.000 A 
ATOM     20  C   UNL     1       0.135  10.412  21.952  0.00  0.00    +0.000 A 
ATOM     21  C   UNL     1       1.074   9.412  21.664  0.00  0.00    +0.000 A 
ATOM     22  C   UNL     1       1.133   8.881  20.380  0.00  0.00    +0.000 A 
ATOM     23  C   UNL     1       0.289   9.414  19.405  0.00  0.00    +0.000 A 
ATOM     24  C   UNL     1      -0.696  10.391  19.656  0.00  0.00    +0.000 A 
BRANCH  19  26
ATOM     25  C   UNL     1      -1.829  13.143  20.949  0.00  0.00    +0.000 C 
ATOM     26  O   UNL     1      -1.706  11.837  21.446  0.00  0.00    +0.000 OA
ENDBRANCH  19  26
BRANCH  24  27
ATOM     27  O   UNL     1      -1.435  10.684  18.583  0.00  0.00    +0.000 OA
ATOM     28  C   UNL     1      -1.627  10.163  17.321  0.00  0.00    +0.000 C 
ENDBRANCH  24  27
ENDBRANCH  18  22
ENDBRANCH  17  18
ENDBRANCH  16  17
ENDBRANCH   1  16
TORSDOF 9
ENDMDL
