MODEL 1
REMARK VINA RESULT:      -8.5      0.000      0.000
REMARK  Name = 
REMARK  7 active torsions:
REMARK  status: ('A' for Active; 'I' for Inactive)
REMARK    1  A    between atoms: C_1  and  O_2
REMARK    2  A    between atoms: O_2  and  C_3
REMARK    3  A    between atoms: C_4  and  O_5
REMARK    4  A    between atoms: C_6  and  C_7
REMARK    5  A    between atoms: C_13  and  O_14
REMARK    6  A    between atoms: C_18  and  C_19
REMARK    7  A    between atoms: C_22  and  O_23
REMARK                            x       y       z     vdW  Elec       q    Type
REMARK                         _______ _______ _______ _____ _____    ______ ____
ROOT
ATOM      1  C   UNL     1       6.043   4.767  18.812  0.00  0.00    +0.000 A 
ATOM      2  C   UNL     1       6.668   4.506  17.577  0.00  0.00    +0.000 A 
ATOM      3  C   UNL     1       5.952   4.137  16.428  0.00  0.00    +0.000 A 
ATOM      4  C   UNL     1       4.553   4.028  16.557  0.00  0.00    +0.000 A 
ATOM      5  C   UNL     1       3.909   4.261  17.785  0.00  0.00    +0.000 A 
ATOM      6  C   UNL     1       4.649   4.691  18.896  0.00  0.00    +0.000 A 
ATOM      7  O   UNL     1       4.047   5.072  20.070  0.00  0.00    +0.000 OA
ATOM      8  C   UNL     1       2.662   5.451  19.953  0.00  0.00    +0.000 C 
ATOM      9  C   UNL     1       1.913   4.274  19.361  0.00  0.00    +0.000 C 
ATOM     10  C   UNL     1       2.447   4.020  17.981  0.00  0.00    +0.000 C 
ATOM     11  O   UNL     1       1.707   3.564  17.118  0.00  0.00    +0.000 OA
ENDROOT
BRANCH   3  12
ATOM     12  C   UNL     1       6.693   3.894  15.131  0.00  0.00    +0.000 C 
ATOM     13  C   UNL     1       7.008   5.166  14.345  0.00  0.00    +0.000 C 
ATOM     14  C   UNL     1       7.028   4.717  12.882  0.00  0.00    +0.000 C 
ATOM     15  C   UNL     1       6.151   3.496  12.880  0.00  0.00    +0.000 C 
ATOM     16  O   UNL     1       5.715   2.909  11.905  0.00  0.00    +0.000 OA
ATOM     17  N   UNL     1       5.922   3.120  14.185  0.00  0.00    +0.000 N 
ATOM     18  H   UNL     1       5.529   2.206  14.386  0.00  0.00    +0.000 HD
ENDBRANCH   3  12
BRANCH   8  19
ATOM     19  C   UNL     1       2.487   6.816  19.286  0.00  0.00    +0.000 A 
ATOM     20  C   UNL     1       3.066   7.117  18.041  0.00  0.00    +0.000 A 
ATOM     21  C   UNL     1       2.896   8.374  17.452  0.00  0.00    +0.000 A 
ATOM     22  C   UNL     1       2.133   9.337  18.098  0.00  0.00    +0.000 A 
ATOM     23  C   UNL     1       1.526   9.060  19.315  0.00  0.00    +0.000 A 
ATOM     24  C   UNL     1       1.695   7.803  19.902  0.00  0.00    +0.000 A 
BRANCH  22  25
ATOM     25  O   UNL     1       1.954  10.578  17.563  0.00  0.00    +0.000 OA
ATOM     26  H   UNL     1       2.611  10.708  16.860  0.00  0.00    +0.000 HD
ENDBRANCH  22  25
ENDBRANCH   8  19
BRANCH   1  28
ATOM     27  C   UNL     1       7.828   6.178  19.531  0.00  0.00    +0.000 C 
ATOM     28  O   UNL     1       6.914   5.121  19.818  0.00  0.00    +0.000 OA
ENDBRANCH   1  28
BRANCH   2  29
ATOM     29  O   UNL     1       8.037   4.607  17.501  0.00  0.00    +0.000 OA
ATOM     30  H   UNL     1       8.221   5.027  16.636  0.00  0.00    +0.000 HD
ENDBRANCH   2  29
BRANCH   4  31
ATOM     31  O   UNL     1       3.774   3.714  15.477  0.00  0.00    +0.000 OA
ATOM     32  H   UNL     1       2.840   3.918  15.658  0.00  0.00    +0.000 HD
ENDBRANCH   4  31
TORSDOF 6
ENDMDL
MODEL 2
REMARK VINA RESULT:      -8.2      7.152     11.174
REMARK  Name = 
REMARK  7 active torsions:
REMARK  status: ('A' for Active; 'I' for Inactive)
REMARK    1  A    between atoms: C_1  and  O_2
REMARK    2  A    between atoms: O_2  and  C_3
REMARK    3  A    between atoms: C_4  and  O_5
REMARK    4  A    between atoms: C_6  and  C_7
REMARK    5  A    between atoms: C_13  and  O_14
REMARK    6  A    between atoms: C_18  and  C_19
REMARK    7  A    between atoms: C_22  and  O_23
REMARK                            x       y       z     vdW  Elec       q    Type
REMARK                         _______ _______ _______ _____ _____    ______ ____
ROOT
ATOM      1  C   UNL     1      -3.627  10.769  17.119  0.00  0.00    +0.000 A 
ATOM      2  C   UNL     1      -2.340  10.665  17.681  0.00  0.00    +0.000 A 
ATOM      3  C   UNL     1      -1.975  11.322  18.867  0.00  0.00    +0.000 A 
ATOM      4  C   UNL     1      -2.962  12.113  19.487  0.00  0.00    +0.000 A 
ATOM      5  C   UNL     1      -4.247  12.251  18.932  0.00  0.00    +0.000 A 
ATOM      6  C   UNL     1      -4.597  11.530  17.781  0.00  0.00    +0.000 A 
ATOM      7  O   UNL     1      -5.880  11.518  17.290  0.00  0.00    +0.000 OA
ATOM      8  C   UNL     1      -6.902  11.874  18.240  0.00  0.00    +0.000 C 
ATOM      9  C   UNL     1      -6.576  13.257  18.766  0.00  0.00    +0.000 C 
ATOM     10  C   UNL     1      -5.265  13.189  19.495  0.00  0.00    +0.000 C 
ATOM     11  O   UNL     1      -5.056  13.938  20.441  0.00  0.00    +0.000 OA
ENDROOT
BRANCH   3  12
ATOM     12  C   UNL     1      -0.578  11.143  19.420  0.00  0.00    +0.000 C 
ATOM     13  C   UNL     1       0.412  12.217  18.973  0.00  0.00    +0.000 C 
ATOM     14  C   UNL     1       1.769  11.510  18.970  0.00  0.00    +0.000 C 
ATOM     15  C   UNL     1       1.408  10.062  18.781  0.00  0.00    +0.000 C 
ATOM     16  O   UNL     1       2.168   9.146  18.524  0.00  0.00    +0.000 OA
ATOM     17  N   UNL     1       0.050   9.924  18.964  0.00  0.00    +0.000 N 
ATOM     18  H   UNL     1      -0.351   9.000  19.084  0.00  0.00    +0.000 HD
ENDBRANCH   3  12
BRANCH   8  19
ATOM     19  C   UNL     1      -7.160  10.765  19.261  0.00  0.00    +0.000 A 
ATOM     20  C   UNL     1      -6.890   9.415  18.978  0.00  0.00    +0.000 A 
ATOM     21  C   UNL     1      -7.139   8.416  19.924  0.00  0.00    +0.000 A 
ATOM     22  C   UNL     1      -7.647   8.762  21.169  0.00  0.00    +0.000 A 
ATOM     23  C   UNL     1      -7.897  10.089  21.487  0.00  0.00    +0.000 A 
ATOM     24  C   UNL     1      -7.647  11.086  20.541  0.00  0.00    +0.000 A 
BRANCH  22  25
ATOM     25  O   UNL     1      -7.914   7.817  22.114  0.00  0.00    +0.000 OA
ATOM     26  H   UNL     1      -8.495   8.209  22.787  0.00  0.00    +0.000 HD
ENDBRANCH  22  25
ENDBRANCH   8  19
BRANCH   1  28
ATOM     27  C   UNL     1      -3.302  10.643  14.759  0.00  0.00    +0.000 C 
ATOM     28  O   UNL     1      -3.793  10.047  15.959  0.00  0.00    +0.000 OA
ENDBRANCH   1  28
BRANCH   2  29
ATOM     29  O   UNL     1      -1.402   9.897  17.033  0.00  0.00    +0.000 OA
ATOM     30  H   UNL     1      -0.534  10.265  17.296  0.00  0.00    +0.000 HD
ENDBRANCH   2  29
BRANCH   4  31
ATOM     31  O   UNL     1      -2.704  12.754  20.667  0.00  0.00    +0.000 OA
ATOM     32  H   UNL     1      -1.789  12.593  20.952  0.00  0.00    +0.000 HD
ENDBRANCH   4  31
TORSDOF 6
ENDMDL
MODEL 3
REMARK VINA RESULT:      -7.9      7.078     10.144
REMARK  Name = 
REMARK  7 active torsions:
REMARK  status: ('A' for Active; 'I' for Inactive)
REMARK    1  A    between atoms: C_1  and  O_2
REMARK    2  A    between atoms: O_2  and  C_3
REMARK    3  A    between atoms: C_4  and  O_5
REMARK    4  A    between atoms: C_6  and  C_7
REMARK    5  A    between atoms: C_13  and  O_14
REMARK    6  A    between atoms: C_18  and  C_19
REMARK    7  A    between atoms: C_22  and  O_23
REMARK                            x       y       z     vdW  Elec       q    Type
REMARK                         _______ _______ _______ _____ _____    ______ ____
ROOT
ATOM      1  C   UNL     1       0.185  12.433  21.676  0.00  0.00    +0.000 A 
ATOM      2  C   UNL     1       0.692  13.742  21.564  0.00  0.00    +0.000 A 
ATOM      3  C   UNL     1       1.443  14.172  20.459  0.00  0.00    +0.000 A 
ATOM      4  C   UNL     1       1.684  13.225  19.445  0.00  0.00    +0.000 A 
ATOM      5  C   UNL     1       1.208  11.905  19.545  0.00  0.00    +0.000 A 
ATOM      6  C   UNL     1       0.406  11.528  20.632  0.00  0.00    +0.000 A 
ATOM      7  O   UNL     1      -0.202  10.298  20.698  0.00  0.00    +0.000 OA
ATOM      8  C   UNL     1      -0.362   9.627  19.434  0.00  0.00    +0.000 C 
ATOM      9  C   UNL     1       1.014   9.477  18.817  0.00  0.00    +0.000 C 
ATOM     10  C   UNL     1       1.565  10.848  18.551  0.00  0.00    +0.000 C 
ATOM     11  O   UNL     1       2.325  11.025  17.607  0.00  0.00    +0.000 OA
ENDROOT
BRANCH   3  12
ATOM     12  C   UNL     1       1.935  15.602  20.401  0.00  0.00    +0.000 C 
ATOM     13  C   UNL     1       1.133  16.500  19.461  0.00  0.00    +0.000 C 
ATOM     14  C   UNL     1       2.139  17.548  18.980  0.00  0.00    +0.000 C 
ATOM     15  C   UNL     1       3.465  16.853  19.129  0.00  0.00    +0.000 C 
ATOM     16  O   UNL     1       4.539  17.223  18.691  0.00  0.00    +0.000 OA
ATOM     17  N   UNL     1       3.276  15.709  19.873  0.00  0.00    +0.000 N 
ATOM     18  H   UNL     1       4.077  15.219  20.257  0.00  0.00    +0.000 HD
ENDBRANCH   3  12
BRANCH   8  19
ATOM     19  C   UNL     1      -1.463  10.252  18.577  0.00  0.00    +0.000 A 
ATOM     20  C   UNL     1      -1.611   9.945  17.214  0.00  0.00    +0.000 A 
ATOM     21  C   UNL     1      -2.623  10.533  16.448  0.00  0.00    +0.000 A 
ATOM     22  C   UNL     1      -3.506  11.423  17.044  0.00  0.00    +0.000 A 
ATOM     23  C   UNL     1      -3.402  11.723  18.395  0.00  0.00    +0.000 A 
ATOM     24  C   UNL     1      -2.392  11.135  19.160  0.00  0.00    +0.000 A 
BRANCH  22  25
ATOM     25  O   UNL     1      -4.498  12.025  16.330  0.00  0.00    +0.000 OA
ATOM     26  H   UNL     1      -4.495  11.660  15.430  0.00  0.00    +0.000 HD
ENDBRANCH  22  25
ENDBRANCH   8  19
BRANCH   1  28
ATOM     27  C   UNL     1      -1.954  12.247  22.717  0.00  0.00    +0.000 C 
ATOM     28  O   UNL     1      -0.533  12.205  22.829  0.00  0.00    +0.000 OA
ENDBRANCH   1  28
BRANCH   2  29
ATOM     29  O   UNL     1       0.448  14.629  22.585  0.00  0.00    +0.000 OA
ATOM     30  H   UNL     1       1.073  14.387  23.298  0.00  0.00    +0.000 HD
ENDBRANCH   2  29
BRANCH   4  31
ATOM     31  O   UNL     1       2.372  13.571  18.314  0.00  0.00    +0.000 OA
ATOM     32  H   UNL     1       2.756  14.459  18.406  0.00  0.00    +0.000 HD
ENDBRANCH   4  31
TORSDOF 6
ENDMDL
MODEL 4
REMARK VINA RESULT:      -7.8      7.390     10.644
REMARK  Name = 
REMARK  7 active torsions:
REMARK  status: ('A' for Active; 'I' for Inactive)
REMARK    1  A    between atoms: C_1  and  O_2
REMARK    2  A    between atoms: O_2  and  C_3
REMARK    3  A    between atoms: C_4  and  O_5
REMARK    4  A    between atoms: C_6  and  C_7
REMARK    5  A    between atoms: C_13  and  O_14
REMARK    6  A    between atoms: C_18  and  C_19
REMARK    7  A    between atoms: C_22  and  O_23
REMARK                            x       y       z     vdW  Elec       q    Type
REMARK                         _______ _______ _______ _____ _____    ______ ____
ROOT
ATOM      1  C   UNL     1      -0.048  12.517  21.974  0.00  0.00    +0.000 A 
ATOM      2  C   UNL     1       0.297  13.882  21.969  0.00  0.00    +0.000 A 
ATOM      3  C   UNL     1       1.023  14.477  20.925  0.00  0.00    +0.000 A 
ATOM      4  C   UNL     1       1.409  13.639  19.860  0.00  0.00    +0.000 A 
ATOM      5  C   UNL     1       1.097  12.268  19.854  0.00  0.00    +0.000 A 
ATOM      6  C   UNL     1       0.315  11.721  20.882  0.00  0.00    +0.000 A 
ATOM      7  O   UNL     1      -0.139  10.425  20.842  0.00  0.00    +0.000 OA
ATOM      8  C   UNL     1      -0.177   9.830  19.531  0.00  0.00    +0.000 C 
ATOM      9  C   UNL     1       1.225   9.891  18.960  0.00  0.00    +0.000 C 
ATOM     10  C   UNL     1       1.610  11.334  18.806  0.00  0.00    +0.000 C 
ATOM     11  O   UNL     1       2.371  11.668  17.907  0.00  0.00    +0.000 OA
ENDROOT
BRANCH   3  12
ATOM     12  C   UNL     1       1.336  15.956  20.982  0.00  0.00    +0.000 C 
ATOM     13  C   UNL     1       0.591  16.791  19.942  0.00  0.00    +0.000 C 
ATOM     14  C   UNL     1       1.524  17.971  19.657  0.00  0.00    +0.000 C 
ATOM     15  C   UNL     1       2.884  17.432  20.008  0.00  0.00    +0.000 C 
ATOM     16  O   UNL     1       3.960  17.946  19.762  0.00  0.00    +0.000 OA
ATOM     17  N   UNL     1       2.722  16.244  20.685  0.00  0.00    +0.000 N 
ATOM     18  H   UNL     1       3.505  15.836  21.185  0.00  0.00    +0.000 HD
ENDBRANCH   3  12
BRANCH   8  19
ATOM     19  C   UNL     1      -1.321  10.377  18.677  0.00  0.00    +0.000 A 
ATOM     20  C   UNL     1      -2.251  11.301  19.182  0.00  0.00    +0.000 A 
ATOM     21  C   UNL     1      -3.293  11.785  18.383  0.00  0.00    +0.000 A 
ATOM     22  C   UNL     1      -3.403  11.359  17.066  0.00  0.00    +0.000 A 
ATOM     23  C   UNL     1      -2.482  10.469  16.532  0.00  0.00    +0.000 A 
ATOM     24  C   UNL     1      -1.442   9.988  17.330  0.00  0.00    +0.000 A 
BRANCH  22  25
ATOM     25  O   UNL     1      -4.410  11.797  16.260  0.00  0.00    +0.000 OA
ATOM     26  H   UNL     1      -5.241  11.388  16.553  0.00  0.00    +0.000 HD
ENDBRANCH  22  25
ENDBRANCH   8  19
BRANCH   1  28
ATOM     27  C   UNL     1      -2.183  12.040  22.929  0.00  0.00    +0.000 C 
ATOM     28  O   UNL     1      -0.766  12.123  23.081  0.00  0.00    +0.000 OA
ENDBRANCH   1  28
BRANCH   2  29
ATOM     29  O   UNL     1      -0.085  14.658  23.037  0.00  0.00    +0.000 OA
ATOM     30  H   UNL     1       0.554  14.456  23.751  0.00  0.00    +0.000 HD
ENDBRANCH   2  29
BRANCH   4  31
ATOM     31  O   UNL     1       2.083  14.145  18.783  0.00  0.00    +0.000 OA
ATOM     32  H   UNL     1       2.983  13.780  18.739  0.00  0.00    +0.000 HD
ENDBRANCH   4  31
TORSDOF 6
ENDMDL
MODEL 5
REMARK VINA RESULT:      -7.8      8.292     12.169
REMARK  Name = 
REMARK  7 active torsions:
REMARK  status: ('A' for Active; 'I' for Inactive)
REMARK    1  A    between atoms: C_1  and  O_2
REMARK    2  A    between atoms: O_2  and  C_3
REMARK    3  A    between atoms: C_4  and  O_5
REMARK    4  A    between atoms: C_6  and  C_7
REMARK    5  A    between atoms: C_13  and  O_14
REMARK    6  A    between atoms: C_18  and  C_19
REMARK    7  A    between atoms: C_22  and  O_23
REMARK                            x       y       z     vdW  Elec       q    Type
REMARK                         _______ _______ _______ _____ _____    ______ ____
ROOT
ATOM      1  C   UNL     1      -4.342  12.752  21.255  0.00  0.00    +0.000 A 
ATOM      2  C   UNL     1      -2.946  12.918  21.175  0.00  0.00    +0.000 A 
ATOM      3  C   UNL     1      -2.220  12.669  19.999  0.00  0.00    +0.000 A 
ATOM      4  C   UNL     1      -2.952  12.231  18.879  0.00  0.00    +0.000 A 
ATOM      5  C   UNL     1      -4.343  12.034  18.942  0.00  0.00    +0.000 A 
ATOM      6  C   UNL     1      -5.046  12.354  20.113  0.00  0.00    +0.000 A 
ATOM      7  O   UNL     1      -6.417  12.321  20.172  0.00  0.00    +0.000 OA
ATOM      8  C   UNL     1      -7.087  12.404  18.901  0.00  0.00    +0.000 C 
ATOM      9  C   UNL     1      -6.592  11.256  18.045  0.00  0.00    +0.000 C 
ATOM     10  C   UNL     1      -5.120  11.442  17.811  0.00  0.00    +0.000 C 
ATOM     11  O   UNL     1      -4.615  11.041  16.770  0.00  0.00    +0.000 OA
ENDROOT
BRANCH   3  12
ATOM     12  C   UNL     1      -0.723  12.892  19.985  0.00  0.00    +0.000 C 
ATOM     13  C   UNL     1      -0.271  14.030  19.071  0.00  0.00    +0.000 C 
ATOM     14  C   UNL     1       1.135  13.626  18.622  0.00  0.00    +0.000 C 
ATOM     15  C   UNL     1       1.126  12.128  18.752  0.00  0.00    +0.000 C 
ATOM     16  O   UNL     1       1.962  11.351  18.326  0.00  0.00    +0.000 OA
ATOM     17  N   UNL     1       0.004  11.758  19.461  0.00  0.00    +0.000 N 
ATOM     18  H   UNL     1      -0.072  10.816  19.831  0.00  0.00    +0.000 HD
ENDBRANCH   3  12
BRANCH   8  19
ATOM     19  C   UNL     1      -7.034  13.812  18.306  0.00  0.00    +0.000 A 
ATOM     20  C   UNL     1      -7.184  14.044  16.928  0.00  0.00    +0.000 A 
ATOM     21  C   UNL     1      -7.127  15.340  16.404  0.00  0.00    +0.000 A 
ATOM     22  C   UNL     1      -6.935  16.417  17.258  0.00  0.00    +0.000 A 
ATOM     23  C   UNL     1      -6.812  16.221  18.627  0.00  0.00    +0.000 A 
ATOM     24  C   UNL     1      -6.870  14.926  19.148  0.00  0.00    +0.000 A 
BRANCH  22  25
ATOM     25  O   UNL     1      -6.862  17.693  16.787  0.00  0.00    +0.000 OA
ATOM     26  H   UNL     1      -7.763  18.048  16.717  0.00  0.00    +0.000 HD
ENDBRANCH  22  25
ENDBRANCH   8  19
BRANCH   1  28
ATOM     27  C   UNL     1      -5.445  14.350  22.642  0.00  0.00    +0.000 C 
ATOM     28  O   UNL     1      -4.873  13.052  22.490  0.00  0.00    +0.000 OA
ENDBRANCH   1  28
BRANCH   2  29
ATOM     29  O   UNL     1      -2.269  13.330  22.297  0.00  0.00    +0.000 OA
ATOM     30  H   UNL     1      -2.925  13.816  22.836  0.00  0.00    +0.000 HD
ENDBRANCH   2  29
BRANCH   4  31
ATOM     31  O   UNL     1      -2.329  12.005  17.682  0.00  0.00    +0.000 OA
ATOM     32  H   UNL     1      -1.480  12.476  17.643  0.00  0.00    +0.000 HD
ENDBRANCH   4  31
TORSDOF 6
ENDMDL
MODEL 6
REMARK VINA RESULT:      -7.7      8.555     12.028
REMARK  Name = 
REMARK  7 active torsions:
REMARK  status: ('A' for Active; 'I' for Inactive)
REMARK    1  A    between atoms: C_1  and  O_2
REMARK    2  A    between atoms: O_2  and  C_3
REMARK    3  A    between atoms: C_4  and  O_5
REMARK    4  A    between atoms: C_6  and  C_7
REMARK    5  A    between atoms: C_13  and  O_14
REMARK    6  A    between atoms: C_18  and  C_19
REMARK    7  A    between atoms: C_22  and  O_23
REMARK                            x       y       z     vdW  Elec       q    Type
REMARK                         _______ _______ _______ _____ _____    ______ ____
ROOT
ATOM      1  C   UNL     1      -2.482  11.786  18.770  0.00  0.00    +0.000 A 
ATOM      2  C   UNL     1      -3.645  12.326  19.350  0.00  0.00    +0.000 A 
ATOM      3  C   UNL     1      -3.754  12.592  20.724  0.00  0.00    +0.000 A 
ATOM      4  C   UNL     1      -2.635  12.286  21.522  0.00  0.00    +0.000 A 
ATOM      5  C   UNL     1      -1.470  11.724  20.970  0.00  0.00    +0.000 A 
ATOM      6  C   UNL     1      -1.372  11.531  19.584  0.00  0.00    +0.000 A 
ATOM      7  O   UNL     1      -0.205  11.126  18.984  0.00  0.00    +0.000 OA
ATOM      8  C   UNL     1       0.990  11.360  19.752  0.00  0.00    +0.000 C 
ATOM      9  C   UNL     1       0.831  10.646  21.079  0.00  0.00    +0.000 C 
ATOM     10  C   UNL     1      -0.324  11.265  21.812  0.00  0.00    +0.000 C 
ATOM     11  O   UNL     1      -0.320  11.297  23.037  0.00  0.00    +0.000 OA
ENDROOT
BRANCH   3  12
ATOM     12  C   UNL     1      -5.030  13.195  21.270  0.00  0.00    +0.000 C 
ATOM     13  C   UNL     1      -4.864  14.606  21.831  0.00  0.00    +0.000 C 
ATOM     14  C   UNL     1      -5.929  14.713  22.924  0.00  0.00    +0.000 C 
ATOM     15  C   UNL     1      -6.156  13.282  23.330  0.00  0.00    +0.000 C 
ATOM     16  O   UNL     1      -6.777  12.887  24.301  0.00  0.00    +0.000 OA
ATOM     17  N   UNL     1      -5.552  12.463  22.402  0.00  0.00    +0.000 N 
ATOM     18  H   UNL     1      -5.768  11.472  22.386  0.00  0.00    +0.000 HD
ENDBRANCH   3  12
BRANCH   8  19
ATOM     19  C   UNL     1       1.384  12.838  19.779  0.00  0.00    +0.000 A 
ATOM     20  C   UNL     1       2.233  13.364  20.768  0.00  0.00    +0.000 A 
ATOM     21  C   UNL     1       2.576  14.720  20.777  0.00  0.00    +0.000 A 
ATOM     22  C   UNL     1       2.085  15.558  19.786  0.00  0.00    +0.000 A 
ATOM     23  C   UNL     1       1.268  15.061  18.780  0.00  0.00    +0.000 A 
ATOM     24  C   UNL     1       0.927  13.707  18.772  0.00  0.00    +0.000 A 
BRANCH  22  25
ATOM     25  O   UNL     1       2.387  16.887  19.766  0.00  0.00    +0.000 OA
ATOM     26  H   UNL     1       1.835  17.339  20.425  0.00  0.00    +0.000 HD
ENDBRANCH  22  25
ENDBRANCH   8  19
BRANCH   1  28
ATOM     27  C   UNL     1      -2.757  10.265  16.952  0.00  0.00    +0.000 C 
ATOM     28  O   UNL     1      -2.566  11.603  17.407  0.00  0.00    +0.000 OA
ENDBRANCH   1  28
BRANCH   2  29
ATOM     29  O   UNL     1      -4.720  12.593  18.536  0.00  0.00    +0.000 OA
ATOM     30  H   UNL     1      -5.268  11.782  18.550  0.00  0.00    +0.000 HD
ENDBRANCH   2  29
BRANCH   4  31
ATOM     31  O   UNL     1      -2.639  12.552  22.865  0.00  0.00    +0.000 OA
ATOM     32  H   UNL     1      -1.744  12.467  23.234  0.00  0.00    +0.000 HD
ENDBRANCH   4  31
TORSDOF 6
ENDMDL
MODEL 7
REMARK VINA RESULT:      -7.6      6.887     10.011
REMARK  Name = 
REMARK  7 active torsions:
REMARK  status: ('A' for Active; 'I' for Inactive)
REMARK    1  A    between atoms: C_1  and  O_2
REMARK    2  A    between atoms: O_2  and  C_3
REMARK    3  A    between atoms: C_4  and  O_5
REMARK    4  A    between atoms: C_6  and  C_7
REMARK    5  A    between atoms: C_13  and  O_14
REMARK    6  A    between atoms: C_18  and  C_19
REMARK    7  A    between atoms: C_22  and  O_23
REMARK                            x       y       z     vdW  Elec       q    Type
REMARK                         _______ _______ _______ _____ _____    ______ ____
ROOT
ATOM      1  C   UNL     1       0.708  12.808  21.102  0.00  0.00    +0.000 A 
ATOM      2  C   UNL     1       1.410  13.943  20.651  0.00  0.00    +0.000 A 
ATOM      3  C   UNL     1       2.141  13.955  19.452  0.00  0.00    +0.000 A 
ATOM      4  C   UNL     1       2.155  12.763  18.702  0.00  0.00    +0.000 A 
ATOM      5  C   UNL     1       1.481  11.610  19.144  0.00  0.00    +0.000 A 
ATOM      6  C   UNL     1       0.707  11.653  20.313  0.00  0.00    +0.000 A 
ATOM      7  O   UNL     1      -0.084  10.600  20.702  0.00  0.00    +0.000 OA
ATOM      8  C   UNL     1      -0.439   9.681  19.652  0.00  0.00    +0.000 C 
ATOM      9  C   UNL     1       0.848   9.149  19.055  0.00  0.00    +0.000 C 
ATOM     10  C   UNL     1       1.592  10.298  18.437  0.00  0.00    +0.000 C 
ATOM     11  O   UNL     1       2.303  10.106  17.458  0.00  0.00    +0.000 OA
ENDROOT
BRANCH   3  12
ATOM     12  C   UNL     1       2.851  15.221  19.024  0.00  0.00    +0.000 C 
ATOM     13  C   UNL     1       4.136  15.508  19.799  0.00  0.00    +0.000 C 
ATOM     14  C   UNL     1       4.257  17.033  19.789  0.00  0.00    +0.000 C 
ATOM     15  C   UNL     1       2.837  17.495  19.615  0.00  0.00    +0.000 C 
ATOM     16  O   UNL     1       2.415  18.631  19.742  0.00  0.00    +0.000 OA
ATOM     17  N   UNL     1       2.065  16.410  19.263  0.00  0.00    +0.000 N 
ATOM     18  H   UNL     1       1.128  16.552  18.900  0.00  0.00    +0.000 HD
ENDBRANCH   3  12
BRANCH   8  19
ATOM     19  C   UNL     1      -1.483  10.261  18.698  0.00  0.00    +0.000 A 
ATOM     20  C   UNL     1      -2.291  11.354  19.054  0.00  0.00    +0.000 A 
ATOM     21  C   UNL     1      -3.244  11.865  18.166  0.00  0.00    +0.000 A 
ATOM     22  C   UNL     1      -3.385  11.297  16.908  0.00  0.00    +0.000 A 
ATOM     23  C   UNL     1      -2.581  10.235  16.518  0.00  0.00    +0.000 A 
ATOM     24  C   UNL     1      -1.629   9.725  17.405  0.00  0.00    +0.000 A 
BRANCH  22  25
ATOM     25  O   UNL     1      -4.309  11.758  16.020  0.00  0.00    +0.000 OA
ATOM     26  H   UNL     1      -5.175  11.387  16.254  0.00  0.00    +0.000 HD
ENDBRANCH  22  25
ENDBRANCH   8  19
BRANCH   1  28
ATOM     27  C   UNL     1      -1.353  13.261  22.216  0.00  0.00    +0.000 C 
ATOM     28  O   UNL     1       0.047  12.995  22.295  0.00  0.00    +0.000 OA
ENDBRANCH   1  28
BRANCH   2  29
ATOM     29  O   UNL     1       1.385  15.079  21.423  0.00  0.00    +0.000 OA
ATOM     30  H   UNL     1       2.250  15.106  21.879  0.00  0.00    +0.000 HD
ENDBRANCH   2  29
BRANCH   4  31
ATOM     31  O   UNL     1       2.808  12.700  17.502  0.00  0.00    +0.000 OA
ATOM     32  H   UNL     1       3.471  11.989  17.510  0.00  0.00    +0.000 HD
ENDBRANCH   4  31
TORSDOF 6
ENDMDL
MODEL 8
REMARK VINA RESULT:      -7.6      7.873     11.039
REMARK  Name = 
REMARK  7 active torsions:
REMARK  status: ('A' for Active; 'I' for Inactive)
REMARK    1  A    between atoms: C_1  and  O_2
REMARK    2  A    between atoms: O_2  and  C_3
REMARK    3  A    between atoms: C_4  and  O_5
REMARK    4  A    between atoms: C_6  and  C_7
REMARK    5  A    between atoms: C_13  and  O_14
REMARK    6  A    between atoms: C_18  and  C_19
REMARK    7  A    between atoms: C_22  and  O_23
REMARK                            x       y       z     vdW  Elec       q    Type
REMARK                         _______ _______ _______ _____ _____    ______ ____
ROOT
ATOM      1  C   UNL     1      -1.261  13.783  20.983  0.00  0.00    +0.000 A 
ATOM      2  C   UNL     1      -0.862  15.050  20.517  0.00  0.00    +0.000 A 
ATOM      3  C   UNL     1       0.109  15.220  19.517  0.00  0.00    +0.000 A 
ATOM      4  C   UNL     1       0.690  14.051  18.989  0.00  0.00    +0.000 A 
ATOM      5  C   UNL     1       0.325  12.775  19.454  0.00  0.00    +0.000 A 
ATOM      6  C   UNL     1      -0.694  12.640  20.408  0.00  0.00    +0.000 A 
ATOM      7  O   UNL     1      -1.185  11.413  20.781  0.00  0.00    +0.000 OA
ATOM      8  C   UNL     1      -0.950  10.348  19.841  0.00  0.00    +0.000 C 
ATOM      9  C   UNL     1       0.547  10.248  19.627  0.00  0.00    +0.000 C 
ATOM     10  C   UNL     1       1.022  11.530  19.008  0.00  0.00    +0.000 C 
ATOM     11  O   UNL     1       1.982  11.519  18.248  0.00  0.00    +0.000 OA
ENDROOT
BRANCH   3  12
ATOM     12  C   UNL     1       0.468  16.615  19.054  0.00  0.00    +0.000 C 
ATOM     13  C   UNL     1      -0.485  17.189  18.007  0.00  0.00    +0.000 C 
ATOM     14  C   UNL     1       0.383  18.139  17.178  0.00  0.00    +0.000 C 
ATOM     15  C   UNL     1       1.772  17.591  17.360  0.00  0.00    +0.000 C 
ATOM     16  O   UNL     1       2.769  17.903  16.735  0.00  0.00    +0.000 OA
ATOM     17  N   UNL     1       1.746  16.667  18.381  0.00  0.00    +0.000 N 
ATOM     18  H   UNL     1       2.616  16.343  18.791  0.00  0.00    +0.000 HD
ENDBRANCH   3  12
BRANCH   8  19
ATOM     19  C   UNL     1      -1.843  10.455  18.604  0.00  0.00    +0.000 A 
ATOM     20  C   UNL     1      -3.001  11.250  18.589  0.00  0.00    +0.000 A 
ATOM     21  C   UNL     1      -3.806  11.330  17.448  0.00  0.00    +0.000 A 
ATOM     22  C   UNL     1      -3.450  10.625  16.306  0.00  0.00    +0.000 A 
ATOM     23  C   UNL     1      -2.296   9.854  16.283  0.00  0.00    +0.000 A 
ATOM     24  C   UNL     1      -1.493   9.776  17.423  0.00  0.00    +0.000 A 
BRANCH  22  25
ATOM     25  O   UNL     1      -4.213  10.667  15.179  0.00  0.00    +0.000 OA
ATOM     26  H   UNL     1      -4.971  11.253  15.340  0.00  0.00    +0.000 HD
ENDBRANCH  22  25
ENDBRANCH   8  19
BRANCH   1  28
ATOM     27  C   UNL     1      -3.574  13.597  21.539  0.00  0.00    +0.000 C 
ATOM     28  O   UNL     1      -2.229  13.823  21.960  0.00  0.00    +0.000 OA
ENDBRANCH   1  28
BRANCH   2  29
ATOM     29  O   UNL     1      -1.442  16.166  21.074  0.00  0.00    +0.000 OA
ATOM     30  H   UNL     1      -2.407  16.035  20.979  0.00  0.00    +0.000 HD
ENDBRANCH   2  29
BRANCH   4  31
ATOM     31  O   UNL     1       1.614  14.123  17.982  0.00  0.00    +0.000 OA
ATOM     32  H   UNL     1       1.183  14.329  17.136  0.00  0.00    +0.000 HD
ENDBRANCH   4  31
TORSDOF 6
ENDMDL
MODEL 9
REMARK VINA RESULT:      -7.6     10.842     13.425
REMARK  Name = 
REMARK  7 active torsions:
REMARK  status: ('A' for Active; 'I' for Inactive)
REMARK    1  A    between atoms: C_1  and  O_2
REMARK    2  A    between atoms: O_2  and  C_3
REMARK    3  A    between atoms: C_4  and  O_5
REMARK    4  A    between atoms: C_6  and  C_7
REMARK    5  A    between atoms: C_13  and  O_14
REMARK    6  A    between atoms: C_18  and  C_19
REMARK    7  A    between atoms: C_22  and  O_23
REMARK                            x       y       z     vdW  Elec       q    Type
REMARK                         _______ _______ _______ _____ _____    ______ ____
ROOT
ATOM      1  C   UNL     1      -5.779  12.430  21.817  0.00  0.00    +0.000 A 
ATOM      2  C   UNL     1      -4.585  12.917  22.382  0.00  0.00    +0.000 A 
ATOM      3  C   UNL     1      -3.412  13.101  21.633  0.00  0.00    +0.000 A 
ATOM      4  C   UNL     1      -3.470  12.767  20.266  0.00  0.00    +0.000 A 
ATOM      5  C   UNL     1      -4.644  12.256  19.684  0.00  0.00    +0.000 A 
ATOM      6  C   UNL     1      -5.816  12.147  20.447  0.00  0.00    +0.000 A 
ATOM      7  O   UNL     1      -7.020  11.795  19.888  0.00  0.00    +0.000 OA
ATOM      8  C   UNL     1      -7.118  12.004  18.466  0.00  0.00    +0.000 C 
ATOM      9  C   UNL     1      -6.006  11.212  17.809  0.00  0.00    +0.000 C 
ATOM     10  C   UNL     1      -4.691  11.768  18.272  0.00  0.00    +0.000 C 
ATOM     11  O   UNL     1      -3.718  11.728  17.529  0.00  0.00    +0.000 OA
ENDROOT
BRANCH   3  12
ATOM     12  C   UNL     1      -2.173  13.650  22.308  0.00  0.00    +0.000 C 
ATOM     13  C   UNL     1      -1.885  15.115  21.985  0.00  0.00    +0.000 C 
ATOM     14  C   UNL     1      -0.363  15.238  22.086  0.00  0.00    +0.000 C 
ATOM     15  C   UNL     1       0.119  13.838  21.823  0.00  0.00    +0.000 C 
ATOM     16  O   UNL     1       1.265  13.486  21.611  0.00  0.00    +0.000 OA
ATOM     17  N   UNL     1      -0.963  12.987  21.876  0.00  0.00    +0.000 N 
ATOM     18  H   UNL     1      -0.815  11.985  21.932  0.00  0.00    +0.000 HD
ENDBRANCH   3  12
BRANCH   8  19
ATOM     19  C   UNL     1      -7.251  13.483  18.103  0.00  0.00    +0.000 A 
ATOM     20  C   UNL     1      -7.691  14.442  19.032  0.00  0.00    +0.000 A 
ATOM     21  C   UNL     1      -7.810  15.789  18.676  0.00  0.00    +0.000 A 
ATOM     22  C   UNL     1      -7.476  16.192  17.391  0.00  0.00    +0.000 A 
ATOM     23  C   UNL     1      -7.012  15.273  16.461  0.00  0.00    +0.000 A 
ATOM     24  C   UNL     1      -6.892  13.927  16.817  0.00  0.00    +0.000 A 
BRANCH  22  25
ATOM     25  O   UNL     1      -7.589  17.493  17.002  0.00  0.00    +0.000 OA
ATOM     26  H   UNL     1      -7.487  17.537  16.037  0.00  0.00    +0.000 HD
ENDBRANCH  22  25
ENDBRANCH   8  19
BRANCH   1  28
ATOM     27  C   UNL     1      -7.771  13.391  22.713  0.00  0.00    +0.000 C 
ATOM     28  O   UNL     1      -6.821  12.326  22.710  0.00  0.00    +0.000 OA
ENDBRANCH   1  28
BRANCH   2  29
ATOM     29  O   UNL     1      -4.568  13.214  23.724  0.00  0.00    +0.000 OA
ATOM     30  H   UNL     1      -5.506  13.322  23.981  0.00  0.00    +0.000 HD
ENDBRANCH   2  29
BRANCH   4  31
ATOM     31  O   UNL     1      -2.385  12.954  19.454  0.00  0.00    +0.000 OA
ATOM     32  H   UNL     1      -1.713  12.270  19.617  0.00  0.00    +0.000 HD
ENDBRANCH   4  31
TORSDOF 6
ENDMDL
