MODEL 1
REMARK VINA RESULT:      -7.4      0.000      0.000
REMARK  Name = 
REMARK  6 active torsions:
REMARK  status: ('A' for Active; 'I' for Inactive)
REMARK    1  A    between atoms: C_1  and  O_2
REMARK    2  A    between atoms: O_2  and  C_3
REMARK    3  A    between atoms: C_5  and  O_6
REMARK    4  A    between atoms: O_6  and  C_7
REMARK    5  A    between atoms: C_9  and  C_10
REMARK    6  A    between atoms: C_14  and  N_15
REMARK                            x       y       z     vdW  Elec       q    Type
REMARK                         _______ _______ _______ _____ _____    ______ ____
ROOT
ATOM      1  C   UNL     1       2.526   7.019  19.151  0.00  0.00    +0.000 A 
ATOM      2  C   UNL     1       2.594   7.746  17.949  0.00  0.00    +0.000 A 
ATOM      3  C   UNL     1       1.983   8.998  17.822  0.00  0.00    +0.000 A 
ATOM      4  C   UNL     1       1.289   9.554  18.897  0.00  0.00    +0.000 A 
ATOM      5  C   UNL     1       1.211   8.861  20.109  0.00  0.00    +0.000 A 
ATOM      6  C   UNL     1       1.826   7.606  20.225  0.00  0.00    +0.000 A 
ENDROOT
BRANCH   1  11
ATOM      7  C   UNL     1       3.003   3.536  19.887  0.00  0.00    +0.000 A 
ATOM      8  N   UNL     1       4.288   3.300  19.656  0.00  0.00    +0.000 NA
ATOM      9  C   UNL     1       4.956   4.366  19.229  0.00  0.00    +0.000 A 
ATOM     10  N   UNL     1       4.456   5.578  19.038  0.00  0.00    +0.000 NA
ATOM     11  C   UNL     1       3.158   5.694  19.305  0.00  0.00    +0.000 A 
ATOM     12  N   UNL     1       2.382   4.692  19.723  0.00  0.00    +0.000 NA
BRANCH   7  14
ATOM     13  C   UNL     1       1.469   2.825  21.486  0.00  0.00    +0.000 C 
ATOM     14  O   UNL     1       2.184   2.507  20.300  0.00  0.00    +0.000 OA
ENDBRANCH   7  14
BRANCH   9  15
ATOM     15  O   UNL     1       6.302   4.264  18.946  0.00  0.00    +0.000 OA
ATOM     16  C   UNL     1       6.667   4.878  17.718  0.00  0.00    +0.000 C 
ENDBRANCH   9  15
ENDBRANCH   1  11
BRANCH   5  17
ATOM     17  N   UNL     1       0.501   9.418  21.209  0.00  0.00    +0.000 N 
ATOM     18  C   UNL     1      -0.304  10.539  21.218  0.00  0.00    +0.000 A 
ATOM     19  C   UNL     1      -0.719  10.735  22.512  0.00  0.00    +0.000 A 
ATOM     20  C   UNL     1      -0.149   9.673  23.224  0.00  0.00    +0.000 A 
ATOM     21  N   UNL     1       0.570   8.861  22.448  0.00  0.00    +0.000 NA
ENDBRANCH   5  17
TORSDOF 4
ENDMDL
MODEL 2
REMARK VINA RESULT:      -7.4      0.464      2.830
REMARK  Name = 
REMARK  6 active torsions:
REMARK  status: ('A' for Active; 'I' for Inactive)
REMARK    1  A    between atoms: C_1  and  O_2
REMARK    2  A    between atoms: O_2  and  C_3
REMARK    3  A    between atoms: C_5  and  O_6
REMARK    4  A    between atoms: O_6  and  C_7
REMARK    5  A    between atoms: C_9  and  C_10
REMARK    6  A    between atoms: C_14  and  N_15
REMARK                            x       y       z     vdW  Elec       q    Type
REMARK                         _______ _______ _______ _____ _____    ______ ____
ROOT
ATOM      1  C   UNL     1       2.513   7.066  19.149  0.00  0.00    +0.000 A 
ATOM      2  C   UNL     1       2.555   7.751  17.922  0.00  0.00    +0.000 A 
ATOM      3  C   UNL     1       1.936   8.996  17.763  0.00  0.00    +0.000 A 
ATOM      4  C   UNL     1       1.261   9.586  18.830  0.00  0.00    +0.000 A 
ATOM      5  C   UNL     1       1.209   8.936  20.068  0.00  0.00    +0.000 A 
ATOM      6  C   UNL     1       1.832   7.688  20.215  0.00  0.00    +0.000 A 
ENDROOT
BRANCH   1  11
ATOM      7  C   UNL     1       4.981   4.459  19.230  0.00  0.00    +0.000 A 
ATOM      8  N   UNL     1       4.327   3.367  19.604  0.00  0.00    +0.000 NA
ATOM      9  C   UNL     1       3.036   3.573  19.838  0.00  0.00    +0.000 A 
ATOM     10  N   UNL     1       2.395   4.727  19.720  0.00  0.00    +0.000 NA
ATOM     11  C   UNL     1       3.154   5.750  19.337  0.00  0.00    +0.000 A 
ATOM     12  N   UNL     1       4.462   5.666  19.091  0.00  0.00    +0.000 NA
BRANCH   7  14
ATOM     13  C   UNL     1       6.661   4.649  17.631  0.00  0.00    +0.000 C 
ATOM     14  O   UNL     1       6.337   4.393  18.991  0.00  0.00    +0.000 OA
ENDBRANCH   7  14
BRANCH   9  15
ATOM     15  O   UNL     1       2.234   2.525  20.237  0.00  0.00    +0.000 OA
ATOM     16  C   UNL     1       1.380   2.852  21.325  0.00  0.00    +0.000 C 
ENDBRANCH   9  15
ENDBRANCH   1  11
BRANCH   5  17
ATOM     17  N   UNL     1       0.518   9.528  21.162  0.00  0.00    +0.000 N 
ATOM     18  C   UNL     1      -0.053   8.894  22.247  0.00  0.00    +0.000 A 
ATOM     19  C   UNL     1      -0.669   9.858  23.007  0.00  0.00    +0.000 A 
ATOM     20  C   UNL     1      -0.402  11.056  22.331  0.00  0.00    +0.000 A 
ATOM     21  N   UNL     1       0.330  10.873  21.231  0.00  0.00    +0.000 NA
ENDBRANCH   5  17
TORSDOF 4
ENDMDL
MODEL 3
REMARK VINA RESULT:      -7.4      0.691      2.655
REMARK  Name = 
REMARK  6 active torsions:
REMARK  status: ('A' for Active; 'I' for Inactive)
REMARK    1  A    between atoms: C_1  and  O_2
REMARK    2  A    between atoms: O_2  and  C_3
REMARK    3  A    between atoms: C_5  and  O_6
REMARK    4  A    between atoms: O_6  and  C_7
REMARK    5  A    between atoms: C_9  and  C_10
REMARK    6  A    between atoms: C_14  and  N_15
REMARK                            x       y       z     vdW  Elec       q    Type
REMARK                         _______ _______ _______ _____ _____    ______ ____
ROOT
ATOM      1  C   UNL     1       2.536   7.049  19.086  0.00  0.00    +0.000 A 
ATOM      2  C   UNL     1       2.633   7.810  17.907  0.00  0.00    +0.000 A 
ATOM      3  C   UNL     1       2.046   9.076  17.809  0.00  0.00    +0.000 A 
ATOM      4  C   UNL     1       1.347   9.612  18.890  0.00  0.00    +0.000 A 
ATOM      5  C   UNL     1       1.240   8.885  20.081  0.00  0.00    +0.000 A 
ATOM      6  C   UNL     1       1.831   7.616  20.167  0.00  0.00    +0.000 A 
ENDROOT
BRANCH   1  11
ATOM      7  C   UNL     1       4.957   4.397  19.144  0.00  0.00    +0.000 A 
ATOM      8  N   UNL     1       4.260   3.289  19.361  0.00  0.00    +0.000 NA
ATOM      9  C   UNL     1       2.956   3.499  19.500  0.00  0.00    +0.000 A 
ATOM     10  N   UNL     1       2.340   4.671  19.432  0.00  0.00    +0.000 NA
ATOM     11  C   UNL     1       3.142   5.709  19.209  0.00  0.00    +0.000 A 
ATOM     12  N   UNL     1       4.466   5.622  19.069  0.00  0.00    +0.000 NA
BRANCH   7  14
ATOM     13  C   UNL     1       6.952   5.594  19.164  0.00  0.00    +0.000 C 
ATOM     14  O   UNL     1       6.327   4.326  19.017  0.00  0.00    +0.000 OA
ENDBRANCH   7  14
BRANCH   9  15
ATOM     15  O   UNL     1       2.110   2.435  19.733  0.00  0.00    +0.000 OA
ATOM     16  C   UNL     1       0.939   2.460  18.928  0.00  0.00    +0.000 C 
ENDBRANCH   9  15
ENDBRANCH   1  11
BRANCH   5  17
ATOM     17  N   UNL     1       0.524   9.422  21.187  0.00  0.00    +0.000 N 
ATOM     18  C   UNL     1      -0.326  10.509  21.199  0.00  0.00    +0.000 A 
ATOM     19  C   UNL     1      -0.729  10.699  22.498  0.00  0.00    +0.000 A 
ATOM     20  C   UNL     1      -0.104   9.668  23.210  0.00  0.00    +0.000 A 
ATOM     21  N   UNL     1       0.636   8.879  22.429  0.00  0.00    +0.000 NA
ENDBRANCH   5  17
TORSDOF 4
ENDMDL
MODEL 4
REMARK VINA RESULT:      -7.3      0.832      1.113
REMARK  Name = 
REMARK  6 active torsions:
REMARK  status: ('A' for Active; 'I' for Inactive)
REMARK    1  A    between atoms: C_1  and  O_2
REMARK    2  A    between atoms: O_2  and  C_3
REMARK    3  A    between atoms: C_5  and  O_6
REMARK    4  A    between atoms: O_6  and  C_7
REMARK    5  A    between atoms: C_9  and  C_10
REMARK    6  A    between atoms: C_14  and  N_15
REMARK                            x       y       z     vdW  Elec       q    Type
REMARK                         _______ _______ _______ _____ _____    ______ ____
ROOT
ATOM      1  C   UNL     1       2.361   7.224  19.165  0.00  0.00    +0.000 A 
ATOM      2  C   UNL     1       2.483   7.961  17.974  0.00  0.00    +0.000 A 
ATOM      3  C   UNL     1       1.935   9.243  17.853  0.00  0.00    +0.000 A 
ATOM      4  C   UNL     1       1.250   9.818  18.923  0.00  0.00    +0.000 A 
ATOM      5  C   UNL     1       1.118   9.115  20.125  0.00  0.00    +0.000 A 
ATOM      6  C   UNL     1       1.671   7.831  20.235  0.00  0.00    +0.000 A 
ENDROOT
BRANCH   1  11
ATOM      7  C   UNL     1       2.628   3.685  19.712  0.00  0.00    +0.000 A 
ATOM      8  N   UNL     1       3.926   3.417  19.650  0.00  0.00    +0.000 NA
ATOM      9  C   UNL     1       4.679   4.482  19.400  0.00  0.00    +0.000 A 
ATOM     10  N   UNL     1       4.246   5.723  19.227  0.00  0.00    +0.000 NA
ATOM     11  C   UNL     1       2.926   5.869  19.313  0.00  0.00    +0.000 A 
ATOM     12  N   UNL     1       2.071   4.872  19.543  0.00  0.00    +0.000 NA
BRANCH   7  14
ATOM     13  C   UNL     1       0.931   2.390  18.788  0.00  0.00    +0.000 C 
ATOM     14  O   UNL     1       1.730   2.663  19.930  0.00  0.00    +0.000 OA
ENDBRANCH   7  14
BRANCH   9  15
ATOM     15  O   UNL     1       6.048   4.349  19.305  0.00  0.00    +0.000 OA
ATOM     16  C   UNL     1       6.699   5.531  18.862  0.00  0.00    +0.000 C 
ENDBRANCH   9  15
ENDBRANCH   1  11
BRANCH   5  17
ATOM     17  N   UNL     1       0.417   9.693  21.220  0.00  0.00    +0.000 N 
ATOM     18  C   UNL     1       0.273   9.186  22.496  0.00  0.00    +0.000 A 
ATOM     19  C   UNL     1      -0.542  10.048  23.190  0.00  0.00    +0.000 A 
ATOM     20  C   UNL     1      -0.826  11.068  22.274  0.00  0.00    +0.000 A 
ATOM     21  N   UNL     1      -0.237  10.878  21.092  0.00  0.00    +0.000 NA
ENDBRANCH   5  17
TORSDOF 4
ENDMDL
MODEL 5
REMARK VINA RESULT:      -7.3      2.702      7.030
REMARK  Name = 
REMARK  6 active torsions:
REMARK  status: ('A' for Active; 'I' for Inactive)
REMARK    1  A    between atoms: C_1  and  O_2
REMARK    2  A    between atoms: O_2  and  C_3
REMARK    3  A    between atoms: C_5  and  O_6
REMARK    4  A    between atoms: O_6  and  C_7
REMARK    5  A    between atoms: C_9  and  C_10
REMARK    6  A    between atoms: C_14  and  N_15
REMARK                            x       y       z     vdW  Elec       q    Type
REMARK                         _______ _______ _______ _____ _____    ______ ____
ROOT
ATOM      1  C   UNL     1       5.067   5.071  18.705  0.00  0.00    +0.000 A 
ATOM      2  C   UNL     1       6.224   5.410  19.429  0.00  0.00    +0.000 A 
ATOM      3  C   UNL     1       7.470   5.514  18.800  0.00  0.00    +0.000 A 
ATOM      4  C   UNL     1       7.587   5.280  17.430  0.00  0.00    +0.000 A 
ATOM      5  C   UNL     1       6.453   4.950  16.680  0.00  0.00    +0.000 A 
ATOM      6  C   UNL     1       5.210   4.848  17.321  0.00  0.00    +0.000 A 
ENDROOT
BRANCH   1  11
ATOM      7  C   UNL     1       1.980   3.693  19.918  0.00  0.00    +0.000 A 
ATOM      8  N   UNL     1       1.323   4.715  20.449  0.00  0.00    +0.000 NA
ATOM      9  C   UNL     1       1.986   5.865  20.386  0.00  0.00    +0.000 A 
ATOM     10  N   UNL     1       3.185   6.048  19.852  0.00  0.00    +0.000 NA
ATOM     11  C   UNL     1       3.744   4.951  19.350  0.00  0.00    +0.000 A 
ATOM     12  N   UNL     1       3.182   3.741  19.370  0.00  0.00    +0.000 NA
BRANCH   7  14
ATOM     13  C   UNL     1       0.726   2.119  18.751  0.00  0.00    +0.000 C 
ATOM     14  O   UNL     1       1.422   2.433  19.949  0.00  0.00    +0.000 OA
ENDBRANCH   7  14
BRANCH   9  15
ATOM     15  O   UNL     1       1.422   7.012  20.904  0.00  0.00    +0.000 OA
ATOM     16  C   UNL     1       1.696   8.172  20.131  0.00  0.00    +0.000 C 
ENDBRANCH   9  15
ENDBRANCH   1  11
BRANCH   5  17
ATOM     17  N   UNL     1       6.564   4.706  15.282  0.00  0.00    +0.000 N 
ATOM     18  C   UNL     1       5.826   3.827  14.515  0.00  0.00    +0.000 A 
ATOM     19  C   UNL     1       6.329   3.877  13.238  0.00  0.00    +0.000 A 
ATOM     20  C   UNL     1       7.352   4.831  13.305  0.00  0.00    +0.000 A 
ATOM     21  N   UNL     1       7.489   5.353  14.525  0.00  0.00    +0.000 NA
ENDBRANCH   5  17
TORSDOF 4
ENDMDL
MODEL 6
REMARK VINA RESULT:      -7.2      3.336      7.605
REMARK  Name = 
REMARK  6 active torsions:
REMARK  status: ('A' for Active; 'I' for Inactive)
REMARK    1  A    between atoms: C_1  and  O_2
REMARK    2  A    between atoms: O_2  and  C_3
REMARK    3  A    between atoms: C_5  and  O_6
REMARK    4  A    between atoms: O_6  and  C_7
REMARK    5  A    between atoms: C_9  and  C_10
REMARK    6  A    between atoms: C_14  and  N_15
REMARK                            x       y       z     vdW  Elec       q    Type
REMARK                         _______ _______ _______ _____ _____    ______ ____
ROOT
ATOM      1  C   UNL     1       5.295   5.802  17.760  0.00  0.00    +0.000 A 
ATOM      2  C   UNL     1       6.314   5.374  18.630  0.00  0.00    +0.000 A 
ATOM      3  C   UNL     1       7.466   4.744  18.145  0.00  0.00    +0.000 A 
ATOM      4  C   UNL     1       7.625   4.528  16.777  0.00  0.00    +0.000 A 
ATOM      5  C   UNL     1       6.635   4.951  15.884  0.00  0.00    +0.000 A 
ATOM      6  C   UNL     1       5.484   5.580  16.381  0.00  0.00    +0.000 A 
ENDROOT
BRANCH   1  11
ATOM      7  C   UNL     1       2.328   6.502  19.658  0.00  0.00    +0.000 A 
ATOM      8  N   UNL     1       1.814   7.599  19.116  0.00  0.00    +0.000 NA
ATOM      9  C   UNL     1       2.531   8.080  18.107  0.00  0.00    +0.000 A 
ATOM     10  N   UNL     1       3.653   7.563  17.628  0.00  0.00    +0.000 NA
ATOM     11  C   UNL     1       4.070   6.463  18.250  0.00  0.00    +0.000 A 
ATOM     12  N   UNL     1       3.443   5.899  19.284  0.00  0.00    +0.000 NA
BRANCH   7  14
ATOM     13  C   UNL     1       2.202   4.618  21.018  0.00  0.00    +0.000 C 
ATOM     14  O   UNL     1       1.703   5.919  20.739  0.00  0.00    +0.000 OA
ENDBRANCH   7  14
BRANCH   9  15
ATOM     15  O   UNL     1       2.116   9.220  17.451  0.00  0.00    +0.000 OA
ATOM     16  C   UNL     1       1.225  10.017  18.219  0.00  0.00    +0.000 C 
ENDBRANCH   9  15
ENDBRANCH   1  11
BRANCH   5  17
ATOM     17  N   UNL     1       6.787   4.731  14.486  0.00  0.00    +0.000 N 
ATOM     18  C   UNL     1       6.106   3.831  13.691  0.00  0.00    +0.000 A 
ATOM     19  C   UNL     1       6.635   3.920  12.427  0.00  0.00    +0.000 A 
ATOM     20  C   UNL     1       7.612   4.919  12.529  0.00  0.00    +0.000 A 
ATOM     21  N   UNL     1       7.698   5.430  13.758  0.00  0.00    +0.000 NA
ENDBRANCH   5  17
TORSDOF 4
ENDMDL
MODEL 7
REMARK VINA RESULT:      -7.2      1.135      1.135
REMARK  Name = 
REMARK  6 active torsions:
REMARK  status: ('A' for Active; 'I' for Inactive)
REMARK    1  A    between atoms: C_1  and  O_2
REMARK    2  A    between atoms: O_2  and  C_3
REMARK    3  A    between atoms: C_5  and  O_6
REMARK    4  A    between atoms: O_6  and  C_7
REMARK    5  A    between atoms: C_9  and  C_10
REMARK    6  A    between atoms: C_14  and  N_15
REMARK                            x       y       z     vdW  Elec       q    Type
REMARK                         _______ _______ _______ _____ _____    ______ ____
ROOT
ATOM      1  C   UNL     1       2.354   7.456  18.743  0.00  0.00    +0.000 A 
ATOM      2  C   UNL     1       2.452   8.392  17.698  0.00  0.00    +0.000 A 
ATOM      3  C   UNL     1       1.916   9.678  17.822  0.00  0.00    +0.000 A 
ATOM      4  C   UNL     1       1.268  10.059  18.995  0.00  0.00    +0.000 A 
ATOM      5  C   UNL     1       1.161   9.156  20.058  0.00  0.00    +0.000 A 
ATOM      6  C   UNL     1       1.701   7.869  19.923  0.00  0.00    +0.000 A 
ENDROOT
BRANCH   1  11
ATOM      7  C   UNL     1       2.618   3.924  18.148  0.00  0.00    +0.000 A 
ATOM      8  N   UNL     1       3.861   3.603  18.484  0.00  0.00    +0.000 NA
ATOM      9  C   UNL     1       4.585   4.638  18.895  0.00  0.00    +0.000 A 
ATOM     10  N   UNL     1       4.171   5.893  18.995  0.00  0.00    +0.000 NA
ATOM     11  C   UNL     1       2.907   6.092  18.632  0.00  0.00    +0.000 A 
ATOM     12  N   UNL     1       2.090   5.136  18.188  0.00  0.00    +0.000 NA
BRANCH   7  14
ATOM     13  C   UNL     1       1.124   2.232  18.712  0.00  0.00    +0.000 C 
ATOM     14  O   UNL     1       1.768   2.951  17.669  0.00  0.00    +0.000 OA
ENDBRANCH   7  14
BRANCH   9  15
ATOM     15  O   UNL     1       5.898   4.449  19.273  0.00  0.00    +0.000 OA
ATOM     16  C   UNL     1       6.833   4.900  18.303  0.00  0.00    +0.000 C 
ENDBRANCH   9  15
ENDBRANCH   1  11
BRANCH   5  17
ATOM     17  N   UNL     1       0.496   9.534  21.258  0.00  0.00    +0.000 N 
ATOM     18  C   UNL     1      -0.444  10.531  21.427  0.00  0.00    +0.000 A 
ATOM     19  C   UNL     1      -0.751  10.581  22.766  0.00  0.00    +0.000 A 
ATOM     20  C   UNL     1       0.022   9.562  23.337  0.00  0.00    +0.000 A 
ATOM     21  N   UNL     1       0.760   8.911  22.437  0.00  0.00    +0.000 NA
ENDBRANCH   5  17
TORSDOF 4
ENDMDL
MODEL 8
REMARK VINA RESULT:      -7.1      2.813      7.345
REMARK  Name = 
REMARK  6 active torsions:
REMARK  status: ('A' for Active; 'I' for Inactive)
REMARK    1  A    between atoms: C_1  and  O_2
REMARK    2  A    between atoms: O_2  and  C_3
REMARK    3  A    between atoms: C_5  and  O_6
REMARK    4  A    between atoms: O_6  and  C_7
REMARK    5  A    between atoms: C_9  and  C_10
REMARK    6  A    between atoms: C_14  and  N_15
REMARK                            x       y       z     vdW  Elec       q    Type
REMARK                         _______ _______ _______ _____ _____    ______ ____
ROOT
ATOM      1  C   UNL     1       5.241   5.372  18.651  0.00  0.00    +0.000 A 
ATOM      2  C   UNL     1       6.438   5.332  19.388  0.00  0.00    +0.000 A 
ATOM      3  C   UNL     1       7.666   5.078  18.766  0.00  0.00    +0.000 A 
ATOM      4  C   UNL     1       7.724   4.858  17.390  0.00  0.00    +0.000 A 
ATOM      5  C   UNL     1       6.552   4.901  16.627  0.00  0.00    +0.000 A 
ATOM      6  C   UNL     1       5.328   5.155  17.261  0.00  0.00    +0.000 A 
ENDROOT
BRANCH   1  11
ATOM      7  C   UNL     1       2.232   7.028  19.701  0.00  0.00    +0.000 A 
ATOM      8  N   UNL     1       1.604   6.156  20.479  0.00  0.00    +0.000 NA
ATOM      9  C   UNL     1       2.242   4.998  20.605  0.00  0.00    +0.000 A 
ATOM     10  N   UNL     1       3.400   4.678  20.044  0.00  0.00    +0.000 NA
ATOM     11  C   UNL     1       3.935   5.633  19.287  0.00  0.00    +0.000 A 
ATOM     12  N   UNL     1       3.379   6.826  19.075  0.00  0.00    +0.000 NA
BRANCH   7  14
ATOM     13  C   UNL     1       1.972   8.753  18.161  0.00  0.00    +0.000 C 
ATOM     14  O   UNL     1       1.661   8.258  19.456  0.00  0.00    +0.000 OA
ENDBRANCH   7  14
BRANCH   9  15
ATOM     15  O   UNL     1       1.701   3.997  21.384  0.00  0.00    +0.000 OA
ATOM     16  C   UNL     1       2.287   2.724  21.149  0.00  0.00    +0.000 C 
ENDBRANCH   9  15
ENDBRANCH   1  11
BRANCH   5  17
ATOM     17  N   UNL     1       6.602   4.672  15.223  0.00  0.00    +0.000 N 
ATOM     18  C   UNL     1       5.832   3.801  14.479  0.00  0.00    +0.000 A 
ATOM     19  C   UNL     1       6.279   3.867  13.181  0.00  0.00    +0.000 A 
ATOM     20  C   UNL     1       7.302   4.822  13.215  0.00  0.00    +0.000 A 
ATOM     21  N   UNL     1       7.492   5.330  14.433  0.00  0.00    +0.000 NA
ENDBRANCH   5  17
TORSDOF 4
ENDMDL
MODEL 9
REMARK VINA RESULT:      -7.0      2.767      7.070
REMARK  Name = 
REMARK  6 active torsions:
REMARK  status: ('A' for Active; 'I' for Inactive)
REMARK    1  A    between atoms: C_1  and  O_2
REMARK    2  A    between atoms: O_2  and  C_3
REMARK    3  A    between atoms: C_5  and  O_6
REMARK    4  A    between atoms: O_6  and  C_7
REMARK    5  A    between atoms: C_9  and  C_10
REMARK    6  A    between atoms: C_14  and  N_15
REMARK                            x       y       z     vdW  Elec       q    Type
REMARK                         _______ _______ _______ _____ _____    ______ ____
ROOT
ATOM      1  C   UNL     1       5.184   5.364  18.702  0.00  0.00    +0.000 A 
ATOM      2  C   UNL     1       6.385   5.375  19.434  0.00  0.00    +0.000 A 
ATOM      3  C   UNL     1       7.618   5.155  18.811  0.00  0.00    +0.000 A 
ATOM      4  C   UNL     1       7.680   4.918  17.439  0.00  0.00    +0.000 A 
ATOM      5  C   UNL     1       6.505   4.910  16.679  0.00  0.00    +0.000 A 
ATOM      6  C   UNL     1       5.274   5.131  17.314  0.00  0.00    +0.000 A 
ENDROOT
BRANCH   1  11
ATOM      7  C   UNL     1       2.080   4.773  20.408  0.00  0.00    +0.000 A 
ATOM      8  N   UNL     1       1.468   5.949  20.442  0.00  0.00    +0.000 NA
ATOM      9  C   UNL     1       2.167   6.930  19.880  0.00  0.00    +0.000 A 
ATOM     10  N   UNL     1       3.360   6.815  19.315  0.00  0.00    +0.000 NA
ATOM     11  C   UNL     1       3.872   5.588  19.339  0.00  0.00    +0.000 A 
ATOM     12  N   UNL     1       3.271   4.531  19.888  0.00  0.00    +0.000 NA
BRANCH   7  14
ATOM     13  C   UNL     1       2.422   2.800  21.593  0.00  0.00    +0.000 C 
ATOM     14  O   UNL     1       1.481   3.676  20.988  0.00  0.00    +0.000 OA
ENDBRANCH   7  14
BRANCH   9  15
ATOM     15  O   UNL     1       1.652   8.209  19.848  0.00  0.00    +0.000 OA
ATOM     16  C   UNL     1       1.769   8.830  18.576  0.00  0.00    +0.000 C 
ENDBRANCH   9  15
ENDBRANCH   1  11
BRANCH   5  17
ATOM     17  N   UNL     1       6.558   4.664  15.279  0.00  0.00    +0.000 N 
ATOM     18  C   UNL     1       5.806   3.767  14.547  0.00  0.00    +0.000 A 
ATOM     19  C   UNL     1       6.250   3.825  13.248  0.00  0.00    +0.000 A 
ATOM     20  C   UNL     1       7.252   4.804  13.267  0.00  0.00    +0.000 A 
ATOM     21  N   UNL     1       7.431   5.332  14.479  0.00  0.00    +0.000 NA
ENDBRANCH   5  17
TORSDOF 4
ENDMDL
