MODEL 1
REMARK VINA RESULT:      -6.5      0.000      0.000
REMARK  Name = 
REMARK  5 active torsions:
REMARK  status: ('A' for Active; 'I' for Inactive)
REMARK    1  A    between atoms: C_1  and  C_2
REMARK    2  A    between atoms: N_5  and  C_6
REMARK    3  A    between atoms: N_5  and  C_7
REMARK    4  A    between atoms: N_17  and  C_18
REMARK    5  A    between atoms: C_18  and  C_19
REMARK                            x       y       z     vdW  Elec       q    Type
REMARK                         _______ _______ _______ _____ _____    ______ ____
ROOT
ATOM      1  C   UNL     1       1.246   7.088  20.607  0.00  0.00    +0.000 C 
ATOM      2  C   UNL     1       2.199   6.102  19.995  0.00  0.00    +0.000 A 
ATOM      3  N   UNL     1       2.227   4.850  20.544  0.00  0.00    +0.000 NA
ATOM      4  C   UNL     1       3.131   3.958  20.087  0.00  0.00    +0.000 A 
ATOM      5  N   UNL     1       3.342   2.805  20.807  0.00  0.00    +0.000 N 
ATOM      6  C   UNL     1       2.243   2.155  21.493  0.00  0.00    +0.000 C 
ATOM      7  C   UNL     1       4.530   2.005  20.554  0.00  0.00    +0.000 C 
ATOM      8  N   UNL     1       3.949   4.261  19.088  0.00  0.00    +0.000 NA
ATOM      9  C   UNL     1       3.869   5.480  18.509  0.00  0.00    +0.000 A 
ATOM     10  C   UNL     1       3.059   6.483  18.987  0.00  0.00    +0.000 A 
ATOM     11  C   UNL     1       3.111   7.871  18.423  0.00  0.00    +0.000 C 
ATOM     12  O   UNL     1       4.127   8.036  17.425  0.00  0.00    +0.000 OA
ATOM     13  C   UNL     1       4.142   6.931  16.519  0.00  0.00    +0.000 C 
ATOM     14  C   UNL     1       4.668   5.681  17.242  0.00  0.00    +0.000 C 
ATOM     15  C   UNL     1       6.176   5.799  17.520  0.00  0.00    +0.000 C 
ATOM     16  C   UNL     1       6.726   4.443  17.107  0.00  0.00    +0.000 C 
ATOM     17  N   UNL     1       5.882   3.985  15.993  0.00  0.00    +0.000 NA
ATOM     18  C   UNL     1       4.524   4.418  16.356  0.00  0.00    +0.000 C 
ENDROOT
BRANCH  17  19
ATOM     19  C   UNL     1       6.227   4.541  14.689  0.00  0.00    +0.000 C 
BRANCH  19  20
ATOM     20  C   UNL     1       6.209   3.483  13.641  0.00  0.00    +0.000 C 
ATOM     21  C   UNL     1       5.202   3.586  12.526  0.00  0.00    +0.000 C 
ATOM     22  C   UNL     1       6.663   3.796  12.238  0.00  0.00    +0.000 C 
ENDBRANCH  19  20
ENDBRANCH  17  19
TORSDOF 2
ENDMDL
MODEL 2
REMARK VINA RESULT:      -6.1      7.235     10.098
REMARK  Name = 
REMARK  5 active torsions:
REMARK  status: ('A' for Active; 'I' for Inactive)
REMARK    1  A    between atoms: C_1  and  C_2
REMARK    2  A    between atoms: N_5  and  C_6
REMARK    3  A    between atoms: N_5  and  C_7
REMARK    4  A    between atoms: N_17  and  C_18
REMARK    5  A    between atoms: C_18  and  C_19
REMARK                            x       y       z     vdW  Elec       q    Type
REMARK                         _______ _______ _______ _____ _____    ______ ____
ROOT
ATOM      1  C   UNL     1      -6.747  11.551  18.133  0.00  0.00    +0.000 C 
ATOM      2  C   UNL     1      -5.428  11.795  18.808  0.00  0.00    +0.000 A 
ATOM      3  N   UNL     1      -5.472  12.246  20.099  0.00  0.00    +0.000 NA
ATOM      4  C   UNL     1      -4.315  12.565  20.716  0.00  0.00    +0.000 A 
ATOM      5  N   UNL     1      -4.370  13.263  21.900  0.00  0.00    +0.000 N 
ATOM      6  C   UNL     1      -5.437  13.017  22.849  0.00  0.00    +0.000 C 
ATOM      7  C   UNL     1      -3.176  13.924  22.403  0.00  0.00    +0.000 C 
ATOM      8  N   UNL     1      -3.146  12.401  20.111  0.00  0.00    +0.000 NA
ATOM      9  C   UNL     1      -3.111  11.893  18.859  0.00  0.00    +0.000 A 
ATOM     10  C   UNL     1      -4.244  11.651  18.118  0.00  0.00    +0.000 A 
ATOM     11  C   UNL     1      -4.168  11.240  16.678  0.00  0.00    +0.000 C 
ATOM     12  O   UNL     1      -2.829  11.217  16.169  0.00  0.00    +0.000 OA
ATOM     13  C   UNL     1      -1.935  10.604  17.099  0.00  0.00    +0.000 C 
ATOM     14  C   UNL     1      -1.750  11.525  18.315  0.00  0.00    +0.000 C 
ATOM     15  C   UNL     1      -0.918  12.764  17.947  0.00  0.00    +0.000 C 
ATOM     16  C   UNL     1       0.077  12.884  19.090  0.00  0.00    +0.000 C 
ATOM     17  N   UNL     1       0.355  11.509  19.531  0.00  0.00    +0.000 NA
ATOM     18  C   UNL     1      -0.941  10.821  19.434  0.00  0.00    +0.000 C 
ENDROOT
BRANCH  17  19
ATOM     19  C   UNL     1       1.339  10.791  18.728  0.00  0.00    +0.000 C 
BRANCH  19  20
ATOM     20  C   UNL     1       1.016   9.338  18.670  0.00  0.00    +0.000 C 
ATOM     21  C   UNL     1       1.884   8.436  17.833  0.00  0.00    +0.000 C 
ATOM     22  C   UNL     1       1.921   8.331  19.333  0.00  0.00    +0.000 C 
ENDBRANCH  19  20
ENDBRANCH  17  19
TORSDOF 2
ENDMDL
MODEL 3
REMARK VINA RESULT:      -5.8      1.981      3.677
REMARK  Name = 
REMARK  5 active torsions:
REMARK  status: ('A' for Active; 'I' for Inactive)
REMARK    1  A    between atoms: C_1  and  C_2
REMARK    2  A    between atoms: N_5  and  C_6
REMARK    3  A    between atoms: N_5  and  C_7
REMARK    4  A    between atoms: N_17  and  C_18
REMARK    5  A    between atoms: C_18  and  C_19
REMARK                            x       y       z     vdW  Elec       q    Type
REMARK                         _______ _______ _______ _____ _____    ______ ____
ROOT
ATOM      1  C   UNL     1       1.374   3.126  21.715  0.00  0.00    +0.000 C 
ATOM      2  C   UNL     1       2.005   4.174  20.844  0.00  0.00    +0.000 A 
ATOM      3  N   UNL     1       1.684   5.475  21.115  0.00  0.00    +0.000 NA
ATOM      4  C   UNL     1       2.156   6.445  20.303  0.00  0.00    +0.000 A 
ATOM      5  N   UNL     1       1.625   7.710  20.409  0.00  0.00    +0.000 N 
ATOM      6  C   UNL     1       1.228   8.234  21.699  0.00  0.00    +0.000 C 
ATOM      7  C   UNL     1       1.841   8.673  19.340  0.00  0.00    +0.000 C 
ATOM      8  N   UNL     1       2.959   6.158  19.286  0.00  0.00    +0.000 NA
ATOM      9  C   UNL     1       3.322   4.875  19.067  0.00  0.00    +0.000 A 
ATOM     10  C   UNL     1       2.797   3.818  19.773  0.00  0.00    +0.000 A 
ATOM     11  C   UNL     1       3.098   2.398  19.400  0.00  0.00    +0.000 C 
ATOM     12  O   UNL     1       3.895   2.283  18.215  0.00  0.00    +0.000 OA
ATOM     13  C   UNL     1       4.968   3.226  18.224  0.00  0.00    +0.000 C 
ATOM     14  C   UNL     1       4.406   4.645  18.040  0.00  0.00    +0.000 C 
ATOM     15  C   UNL     1       3.899   4.855  16.604  0.00  0.00    +0.000 C 
ATOM     16  C   UNL     1       4.458   6.215  16.218  0.00  0.00    +0.000 C 
ATOM     17  N   UNL     1       5.745   6.337  16.921  0.00  0.00    +0.000 NA
ATOM     18  C   UNL     1       5.510   5.715  18.232  0.00  0.00    +0.000 C 
ENDROOT
BRANCH  17  19
ATOM     19  C   UNL     1       6.868   5.672  16.271  0.00  0.00    +0.000 C 
BRANCH  19  20
ATOM     20  C   UNL     1       6.566   5.401  14.837  0.00  0.00    +0.000 C 
ATOM     21  C   UNL     1       7.674   4.912  13.943  0.00  0.00    +0.000 C 
ATOM     22  C   UNL     1       6.550   3.986  14.318  0.00  0.00    +0.000 C 
ENDBRANCH  19  20
ENDBRANCH  17  19
TORSDOF 2
ENDMDL
MODEL 4
REMARK VINA RESULT:      -5.7      1.486      1.698
REMARK  Name = 
REMARK  5 active torsions:
REMARK  status: ('A' for Active; 'I' for Inactive)
REMARK    1  A    between atoms: C_1  and  C_2
REMARK    2  A    between atoms: N_5  and  C_6
REMARK    3  A    between atoms: N_5  and  C_7
REMARK    4  A    between atoms: N_17  and  C_18
REMARK    5  A    between atoms: C_18  and  C_19
REMARK                            x       y       z     vdW  Elec       q    Type
REMARK                         _______ _______ _______ _____ _____    ______ ____
ROOT
ATOM      1  C   UNL     1       2.192   7.110  19.546  0.00  0.00    +0.000 C 
ATOM      2  C   UNL     1       2.824   6.016  18.734  0.00  0.00    +0.000 A 
ATOM      3  N   UNL     1       2.383   4.743  18.970  0.00  0.00    +0.000 NA
ATOM      4  C   UNL     1       2.984   3.717  18.330  0.00  0.00    +0.000 A 
ATOM      5  N   UNL     1       2.732   2.434  18.758  0.00  0.00    +0.000 N 
ATOM      6  C   UNL     1       1.419   2.068  19.248  0.00  0.00    +0.000 C 
ATOM      7  C   UNL     1       3.610   1.351  18.343  0.00  0.00    +0.000 C 
ATOM      8  N   UNL     1       3.952   3.931  17.447  0.00  0.00    +0.000 NA
ATOM      9  C   UNL     1       4.334   5.198  17.175  0.00  0.00    +0.000 A 
ATOM     10  C   UNL     1       3.856   6.289  17.863  0.00  0.00    +0.000 A 
ATOM     11  C   UNL     1       4.417   7.662  17.647  0.00  0.00    +0.000 C 
ATOM     12  O   UNL     1       5.524   7.682  16.737  0.00  0.00    +0.000 OA
ATOM     13  C   UNL     1       5.264   6.864  15.594  0.00  0.00    +0.000 C 
ATOM     14  C   UNL     1       5.276   5.384  16.007  0.00  0.00    +0.000 C 
ATOM     15  C   UNL     1       6.703   4.914  16.333  0.00  0.00    +0.000 C 
ATOM     16  C   UNL     1       6.815   3.577  15.620  0.00  0.00    +0.000 C 
ATOM     17  N   UNL     1       5.982   3.691  14.413  0.00  0.00    +0.000 NA
ATOM     18  C   UNL     1       4.813   4.472  14.843  0.00  0.00    +0.000 C 
ENDROOT
BRANCH  17  19
ATOM     19  C   UNL     1       6.618   4.364  13.286  0.00  0.00    +0.000 C 
BRANCH  19  20
ATOM     20  C   UNL     1       6.365   3.628  12.017  0.00  0.00    +0.000 C 
ATOM     21  C   UNL     1       5.847   2.216  12.090  0.00  0.00    +0.000 C 
ATOM     22  C   UNL     1       4.954   3.316  11.588  0.00  0.00    +0.000 C 
ENDBRANCH  19  20
ENDBRANCH  17  19
TORSDOF 2
ENDMDL
MODEL 5
REMARK VINA RESULT:      -5.5      2.717      4.513
REMARK  Name = 
REMARK  5 active torsions:
REMARK  status: ('A' for Active; 'I' for Inactive)
REMARK    1  A    between atoms: C_1  and  C_2
REMARK    2  A    between atoms: N_5  and  C_6
REMARK    3  A    between atoms: N_5  and  C_7
REMARK    4  A    between atoms: N_17  and  C_18
REMARK    5  A    between atoms: C_18  and  C_19
REMARK                            x       y       z     vdW  Elec       q    Type
REMARK                         _______ _______ _______ _____ _____    ______ ____
ROOT
ATOM      1  C   UNL     1       1.292   3.084  21.546  0.00  0.00    +0.000 C 
ATOM      2  C   UNL     1       1.901   4.246  20.813  0.00  0.00    +0.000 A 
ATOM      3  N   UNL     1       1.388   5.483  21.088  0.00  0.00    +0.000 NA
ATOM      4  C   UNL     1       1.840   6.545  20.389  0.00  0.00    +0.000 A 
ATOM      5  N   UNL     1       1.148   7.732  20.470  0.00  0.00    +0.000 N 
ATOM      6  C   UNL     1       0.520   8.133  21.712  0.00  0.00    +0.000 C 
ATOM      7  C   UNL     1       1.384   8.773  19.482  0.00  0.00    +0.000 C 
ATOM      8  N   UNL     1       2.802   6.413  19.485  0.00  0.00    +0.000 NA
ATOM      9  C   UNL     1       3.346   5.195  19.268  0.00  0.00    +0.000 A 
ATOM     10  C   UNL     1       2.867   4.046  19.851  0.00  0.00    +0.000 A 
ATOM     11  C   UNL     1       3.388   2.694  19.467  0.00  0.00    +0.000 C 
ATOM     12  O   UNL     1       4.345   2.740  18.402  0.00  0.00    +0.000 OA
ATOM     13  C   UNL     1       5.282   3.801  18.598  0.00  0.00    +0.000 C 
ATOM     14  C   UNL     1       4.579   5.152  18.394  0.00  0.00    +0.000 C 
ATOM     15  C   UNL     1       4.247   5.381  16.911  0.00  0.00    +0.000 C 
ATOM     16  C   UNL     1       4.680   6.817  16.661  0.00  0.00    +0.000 C 
ATOM     17  N   UNL     1       5.836   7.049  17.541  0.00  0.00    +0.000 NA
ATOM     18  C   UNL     1       5.506   6.331  18.781  0.00  0.00    +0.000 C 
ENDROOT
BRANCH  17  19
ATOM     19  C   UNL     1       7.110   6.558  17.029  0.00  0.00    +0.000 C 
BRANCH  19  20
ATOM     20  C   UNL     1       8.185   7.571  17.221  0.00  0.00    +0.000 C 
ATOM     21  C   UNL     1       7.801   8.958  17.662  0.00  0.00    +0.000 C 
ATOM     22  C   UNL     1       8.540   8.050  18.605  0.00  0.00    +0.000 C 
ENDBRANCH  19  20
ENDBRANCH  17  19
TORSDOF 2
ENDMDL
MODEL 6
REMARK VINA RESULT:      -5.5      9.157     10.952
REMARK  Name = 
REMARK  5 active torsions:
REMARK  status: ('A' for Active; 'I' for Inactive)
REMARK    1  A    between atoms: C_1  and  C_2
REMARK    2  A    between atoms: N_5  and  C_6
REMARK    3  A    between atoms: N_5  and  C_7
REMARK    4  A    between atoms: N_17  and  C_18
REMARK    5  A    between atoms: C_18  and  C_19
REMARK                            x       y       z     vdW  Elec       q    Type
REMARK                         _______ _______ _______ _____ _____    ______ ____
ROOT
ATOM      1  C   UNL     1      11.192  17.421  17.220  0.00  0.00    +0.000 C 
ATOM      2  C   UNL     1      10.408  16.342  17.911  0.00  0.00    +0.000 A 
ATOM      3  N   UNL     1       9.319  16.741  18.636  0.00  0.00    +0.000 NA
ATOM      4  C   UNL     1       8.637  15.819  19.347  0.00  0.00    +0.000 A 
ATOM      5  N   UNL     1       7.719  16.250  20.278  0.00  0.00    +0.000 N 
ATOM      6  C   UNL     1       6.924  17.436  20.031  0.00  0.00    +0.000 C 
ATOM      7  C   UNL     1       7.234  15.328  21.292  0.00  0.00    +0.000 C 
ATOM      8  N   UNL     1       8.975  14.537  19.312  0.00  0.00    +0.000 NA
ATOM      9  C   UNL     1      10.013  14.145  18.541  0.00  0.00    +0.000 A 
ATOM     10  C   UNL     1      10.830  15.031  17.878  0.00  0.00    +0.000 A 
ATOM     11  C   UNL     1      12.066  14.575  17.163  0.00  0.00    +0.000 C 
ATOM     12  O   UNL     1      12.326  13.175  17.322  0.00  0.00    +0.000 OA
ATOM     13  C   UNL     1      11.130  12.409  17.169  0.00  0.00    +0.000 C 
ATOM     14  C   UNL     1      10.205  12.655  18.371  0.00  0.00    +0.000 C 
ATOM     15  C   UNL     1      10.765  11.994  19.642  0.00  0.00    +0.000 C 
ATOM     16  C   UNL     1       9.556  11.306  20.254  0.00  0.00    +0.000 C 
ATOM     17  N   UNL     1       8.710  10.893  19.124  0.00  0.00    +0.000 NA
ATOM     18  C   UNL     1       8.819  11.995  18.158  0.00  0.00    +0.000 C 
ENDROOT
BRANCH  17  19
ATOM     19  C   UNL     1       9.111   9.648  18.476  0.00  0.00    +0.000 C 
BRANCH  19  20
ATOM     20  C   UNL     1       7.976   8.685  18.430  0.00  0.00    +0.000 C 
ATOM     21  C   UNL     1       7.839   7.784  17.232  0.00  0.00    +0.000 C 
ATOM     22  C   UNL     1       8.228   7.205  18.564  0.00  0.00    +0.000 C 
ENDBRANCH  19  20
ENDBRANCH  17  19
TORSDOF 2
ENDMDL
MODEL 7
REMARK VINA RESULT:      -5.5      8.129      9.897
REMARK  Name = 
REMARK  5 active torsions:
REMARK  status: ('A' for Active; 'I' for Inactive)
REMARK    1  A    between atoms: C_1  and  C_2
REMARK    2  A    between atoms: N_5  and  C_6
REMARK    3  A    between atoms: N_5  and  C_7
REMARK    4  A    between atoms: N_17  and  C_18
REMARK    5  A    between atoms: C_18  and  C_19
REMARK                            x       y       z     vdW  Elec       q    Type
REMARK                         _______ _______ _______ _____ _____    ______ ____
ROOT
ATOM      1  C   UNL     1       2.001  15.669  22.308  0.00  0.00    +0.000 C 
ATOM      2  C   UNL     1       0.968  14.639  21.953  0.00  0.00    +0.000 A 
ATOM      3  N   UNL     1      -0.122  14.552  22.774  0.00  0.00    +0.000 NA
ATOM      4  C   UNL     1      -1.032  13.582  22.548  0.00  0.00    +0.000 A 
ATOM      5  N   UNL     1      -1.976  13.323  23.516  0.00  0.00    +0.000 N 
ATOM      6  C   UNL     1      -2.524  14.401  24.313  0.00  0.00    +0.000 C 
ATOM      7  C   UNL     1      -2.731  12.081  23.471  0.00  0.00    +0.000 C 
ATOM      8  N   UNL     1      -0.910  12.752  21.519  0.00  0.00    +0.000 NA
ATOM      9  C   UNL     1       0.137  12.889  20.677  0.00  0.00    +0.000 A 
ATOM     10  C   UNL     1       1.167  13.773  20.899  0.00  0.00    +0.000 A 
ATOM     11  C   UNL     1       2.390  13.788  20.033  0.00  0.00    +0.000 C 
ATOM     12  O   UNL     1       2.392  12.754  19.042  0.00  0.00    +0.000 OA
ATOM     13  C   UNL     1       1.113  12.643  18.412  0.00  0.00    +0.000 C 
ATOM     14  C   UNL     1       0.098  12.065  19.410  0.00  0.00    +0.000 C 
ATOM     15  C   UNL     1       0.376  10.576  19.678  0.00  0.00    +0.000 C 
ATOM     16  C   UNL     1      -0.999   9.932  19.596  0.00  0.00    +0.000 C 
ATOM     17  N   UNL     1      -1.752  10.712  18.602  0.00  0.00    +0.000 NA
ATOM     18  C   UNL     1      -1.340  12.104  18.834  0.00  0.00    +0.000 C 
ENDROOT
BRANCH  17  19
ATOM     19  C   UNL     1      -1.485  10.360  17.211  0.00  0.00    +0.000 C 
BRANCH  19  20
ATOM     20  C   UNL     1      -2.726   9.888  16.536  0.00  0.00    +0.000 C 
ATOM     21  C   UNL     1      -3.645  10.906  15.916  0.00  0.00    +0.000 C 
ATOM     22  C   UNL     1      -2.856   9.975  15.037  0.00  0.00    +0.000 C 
ENDBRANCH  19  20
ENDBRANCH  17  19
TORSDOF 2
ENDMDL
MODEL 8
REMARK VINA RESULT:      -5.4      9.012     12.508
REMARK  Name = 
REMARK  5 active torsions:
REMARK  status: ('A' for Active; 'I' for Inactive)
REMARK    1  A    between atoms: C_1  and  C_2
REMARK    2  A    between atoms: N_5  and  C_6
REMARK    3  A    between atoms: N_5  and  C_7
REMARK    4  A    between atoms: N_17  and  C_18
REMARK    5  A    between atoms: C_18  and  C_19
REMARK                            x       y       z     vdW  Elec       q    Type
REMARK                         _______ _______ _______ _____ _____    ______ ____
ROOT
ATOM      1  C   UNL     1      -2.087   9.906  16.872  0.00  0.00    +0.000 C 
ATOM      2  C   UNL     1      -2.630  10.819  17.933  0.00  0.00    +0.000 A 
ATOM      3  N   UNL     1      -3.986  10.998  17.955  0.00  0.00    +0.000 NA
ATOM      4  C   UNL     1      -4.512  11.880  18.832  0.00  0.00    +0.000 A 
ATOM      5  N   UNL     1      -5.825  12.259  18.678  0.00  0.00    +0.000 N 
ATOM      6  C   UNL     1      -6.814  11.309  18.210  0.00  0.00    +0.000 C 
ATOM      7  C   UNL     1      -6.317  13.444  19.362  0.00  0.00    +0.000 C 
ATOM      8  N   UNL     1      -3.743  12.529  19.697  0.00  0.00    +0.000 NA
ATOM      9  C   UNL     1      -2.412  12.295  19.709  0.00  0.00    +0.000 A 
ATOM     10  C   UNL     1      -1.783  11.503  18.778  0.00  0.00    +0.000 A 
ATOM     11  C   UNL     1      -0.289  11.392  18.722  0.00  0.00    +0.000 C 
ATOM     12  O   UNL     1       0.375  12.244  19.663  0.00  0.00    +0.000 OA
ATOM     13  C   UNL     1      -0.264  12.196  20.940  0.00  0.00    +0.000 C 
ATOM     14  C   UNL     1      -1.631  12.893  20.857  0.00  0.00    +0.000 C 
ATOM     15  C   UNL     1      -1.467  14.415  20.716  0.00  0.00    +0.000 C 
ATOM     16  C   UNL     1      -2.472  14.980  21.706  0.00  0.00    +0.000 C 
ATOM     17  N   UNL     1      -2.535  14.015  22.814  0.00  0.00    +0.000 NA
ATOM     18  C   UNL     1      -2.440  12.699  22.164  0.00  0.00    +0.000 C 
ENDROOT
BRANCH  17  19
ATOM     19  C   UNL     1      -1.468  14.139  23.801  0.00  0.00    +0.000 C 
BRANCH  19  20
ATOM     20  C   UNL     1      -1.542  15.452  24.499  0.00  0.00    +0.000 C 
ATOM     21  C   UNL     1      -2.783  15.786  25.284  0.00  0.00    +0.000 C 
ATOM     22  C   UNL     1      -1.491  15.517  26.004  0.00  0.00    +0.000 C 
ENDBRANCH  19  20
ENDBRANCH  17  19
TORSDOF 2
ENDMDL
MODEL 9
REMARK VINA RESULT:      -5.4      6.830      9.596
REMARK  Name = 
REMARK  5 active torsions:
REMARK  status: ('A' for Active; 'I' for Inactive)
REMARK    1  A    between atoms: C_1  and  C_2
REMARK    2  A    between atoms: N_5  and  C_6
REMARK    3  A    between atoms: N_5  and  C_7
REMARK    4  A    between atoms: N_17  and  C_18
REMARK    5  A    between atoms: C_18  and  C_19
REMARK                            x       y       z     vdW  Elec       q    Type
REMARK                         _______ _______ _______ _____ _____    ______ ____
ROOT
ATOM      1  C   UNL     1      -6.414  12.468  19.835  0.00  0.00    +0.000 C 
ATOM      2  C   UNL     1      -4.941  12.332  20.090  0.00  0.00    +0.000 A 
ATOM      3  N   UNL     1      -4.491  12.715  21.323  0.00  0.00    +0.000 NA
ATOM      4  C   UNL     1      -3.164  12.696  21.568  0.00  0.00    +0.000 A 
ATOM      5  N   UNL     1      -2.693  13.326  22.696  0.00  0.00    +0.000 N 
ATOM      6  C   UNL     1      -3.466  13.317  23.921  0.00  0.00    +0.000 C 
ATOM      7  C   UNL     1      -1.275  13.633  22.811  0.00  0.00    +0.000 C 
ATOM      8  N   UNL     1      -2.304  12.266  20.654  0.00  0.00    +0.000 NA
ATOM      9  C   UNL     1      -2.765  11.828  19.462  0.00  0.00    +0.000 A 
ATOM     10  C   UNL     1      -4.086  11.922  19.089  0.00  0.00    +0.000 A 
ATOM     11  C   UNL     1      -4.538  11.576  17.703  0.00  0.00    +0.000 C 
ATOM     12  O   UNL     1      -3.457  11.234  16.826  0.00  0.00    +0.000 OA
ATOM     13  C   UNL     1      -2.523  10.368  17.475  0.00  0.00    +0.000 C 
ATOM     14  C   UNL     1      -1.763  11.149  18.557  0.00  0.00    +0.000 C 
ATOM     15  C   UNL     1      -0.780  12.149  17.926  0.00  0.00    +0.000 C 
ATOM     16  C   UNL     1       0.498  11.954  18.726  0.00  0.00    +0.000 C 
ATOM     17  N   UNL     1       0.523  10.534  19.108  0.00  0.00    +0.000 NA
ATOM     18  C   UNL     1      -0.878  10.208  19.412  0.00  0.00    +0.000 C 
ENDROOT
BRANCH  17  19
ATOM     19  C   UNL     1       1.012   9.627  18.074  0.00  0.00    +0.000 C 
BRANCH  19  20
ATOM     20  C   UNL     1       2.201   8.869  18.554  0.00  0.00    +0.000 C 
ATOM     21  C   UNL     1       2.224   7.374  18.382  0.00  0.00    +0.000 C 
ATOM     22  C   UNL     1       3.148   8.236  17.567  0.00  0.00    +0.000 C 
ENDBRANCH  19  20
ENDBRANCH  17  19
TORSDOF 2
ENDMDL
