MODEL 1
REMARK VINA RESULT:      -7.1      0.000      0.000
REMARK  Name = 
REMARK  6 active torsions:
REMARK  status: ('A' for Active; 'I' for Inactive)
REMARK    1  A    between atoms: C_1  and  C_2
REMARK    2  A    between atoms: C_4  and  N_5
REMARK    3  A    between atoms: N_6  and  S_7
REMARK    4  A    between atoms: S_7  and  C_10
REMARK    5  A    between atoms: N_12  and  C_13
REMARK    6  A    between atoms: C_15  and  C_16
REMARK                            x       y       z     vdW  Elec       q    Type
REMARK                         _______ _______ _______ _____ _____    ______ ____
ROOT
ATOM      1  S   UNL     1       5.742   5.386  16.054  0.00  0.00    +0.000 S 
ATOM      2  O   UNL     1       5.214   6.291  15.039  0.00  0.00    +0.000 OA
ATOM      3  O   UNL     1       6.467   4.181  15.704  0.00  0.00    +0.000 OA
ENDROOT
BRANCH   1   4
ATOM      4  C   UNL     1       4.356   4.868  16.922  0.00  0.00    +0.000 A 
ATOM      5  C   UNL     1       3.862   3.587  17.041  0.00  0.00    +0.000 A 
ATOM      6  N   UNL     1       2.730   3.692  17.793  0.00  0.00    +0.000 N 
ATOM      7  C   UNL     1       1.857   2.612  18.187  0.00  0.00    +0.000 C 
ATOM      8  N   UNL     1       2.459   4.955  18.176  0.00  0.00    +0.000 NA
ATOM      9  C   UNL     1       3.450   5.684  17.634  0.00  0.00    +0.000 A 
ATOM     10  C   UNL     1       3.488   7.158  17.818  0.00  0.00    +0.000 C 
ENDBRANCH   1   4
BRANCH   1  15
ATOM     11  C   UNL     1       8.369   9.310  18.124  0.00  0.00    +0.000 C 
ATOM     12  C   UNL     1       7.878   7.924  17.926  0.00  0.00    +0.000 A 
ATOM     13  C   UNL     1       8.209   6.784  18.688  0.00  0.00    +0.000 A 
ATOM     14  C   UNL     1       7.509   5.740  18.132  0.00  0.00    +0.000 A 
ATOM     15  N   UNL     1       6.779   6.297  17.085  0.00  0.00    +0.000 N 
ATOM     16  N   UNL     1       7.034   7.635  16.929  0.00  0.00    +0.000 NA
BRANCH  14  17
ATOM     17  N   UNL     1       7.510   4.442  18.509  0.00  0.00    +0.000 N 
ATOM     18  H   UNL     1       6.712   3.828  18.364  0.00  0.00    +0.000 HD
ATOM     19  H   UNL     1       8.350   3.964  18.858  0.00  0.00    +0.000 HD
ENDBRANCH  14  17
ENDBRANCH   1  15
TORSDOF 3
ENDMDL
MODEL 2
REMARK VINA RESULT:      -7.0      2.347      5.264
REMARK  Name = 
REMARK  6 active torsions:
REMARK  status: ('A' for Active; 'I' for Inactive)
REMARK    1  A    between atoms: C_1  and  C_2
REMARK    2  A    between atoms: C_4  and  N_5
REMARK    3  A    between atoms: N_6  and  S_7
REMARK    4  A    between atoms: S_7  and  C_10
REMARK    5  A    between atoms: N_12  and  C_13
REMARK    6  A    between atoms: C_15  and  C_16
REMARK                            x       y       z     vdW  Elec       q    Type
REMARK                         _______ _______ _______ _____ _____    ______ ____
ROOT
ATOM      1  S   UNL     1       4.659   5.458  18.591  0.00  0.00    +0.000 S 
ATOM      2  O   UNL     1       3.857   6.661  18.396  0.00  0.00    +0.000 OA
ATOM      3  O   UNL     1       5.646   5.358  19.647  0.00  0.00    +0.000 OA
ENDROOT
BRANCH   1   4
ATOM      4  C   UNL     1       5.522   5.281  17.119  0.00  0.00    +0.000 A 
ATOM      5  C   UNL     1       5.262   4.407  16.085  0.00  0.00    +0.000 A 
ATOM      6  N   UNL     1       6.242   4.619  15.162  0.00  0.00    +0.000 N 
ATOM      7  C   UNL     1       6.397   3.934  13.901  0.00  0.00    +0.000 C 
ATOM      8  N   UNL     1       7.118   5.577  15.524  0.00  0.00    +0.000 NA
ATOM      9  C   UNL     1       6.686   5.981  16.731  0.00  0.00    +0.000 A 
ATOM     10  C   UNL     1       7.420   7.032  17.481  0.00  0.00    +0.000 C 
ENDBRANCH   1   4
BRANCH   1  15
ATOM     11  C   UNL     1       0.349   2.634  18.761  0.00  0.00    +0.000 C 
ATOM     12  C   UNL     1       1.787   2.974  18.891  0.00  0.00    +0.000 A 
ATOM     13  C   UNL     1       2.832   2.123  19.307  0.00  0.00    +0.000 A 
ATOM     14  C   UNL     1       3.977   2.880  19.263  0.00  0.00    +0.000 A 
ATOM     15  N   UNL     1       3.580   4.133  18.806  0.00  0.00    +0.000 N 
ATOM     16  N   UNL     1       2.224   4.208  18.613  0.00  0.00    +0.000 NA
BRANCH  14  17
ATOM     17  N   UNL     1       5.236   2.505  19.585  0.00  0.00    +0.000 N 
ATOM     18  H   UNL     1       5.897   2.153  18.897  0.00  0.00    +0.000 HD
ATOM     19  H   UNL     1       5.642   2.660  20.517  0.00  0.00    +0.000 HD
ENDBRANCH  14  17
ENDBRANCH   1  15
TORSDOF 3
ENDMDL
MODEL 3
REMARK VINA RESULT:      -6.9      2.541      4.573
REMARK  Name = 
REMARK  6 active torsions:
REMARK  status: ('A' for Active; 'I' for Inactive)
REMARK    1  A    between atoms: C_1  and  C_2
REMARK    2  A    between atoms: C_4  and  N_5
REMARK    3  A    between atoms: N_6  and  S_7
REMARK    4  A    between atoms: S_7  and  C_10
REMARK    5  A    between atoms: N_12  and  C_13
REMARK    6  A    between atoms: C_15  and  C_16
REMARK                            x       y       z     vdW  Elec       q    Type
REMARK                         _______ _______ _______ _____ _____    ______ ____
ROOT
ATOM      1  S   UNL     1       4.902   4.397  18.348  0.00  0.00    +0.000 S 
ATOM      2  O   UNL     1       5.936   4.479  19.375  0.00  0.00    +0.000 OA
ATOM      3  O   UNL     1       4.109   3.201  18.153  0.00  0.00    +0.000 OA
ENDROOT
BRANCH   1   4
ATOM      4  C   UNL     1       5.746   4.649  16.877  0.00  0.00    +0.000 A 
ATOM      5  C   UNL     1       5.604   3.961  15.690  0.00  0.00    +0.000 A 
ATOM      6  N   UNL     1       6.515   4.502  14.834  0.00  0.00    +0.000 N 
ATOM      7  C   UNL     1       6.746   4.107  13.464  0.00  0.00    +0.000 C 
ATOM      8  N   UNL     1       7.236   5.499  15.381  0.00  0.00    +0.000 NA
ATOM      9  C   UNL     1       6.775   5.588  16.641  0.00  0.00    +0.000 A 
ATOM     10  C   UNL     1       7.350   6.579  17.586  0.00  0.00    +0.000 C 
ENDBRANCH   1   4
BRANCH   1  15
ATOM     11  C   UNL     1       2.222   8.760  17.744  0.00  0.00    +0.000 C 
ATOM     12  C   UNL     1       2.694   7.501  18.371  0.00  0.00    +0.000 A 
ATOM     13  C   UNL     1       2.259   6.937  19.588  0.00  0.00    +0.000 A 
ATOM     14  C   UNL     1       2.977   5.776  19.746  0.00  0.00    +0.000 A 
ATOM     15  N   UNL     1       3.789   5.683  18.619  0.00  0.00    +0.000 N 
ATOM     16  N   UNL     1       3.647   6.764  17.787  0.00  0.00    +0.000 NA
BRANCH  14  17
ATOM     17  N   UNL     1       2.919   4.894  20.769  0.00  0.00    +0.000 N 
ATOM     18  H   UNL     1       2.259   4.987  21.538  0.00  0.00    +0.000 HD
ATOM     19  H   UNL     1       3.454   4.016  20.779  0.00  0.00    +0.000 HD
ENDBRANCH  14  17
ENDBRANCH   1  15
TORSDOF 3
ENDMDL
MODEL 4
REMARK VINA RESULT:      -6.8      3.073      3.983
REMARK  Name = 
REMARK  6 active torsions:
REMARK  status: ('A' for Active; 'I' for Inactive)
REMARK    1  A    between atoms: C_1  and  C_2
REMARK    2  A    between atoms: C_4  and  N_5
REMARK    3  A    between atoms: N_6  and  S_7
REMARK    4  A    between atoms: S_7  and  C_10
REMARK    5  A    between atoms: N_12  and  C_13
REMARK    6  A    between atoms: C_15  and  C_16
REMARK                            x       y       z     vdW  Elec       q    Type
REMARK                         _______ _______ _______ _____ _____    ______ ____
ROOT
ATOM      1  S   UNL     1       4.182   3.312  18.845  0.00  0.00    +0.000 S 
ATOM      2  O   UNL     1       3.267   2.474  18.077  0.00  0.00    +0.000 OA
ATOM      3  O   UNL     1       4.942   2.791  19.964  0.00  0.00    +0.000 OA
ENDROOT
BRANCH   1   4
ATOM      4  C   UNL     1       3.183   4.549  19.489  0.00  0.00    +0.000 A 
ATOM      5  C   UNL     1       3.196   5.893  19.181  0.00  0.00    +0.000 A 
ATOM      6  N   UNL     1       2.250   6.467  19.976  0.00  0.00    +0.000 N 
ATOM      7  C   UNL     1       1.896   7.866  20.018  0.00  0.00    +0.000 C 
ATOM      8  N   UNL     1       1.618   5.586  20.776  0.00  0.00    +0.000 NA
ATOM      9  C   UNL     1       2.195   4.406  20.488  0.00  0.00    +0.000 A 
ATOM     10  C   UNL     1       1.776   3.169  21.196  0.00  0.00    +0.000 C 
ENDBRANCH   1   4
BRANCH   1  15
ATOM     11  C   UNL     1       6.633   4.569  14.487  0.00  0.00    +0.000 C 
ATOM     12  C   UNL     1       6.347   4.488  15.940  0.00  0.00    +0.000 A 
ATOM     13  C   UNL     1       7.094   5.059  16.991  0.00  0.00    +0.000 A 
ATOM     14  C   UNL     1       6.439   4.720  18.150  0.00  0.00    +0.000 A 
ATOM     15  N   UNL     1       5.326   3.986  17.749  0.00  0.00    +0.000 N 
ATOM     16  N   UNL     1       5.286   3.807  16.390  0.00  0.00    +0.000 NA
BRANCH  14  17
ATOM     17  N   UNL     1       6.783   5.028  19.422  0.00  0.00    +0.000 N 
ATOM     18  H   UNL     1       7.749   5.047  19.739  0.00  0.00    +0.000 HD
ATOM     19  H   UNL     1       6.106   5.372  20.114  0.00  0.00    +0.000 HD
ENDBRANCH  14  17
ENDBRANCH   1  15
TORSDOF 3
ENDMDL
MODEL 5
REMARK VINA RESULT:      -6.7      3.224      4.408
REMARK  Name = 
REMARK  6 active torsions:
REMARK  status: ('A' for Active; 'I' for Inactive)
REMARK    1  A    between atoms: C_1  and  C_2
REMARK    2  A    between atoms: C_4  and  N_5
REMARK    3  A    between atoms: N_6  and  S_7
REMARK    4  A    between atoms: S_7  and  C_10
REMARK    5  A    between atoms: N_12  and  C_13
REMARK    6  A    between atoms: C_15  and  C_16
REMARK                            x       y       z     vdW  Elec       q    Type
REMARK                         _______ _______ _______ _____ _____    ______ ____
ROOT
ATOM      1  S   UNL     1       7.113   4.993  16.067  0.00  0.00    +0.000 S 
ATOM      2  O   UNL     1       8.094   4.080  16.644  0.00  0.00    +0.000 OA
ATOM      3  O   UNL     1       7.298   6.430  16.087  0.00  0.00    +0.000 OA
ENDROOT
BRANCH   1   4
ATOM      4  C   UNL     1       5.678   4.689  16.957  0.00  0.00    +0.000 A 
ATOM      5  C   UNL     1       4.468   4.231  16.481  0.00  0.00    +0.000 A 
ATOM      6  N   UNL     1       3.635   4.189  17.559  0.00  0.00    +0.000 N 
ATOM      7  C   UNL     1       2.252   3.775  17.561  0.00  0.00    +0.000 C 
ATOM      8  N   UNL     1       4.225   4.582  18.705  0.00  0.00    +0.000 NA
ATOM      9  C   UNL     1       5.478   4.901  18.339  0.00  0.00    +0.000 A 
ATOM     10  C   UNL     1       6.450   5.410  19.341  0.00  0.00    +0.000 C 
ENDBRANCH   1   4
BRANCH   1  15
ATOM     11  C   UNL     1       5.259   2.764  11.803  0.00  0.00    +0.000 C 
ATOM     12  C   UNL     1       6.127   3.612  12.656  0.00  0.00    +0.000 A 
ATOM     13  C   UNL     1       7.199   4.428  12.240  0.00  0.00    +0.000 A 
ATOM     14  C   UNL     1       7.692   5.018  13.379  0.00  0.00    +0.000 A 
ATOM     15  N   UNL     1       6.889   4.553  14.417  0.00  0.00    +0.000 N 
ATOM     16  N   UNL     1       5.948   3.655  13.982  0.00  0.00    +0.000 NA
BRANCH  14  17
ATOM     17  N   UNL     1       8.731   5.876  13.490  0.00  0.00    +0.000 N 
ATOM     18  H   UNL     1       8.725   6.665  14.132  0.00  0.00    +0.000 HD
ATOM     19  H   UNL     1       9.633   5.722  13.023  0.00  0.00    +0.000 HD
ENDBRANCH  14  17
ENDBRANCH   1  15
TORSDOF 3
ENDMDL
MODEL 6
REMARK VINA RESULT:      -6.7      2.972      3.936
REMARK  Name = 
REMARK  6 active torsions:
REMARK  status: ('A' for Active; 'I' for Inactive)
REMARK    1  A    between atoms: C_1  and  C_2
REMARK    2  A    between atoms: C_4  and  N_5
REMARK    3  A    between atoms: N_6  and  S_7
REMARK    4  A    between atoms: S_7  and  C_10
REMARK    5  A    between atoms: N_12  and  C_13
REMARK    6  A    between atoms: C_15  and  C_16
REMARK                            x       y       z     vdW  Elec       q    Type
REMARK                         _______ _______ _______ _____ _____    ______ ____
ROOT
ATOM      1  S   UNL     1       4.450   3.895  18.386  0.00  0.00    +0.000 S 
ATOM      2  O   UNL     1       3.450   2.895  18.028  0.00  0.00    +0.000 OA
ATOM      3  O   UNL     1       5.306   3.743  19.545  0.00  0.00    +0.000 OA
ENDROOT
BRANCH   1   4
ATOM      4  C   UNL     1       3.541   5.325  18.654  0.00  0.00    +0.000 A 
ATOM      5  C   UNL     1       3.523   6.472  17.889  0.00  0.00    +0.000 A 
ATOM      6  N   UNL     1       2.681   7.333  18.528  0.00  0.00    +0.000 N 
ATOM      7  C   UNL     1       2.342   8.672  18.108  0.00  0.00    +0.000 C 
ATOM      8  N   UNL     1       2.147   6.820  19.653  0.00  0.00    +0.000 NA
ATOM      9  C   UNL     1       2.680   5.589  19.741  0.00  0.00    +0.000 A 
ATOM     10  C   UNL     1       2.343   4.702  20.884  0.00  0.00    +0.000 C 
ENDBRANCH   1   4
BRANCH   1  15
ATOM     11  C   UNL     1       6.249   3.956  13.554  0.00  0.00    +0.000 C 
ATOM     12  C   UNL     1       6.239   4.109  15.029  0.00  0.00    +0.000 A 
ATOM     13  C   UNL     1       7.298   4.552  15.849  0.00  0.00    +0.000 A 
ATOM     14  C   UNL     1       6.815   4.532  17.135  0.00  0.00    +0.000 A 
ATOM     15  N   UNL     1       5.495   4.103  17.032  0.00  0.00    +0.000 N 
ATOM     16  N   UNL     1       5.147   3.804  15.740  0.00  0.00    +0.000 NA
BRANCH  14  17
ATOM     17  N   UNL     1       7.466   4.859  18.274  0.00  0.00    +0.000 N 
ATOM     18  H   UNL     1       7.286   5.724  18.780  0.00  0.00    +0.000 HD
ATOM     19  H   UNL     1       8.096   4.211  18.763  0.00  0.00    +0.000 HD
ENDBRANCH  14  17
ENDBRANCH   1  15
TORSDOF 3
ENDMDL
MODEL 7
REMARK VINA RESULT:      -6.5      2.867      3.557
REMARK  Name = 
REMARK  6 active torsions:
REMARK  status: ('A' for Active; 'I' for Inactive)
REMARK    1  A    between atoms: C_1  and  C_2
REMARK    2  A    between atoms: C_4  and  N_5
REMARK    3  A    between atoms: N_6  and  S_7
REMARK    4  A    between atoms: S_7  and  C_10
REMARK    5  A    between atoms: N_12  and  C_13
REMARK    6  A    between atoms: C_15  and  C_16
REMARK                            x       y       z     vdW  Elec       q    Type
REMARK                         _______ _______ _______ _____ _____    ______ ____
ROOT
ATOM      1  S   UNL     1       7.061   5.438  17.623  0.00  0.00    +0.000 S 
ATOM      2  O   UNL     1       7.678   4.350  18.375  0.00  0.00    +0.000 OA
ATOM      3  O   UNL     1       7.613   6.778  17.623  0.00  0.00    +0.000 OA
ENDROOT
BRANCH   1   4
ATOM      4  C   UNL     1       5.488   5.576  18.292  0.00  0.00    +0.000 A 
ATOM      5  C   UNL     1       4.988   4.951  19.415  0.00  0.00    +0.000 A 
ATOM      6  N   UNL     1       3.688   5.347  19.514  0.00  0.00    +0.000 N 
ATOM      7  C   UNL     1       2.745   4.951  20.533  0.00  0.00    +0.000 C 
ATOM      8  N   UNL     1       3.310   6.191  18.534  0.00  0.00    +0.000 NA
ATOM      9  C   UNL     1       4.411   6.327  17.774  0.00  0.00    +0.000 A 
ATOM     10  C   UNL     1       4.385   7.181  16.559  0.00  0.00    +0.000 C 
ENDBRANCH   1   4
BRANCH   1  15
ATOM     11  C   UNL     1       7.758   5.274  12.517  0.00  0.00    +0.000 C 
ATOM     12  C   UNL     1       7.242   4.900  13.857  0.00  0.00    +0.000 A 
ATOM     13  C   UNL     1       6.366   3.839  14.169  0.00  0.00    +0.000 A 
ATOM     14  C   UNL     1       6.181   3.888  15.530  0.00  0.00    +0.000 A 
ATOM     15  N   UNL     1       6.962   4.951  15.975  0.00  0.00    +0.000 N 
ATOM     16  N   UNL     1       7.587   5.603  14.942  0.00  0.00    +0.000 NA
BRANCH  14  17
ATOM     17  N   UNL     1       5.412   3.081  16.295  0.00  0.00    +0.000 N 
ATOM     18  H   UNL     1       4.496   2.753  15.998  0.00  0.00    +0.000 HD
ATOM     19  H   UNL     1       5.748   2.656  17.169  0.00  0.00    +0.000 HD
ENDBRANCH  14  17
ENDBRANCH   1  15
TORSDOF 3
ENDMDL
MODEL 8
REMARK VINA RESULT:      -6.4      2.625      3.497
REMARK  Name = 
REMARK  6 active torsions:
REMARK  status: ('A' for Active; 'I' for Inactive)
REMARK    1  A    between atoms: C_1  and  C_2
REMARK    2  A    between atoms: C_4  and  N_5
REMARK    3  A    between atoms: N_6  and  S_7
REMARK    4  A    between atoms: S_7  and  C_10
REMARK    5  A    between atoms: N_12  and  C_13
REMARK    6  A    between atoms: C_15  and  C_16
REMARK                            x       y       z     vdW  Elec       q    Type
REMARK                         _______ _______ _______ _____ _____    ______ ____
ROOT
ATOM      1  S   UNL     1       4.449   3.726  18.724  0.00  0.00    +0.000 S 
ATOM      2  O   UNL     1       3.703   3.005  17.698  0.00  0.00    +0.000 OA
ATOM      3  O   UNL     1       5.142   3.038  19.794  0.00  0.00    +0.000 OA
ENDROOT
BRANCH   1   4
ATOM      4  C   UNL     1       3.273   4.717  19.484  0.00  0.00    +0.000 A 
ATOM      5  C   UNL     1       3.158   6.090  19.427  0.00  0.00    +0.000 A 
ATOM      6  N   UNL     1       2.097   6.409  20.219  0.00  0.00    +0.000 N 
ATOM      7  C   UNL     1       1.587   7.734  20.480  0.00  0.00    +0.000 C 
ATOM      8  N   UNL     1       1.510   5.335  20.784  0.00  0.00    +0.000 NA
ATOM      9  C   UNL     1       2.235   4.293  20.342  0.00  0.00    +0.000 A 
ATOM     10  C   UNL     1       1.905   2.910  20.773  0.00  0.00    +0.000 C 
ENDBRANCH   1   4
BRANCH   1  15
ATOM     11  C   UNL     1       7.751   7.553  17.706  0.00  0.00    +0.000 C 
ATOM     12  C   UNL     1       6.977   6.303  17.509  0.00  0.00    +0.000 A 
ATOM     13  C   UNL     1       7.024   5.436  16.397  0.00  0.00    +0.000 A 
ATOM     14  C   UNL     1       6.142   4.420  16.671  0.00  0.00    +0.000 A 
ATOM     15  N   UNL     1       5.624   4.705  17.931  0.00  0.00    +0.000 N 
ATOM     16  N   UNL     1       6.106   5.885  18.435  0.00  0.00    +0.000 NA
BRANCH  14  17
ATOM     17  N   UNL     1       5.830   3.355  15.897  0.00  0.00    +0.000 N 
ATOM     18  H   UNL     1       5.394   3.451  14.983  0.00  0.00    +0.000 HD
ATOM     19  H   UNL     1       6.117   2.396  16.128  0.00  0.00    +0.000 HD
ENDBRANCH  14  17
ENDBRANCH   1  15
TORSDOF 3
ENDMDL
MODEL 9
REMARK VINA RESULT:      -6.4      3.257      4.537
REMARK  Name = 
REMARK  6 active torsions:
REMARK  status: ('A' for Active; 'I' for Inactive)
REMARK    1  A    between atoms: C_1  and  C_2
REMARK    2  A    between atoms: C_4  and  N_5
REMARK    3  A    between atoms: N_6  and  S_7
REMARK    4  A    between atoms: S_7  and  C_10
REMARK    5  A    between atoms: N_12  and  C_13
REMARK    6  A    between atoms: C_15  and  C_16
REMARK                            x       y       z     vdW  Elec       q    Type
REMARK                         _______ _______ _______ _____ _____    ______ ____
ROOT
ATOM      1  S   UNL     1       6.220   5.730  15.573  0.00  0.00    +0.000 S 
ATOM      2  O   UNL     1       7.559   6.078  16.038  0.00  0.00    +0.000 OA
ATOM      3  O   UNL     1       5.207   6.738  15.333  0.00  0.00    +0.000 OA
ENDROOT
BRANCH   1   4
ATOM      4  C   UNL     1       5.595   4.716  16.807  0.00  0.00    +0.000 A 
ATOM      5  C   UNL     1       4.554   3.815  16.716  0.00  0.00    +0.000 A 
ATOM      6  N   UNL     1       4.411   3.284  17.963  0.00  0.00    +0.000 N 
ATOM      7  C   UNL     1       3.443   2.292  18.368  0.00  0.00    +0.000 C 
ATOM      8  N   UNL     1       5.292   3.774  18.857  0.00  0.00    +0.000 NA
ATOM      9  C   UNL     1       6.016   4.662  18.153  0.00  0.00    +0.000 A 
ATOM     10  C   UNL     1       7.096   5.442  18.811  0.00  0.00    +0.000 C 
ENDBRANCH   1   4
BRANCH   1  15
ATOM     11  C   UNL     1       5.308   2.427  11.720  0.00  0.00    +0.000 C 
ATOM     12  C   UNL     1       6.009   3.460  12.521  0.00  0.00    +0.000 A 
ATOM     13  C   UNL     1       7.231   4.096  12.214  0.00  0.00    +0.000 A 
ATOM     14  C   UNL     1       7.471   4.973  13.244  0.00  0.00    +0.000 A 
ATOM     15  N   UNL     1       6.385   4.844  14.106  0.00  0.00    +0.000 N 
ATOM     16  N   UNL     1       5.501   3.884  13.685  0.00  0.00    +0.000 NA
BRANCH  14  17
ATOM     17  N   UNL     1       8.529   5.800  13.405  0.00  0.00    +0.000 N 
ATOM     18  H   UNL     1       8.543   6.750  13.040  0.00  0.00    +0.000 HD
ATOM     19  H   UNL     1       9.334   5.566  13.999  0.00  0.00    +0.000 HD
ENDBRANCH  14  17
ENDBRANCH   1  15
TORSDOF 3
ENDMDL
