MODEL 1
REMARK VINA RESULT:      -9.1      0.000      0.000
REMARK  Name = 
REMARK  6 active torsions:
REMARK  status: ('A' for Active; 'I' for Inactive)
REMARK    1  A    between atoms: C_1  and  O_2
REMARK    2  A    between atoms: O_2  and  C_3
REMARK    3  A    between atoms: C_3  and  C_4
REMARK    4  A    between atoms: C_8  and  C_9
REMARK    5  A    between atoms: C_10  and  C_11
REMARK    6  A    between atoms: N_13  and  C_14
REMARK                            x       y       z     vdW  Elec       q    Type
REMARK                         _______ _______ _______ _____ _____    ______ ____
ROOT
ATOM      1  C   UNL     1       2.401   3.741  19.244  0.00  0.00    +0.000 C 
ATOM      2  C   UNL     1       3.516   3.269  18.668  0.00  0.00    +0.000 C 
ATOM      3  C   UNL     1       3.271   1.847  18.344  0.00  0.00    +0.000 C 
ATOM      4  O   UNL     1       4.038   1.084  17.783  0.00  0.00    +0.000 OA
ATOM      5  N   UNL     1       2.027   1.545  18.772  0.00  0.00    +0.000 N 
ATOM      6  C   UNL     1       1.439   2.622  19.333  0.00  0.00    +0.000 C 
ATOM      7  O   UNL     1       0.325   2.660  19.821  0.00  0.00    +0.000 OA
ATOM      8  H   UNL     1       1.596   0.640  18.681  0.00  0.00    +0.000 HD
ENDROOT
BRANCH   2   9
ATOM      9  C   UNL     1       4.725   3.944  18.368  0.00  0.00    +0.000 A 
ATOM     10  C   UNL     1       5.555   4.502  19.313  0.00  0.00    +0.000 A 
ATOM     11  N   UNL     1       6.603   5.090  18.654  0.00  0.00    +0.000 N 
ATOM     12  C   UNL     1       7.680   5.813  19.293  0.00  0.00    +0.000 C 
ATOM     13  C   UNL     1       6.469   4.922  17.291  0.00  0.00    +0.000 A 
ATOM     14  C   UNL     1       7.280   5.361  16.230  0.00  0.00    +0.000 A 
ATOM     15  C   UNL     1       6.877   5.057  14.929  0.00  0.00    +0.000 A 
ATOM     16  C   UNL     1       5.714   4.331  14.707  0.00  0.00    +0.000 A 
ATOM     17  F   UNL     1       5.347   4.059  13.447  0.00  0.00    +0.000 F 
ATOM     18  C   UNL     1       4.914   3.886  15.758  0.00  0.00    +0.000 A 
ATOM     19  C   UNL     1       5.290   4.194  17.082  0.00  0.00    +0.000 A 
ENDBRANCH   2   9
BRANCH   1  24
ATOM     20  C   UNL     1       2.139   8.998  18.338  0.00  0.00    +0.000 A 
ATOM     21  C   UNL     1       2.495   8.027  17.386  0.00  0.00    +0.000 A 
ATOM     22  C   UNL     1       2.537   6.665  17.706  0.00  0.00    +0.000 A 
ATOM     23  C   UNL     1       2.205   6.267  19.013  0.00  0.00    +0.000 A 
ATOM     24  C   UNL     1       2.120   5.039  19.721  0.00  0.00    +0.000 A 
ATOM     25  C   UNL     1       1.715   5.343  21.000  0.00  0.00    +0.000 A 
ATOM     26  O   UNL     1       1.560   6.687  21.140  0.00  0.00    +0.000 OA
ATOM     27  C   UNL     1       1.860   7.249  19.936  0.00  0.00    +0.000 A 
ATOM     28  C   UNL     1       1.825   8.613  19.652  0.00  0.00    +0.000 A 
BRANCH  20  29
ATOM     29  C   UNL     1       2.091  10.453  17.944  0.00  0.00    +0.000 C 
BRANCH  29  31
ATOM     30  C   UNL     1       1.678  12.561  18.904  0.00  0.00    +0.000 C 
ATOM     31  O   UNL     1       1.368  11.175  18.939  0.00  0.00    +0.000 OA
ENDBRANCH  29  31
ENDBRANCH  20  29
ENDBRANCH   1  24
TORSDOF 4
ENDMDL
MODEL 2
REMARK VINA RESULT:      -9.0      1.837      2.373
REMARK  Name = 
REMARK  6 active torsions:
REMARK  status: ('A' for Active; 'I' for Inactive)
REMARK    1  A    between atoms: C_1  and  O_2
REMARK    2  A    between atoms: O_2  and  C_3
REMARK    3  A    between atoms: C_3  and  C_4
REMARK    4  A    between atoms: C_8  and  C_9
REMARK    5  A    between atoms: C_10  and  C_11
REMARK    6  A    between atoms: N_13  and  C_14
REMARK                            x       y       z     vdW  Elec       q    Type
REMARK                         _______ _______ _______ _____ _____    ______ ____
ROOT
ATOM      1  C   UNL     1       2.676   5.047  19.400  0.00  0.00    +0.000 C 
ATOM      2  C   UNL     1       3.831   4.387  19.238  0.00  0.00    +0.000 C 
ATOM      3  C   UNL     1       3.629   3.019  19.761  0.00  0.00    +0.000 C 
ATOM      4  O   UNL     1       4.441   2.110  19.760  0.00  0.00    +0.000 OA
ATOM      5  N   UNL     1       2.366   2.950  20.232  0.00  0.00    +0.000 N 
ATOM      6  C   UNL     1       1.727   4.127  20.063  0.00  0.00    +0.000 C 
ATOM      7  O   UNL     1       0.585   4.380  20.398  0.00  0.00    +0.000 OA
ATOM      8  H   UNL     1       1.956   2.132  20.649  0.00  0.00    +0.000 HD
ENDROOT
BRANCH   2   9
ATOM      9  C   UNL     1       5.046   4.833  18.661  0.00  0.00    +0.000 A 
ATOM     10  C   UNL     1       6.045   5.473  19.359  0.00  0.00    +0.000 A 
ATOM     11  N   UNL     1       7.043   5.780  18.472  0.00  0.00    +0.000 N 
ATOM     12  C   UNL     1       8.260   6.485  18.808  0.00  0.00    +0.000 C 
ATOM     13  C   UNL     1       6.710   5.348  17.204  0.00  0.00    +0.000 A 
ATOM     14  C   UNL     1       7.407   5.455  15.988  0.00  0.00    +0.000 A 
ATOM     15  C   UNL     1       6.804   4.936  14.841  0.00  0.00    +0.000 A 
ATOM     16  C   UNL     1       5.559   4.326  14.918  0.00  0.00    +0.000 A 
ATOM     17  F   UNL     1       5.001   3.842  13.800  0.00  0.00    +0.000 F 
ATOM     18  C   UNL     1       4.871   4.210  16.125  0.00  0.00    +0.000 A 
ATOM     19  C   UNL     1       5.451   4.739  17.297  0.00  0.00    +0.000 A 
ENDBRANCH   2   9
BRANCH   1  24
ATOM     20  C   UNL     1       0.792   9.831  20.847  0.00  0.00    +0.000 A 
ATOM     21  C   UNL     1       0.958   8.731  21.706  0.00  0.00    +0.000 A 
ATOM     22  C   UNL     1       1.463   7.508  21.245  0.00  0.00    +0.000 A 
ATOM     23  C   UNL     1       1.816   7.391  19.889  0.00  0.00    +0.000 A 
ATOM     24  C   UNL     1       2.345   6.375  19.051  0.00  0.00    +0.000 A 
ATOM     25  C   UNL     1       2.474   6.919  17.795  0.00  0.00    +0.000 A 
ATOM     26  O   UNL     1       2.040   8.208  17.792  0.00  0.00    +0.000 OA
ATOM     27  C   UNL     1       1.638   8.495  19.061  0.00  0.00    +0.000 A 
ATOM     28  C   UNL     1       1.123   9.718  19.486  0.00  0.00    +0.000 A 
BRANCH  20  29
ATOM     29  C   UNL     1       0.260  11.133  21.391  0.00  0.00    +0.000 C 
BRANCH  29  31
ATOM     30  C   UNL     1      -1.395  11.294  23.055  0.00  0.00    +0.000 C 
ATOM     31  O   UNL     1      -0.042  10.963  22.774  0.00  0.00    +0.000 OA
ENDBRANCH  29  31
ENDBRANCH  20  29
ENDBRANCH   1  24
TORSDOF 4
ENDMDL
MODEL 3
REMARK VINA RESULT:      -7.5      5.298      9.847
REMARK  Name = 
REMARK  6 active torsions:
REMARK  status: ('A' for Active; 'I' for Inactive)
REMARK    1  A    between atoms: C_1  and  O_2
REMARK    2  A    between atoms: O_2  and  C_3
REMARK    3  A    between atoms: C_3  and  C_4
REMARK    4  A    between atoms: C_8  and  C_9
REMARK    5  A    between atoms: C_10  and  C_11
REMARK    6  A    between atoms: N_13  and  C_14
REMARK                            x       y       z     vdW  Elec       q    Type
REMARK                         _______ _______ _______ _____ _____    ______ ____
ROOT
ATOM      1  C   UNL     1       0.627  11.929  20.057  0.00  0.00    +0.000 C 
ATOM      2  C   UNL     1      -0.357  12.484  19.335  0.00  0.00    +0.000 C 
ATOM      3  C   UNL     1      -0.095  13.938  19.287  0.00  0.00    +0.000 C 
ATOM      4  O   UNL     1      -0.752  14.779  18.698  0.00  0.00    +0.000 OA
ATOM      5  N   UNL     1       1.021  14.170  20.010  0.00  0.00    +0.000 N 
ATOM      6  C   UNL     1       1.513  13.020  20.514  0.00  0.00    +0.000 C 
ATOM      7  O   UNL     1       2.501  12.907  21.217  0.00  0.00    +0.000 OA
ATOM      8  H   UNL     1       1.433  15.078  20.149  0.00  0.00    +0.000 HD
ENDROOT
BRANCH   2   9
ATOM      9  C   UNL     1      -1.454  11.864  18.688  0.00  0.00    +0.000 A 
ATOM     10  C   UNL     1      -1.346  11.076  17.563  0.00  0.00    +0.000 A 
ATOM     11  N   UNL     1      -2.609  10.680  17.209  0.00  0.00    +0.000 N 
ATOM     12  C   UNL     1      -2.925   9.863  16.058  0.00  0.00    +0.000 C 
ATOM     13  C   UNL     1      -3.540  11.197  18.087  0.00  0.00    +0.000 A 
ATOM     14  C   UNL     1      -4.940  11.075  18.112  0.00  0.00    +0.000 A 
ATOM     15  C   UNL     1      -5.636  11.737  19.125  0.00  0.00    +0.000 A 
ATOM     16  C   UNL     1      -4.950  12.479  20.077  0.00  0.00    +0.000 A 
ATOM     17  F   UNL     1      -5.644  13.109  21.035  0.00  0.00    +0.000 F 
ATOM     18  C   UNL     1      -3.561  12.592  20.059  0.00  0.00    +0.000 A 
ATOM     19  C   UNL     1      -2.835  11.946  19.037  0.00  0.00    +0.000 A 
ENDBRANCH   2   9
BRANCH   1  24
ATOM     20  C   UNL     1       2.444   7.110  18.641  0.00  0.00    +0.000 A 
ATOM     21  C   UNL     1       2.510   8.268  17.846  0.00  0.00    +0.000 A 
ATOM     22  C   UNL     1       2.011   9.497  18.295  0.00  0.00    +0.000 A 
ATOM     23  C   UNL     1       1.438   9.565  19.577  0.00  0.00    +0.000 A 
ATOM     24  C   UNL     1       0.843  10.572  20.383  0.00  0.00    +0.000 A 
ATOM     25  C   UNL     1       0.491   9.977  21.571  0.00  0.00    +0.000 A 
ATOM     26  O   UNL     1       0.811   8.655  21.551  0.00  0.00    +0.000 OA
ATOM     27  C   UNL     1       1.383   8.403  20.340  0.00  0.00    +0.000 A 
ATOM     28  C   UNL     1       1.856   7.164  19.915  0.00  0.00    +0.000 A 
BRANCH  20  29
ATOM     29  C   UNL     1       3.010   5.812  18.122  0.00  0.00    +0.000 C 
BRANCH  29  31
ATOM     30  C   UNL     1       4.909   4.643  18.871  0.00  0.00    +0.000 C 
ATOM     31  O   UNL     1       4.429   5.837  18.271  0.00  0.00    +0.000 OA
ENDBRANCH  29  31
ENDBRANCH  20  29
ENDBRANCH   1  24
TORSDOF 4
ENDMDL
MODEL 4
REMARK VINA RESULT:      -7.5      1.740      2.483
REMARK  Name = 
REMARK  6 active torsions:
REMARK  status: ('A' for Active; 'I' for Inactive)
REMARK    1  A    between atoms: C_1  and  O_2
REMARK    2  A    between atoms: O_2  and  C_3
REMARK    3  A    between atoms: C_3  and  C_4
REMARK    4  A    between atoms: C_8  and  C_9
REMARK    5  A    between atoms: C_10  and  C_11
REMARK    6  A    between atoms: N_13  and  C_14
REMARK                            x       y       z     vdW  Elec       q    Type
REMARK                         _______ _______ _______ _____ _____    ______ ____
ROOT
ATOM      1  C   UNL     1       2.575   3.624  19.305  0.00  0.00    +0.000 C 
ATOM      2  C   UNL     1       3.468   3.257  18.375  0.00  0.00    +0.000 C 
ATOM      3  C   UNL     1       3.325   1.798  18.184  0.00  0.00    +0.000 C 
ATOM      4  O   UNL     1       3.943   1.101  17.398  0.00  0.00    +0.000 OA
ATOM      5  N   UNL     1       2.368   1.372  19.036  0.00  0.00    +0.000 N 
ATOM      6  C   UNL     1       1.872   2.402  19.753  0.00  0.00    +0.000 C 
ATOM      7  O   UNL     1       1.010   2.334  20.608  0.00  0.00    +0.000 OA
ATOM      8  H   UNL     1       2.064   0.417  19.122  0.00  0.00    +0.000 HD
ENDROOT
BRANCH   2   9
ATOM      9  C   UNL     1       4.386   4.056  17.649  0.00  0.00    +0.000 A 
ATOM     10  C   UNL     1       4.318   4.274  16.291  0.00  0.00    +0.000 A 
ATOM     11  N   UNL     1       5.382   5.063  15.942  0.00  0.00    +0.000 N 
ATOM     12  C   UNL     1       5.684   5.494  14.594  0.00  0.00    +0.000 C 
ATOM     13  C   UNL     1       6.143   5.365  17.053  0.00  0.00    +0.000 A 
ATOM     14  C   UNL     1       7.322   6.121  17.177  0.00  0.00    +0.000 A 
ATOM     15  C   UNL     1       7.892   6.240  18.445  0.00  0.00    +0.000 A 
ATOM     16  C   UNL     1       7.294   5.635  19.542  0.00  0.00    +0.000 A 
ATOM     17  F   UNL     1       7.866   5.760  20.748  0.00  0.00    +0.000 F 
ATOM     18  C   UNL     1       6.119   4.893  19.423  0.00  0.00    +0.000 A 
ATOM     19  C   UNL     1       5.531   4.744  18.149  0.00  0.00    +0.000 A 
ENDBRANCH   2   9
BRANCH   1  24
ATOM     20  C   UNL     1       1.874   8.855  18.487  0.00  0.00    +0.000 A 
ATOM     21  C   UNL     1       2.124   7.903  17.483  0.00  0.00    +0.000 A 
ATOM     22  C   UNL     1       2.294   6.546  17.783  0.00  0.00    +0.000 A 
ATOM     23  C   UNL     1       2.203   6.134  19.125  0.00  0.00    +0.000 A 
ATOM     24  C   UNL     1       2.303   4.906  19.830  0.00  0.00    +0.000 A 
ATOM     25  C   UNL     1       2.095   5.190  21.159  0.00  0.00    +0.000 A 
ATOM     26  O   UNL     1       1.889   6.524  21.331  0.00  0.00    +0.000 OA
ATOM     27  C   UNL     1       1.957   7.098  20.097  0.00  0.00    +0.000 A 
ATOM     28  C   UNL     1       1.800   8.457  19.832  0.00  0.00    +0.000 A 
BRANCH  20  29
ATOM     29  C   UNL     1       1.681  10.304  18.114  0.00  0.00    +0.000 C 
BRANCH  29  31
ATOM     30  C   UNL     1      -0.665  10.464  18.181  0.00  0.00    +0.000 C 
ATOM     31  O   UNL     1       0.553  10.813  18.822  0.00  0.00    +0.000 OA
ENDBRANCH  29  31
ENDBRANCH  20  29
ENDBRANCH   1  24
TORSDOF 4
ENDMDL
MODEL 5
REMARK VINA RESULT:      -7.3      4.912      9.749
REMARK  Name = 
REMARK  6 active torsions:
REMARK  status: ('A' for Active; 'I' for Inactive)
REMARK    1  A    between atoms: C_1  and  O_2
REMARK    2  A    between atoms: O_2  and  C_3
REMARK    3  A    between atoms: C_3  and  C_4
REMARK    4  A    between atoms: C_8  and  C_9
REMARK    5  A    between atoms: C_10  and  C_11
REMARK    6  A    between atoms: N_13  and  C_14
REMARK                            x       y       z     vdW  Elec       q    Type
REMARK                         _______ _______ _______ _____ _____    ______ ____
ROOT
ATOM      1  C   UNL     1       0.645  12.694  19.915  0.00  0.00    +0.000 C 
ATOM      2  C   UNL     1      -0.468  13.358  19.573  0.00  0.00    +0.000 C 
ATOM      3  C   UNL     1      -0.066  14.742  19.245  0.00  0.00    +0.000 C 
ATOM      4  O   UNL     1      -0.793  15.641  18.860  0.00  0.00    +0.000 OA
ATOM      5  N   UNL     1       1.267  14.831  19.437  0.00  0.00    +0.000 N 
ATOM      6  C   UNL     1       1.772  13.649  19.849  0.00  0.00    +0.000 C 
ATOM      7  O   UNL     1       2.936  13.418  20.116  0.00  0.00    +0.000 OA
ATOM      8  H   UNL     1       1.811  15.665  19.290  0.00  0.00    +0.000 HD
ENDROOT
BRANCH   2   9
ATOM      9  C   UNL     1      -1.802  12.889  19.491  0.00  0.00    +0.000 A 
ATOM     10  C   UNL     1      -2.778  13.162  20.423  0.00  0.00    +0.000 A 
ATOM     11  N   UNL     1      -3.923  12.520  20.029  0.00  0.00    +0.000 N 
ATOM     12  C   UNL     1      -5.171  12.534  20.760  0.00  0.00    +0.000 C 
ATOM     13  C   UNL     1      -3.709  11.834  18.851  0.00  0.00    +0.000 A 
ATOM     14  C   UNL     1      -4.575  11.030  18.090  0.00  0.00    +0.000 A 
ATOM     15  C   UNL     1      -4.068  10.434  16.934  0.00  0.00    +0.000 A 
ATOM     16  C   UNL     1      -2.749  10.649  16.556  0.00  0.00    +0.000 A 
ATOM     17  F   UNL     1      -2.286  10.058  15.445  0.00  0.00    +0.000 F 
ATOM     18  C   UNL     1      -1.891  11.453  17.304  0.00  0.00    +0.000 A 
ATOM     19  C   UNL     1      -2.375  12.055  18.485  0.00  0.00    +0.000 A 
ENDBRANCH   2   9
BRANCH   1  24
ATOM     20  C   UNL     1       2.148   7.723  18.666  0.00  0.00    +0.000 A 
ATOM     21  C   UNL     1       2.244   8.838  17.815  0.00  0.00    +0.000 A 
ATOM     22  C   UNL     1       1.829  10.112  18.223  0.00  0.00    +0.000 A 
ATOM     23  C   UNL     1       1.310  10.270  19.520  0.00  0.00    +0.000 A 
ATOM     24  C   UNL     1       0.802  11.343  20.298  0.00  0.00    +0.000 A 
ATOM     25  C   UNL     1       0.464  10.824  21.525  0.00  0.00    +0.000 A 
ATOM     26  O   UNL     1       0.713   9.486  21.556  0.00  0.00    +0.000 OA
ATOM     27  C   UNL     1       1.224   9.149  20.339  0.00  0.00    +0.000 A 
ATOM     28  C   UNL     1       1.613   7.867  19.956  0.00  0.00    +0.000 A 
BRANCH  20  29
ATOM     29  C   UNL     1       2.624   6.373  18.189  0.00  0.00    +0.000 C 
BRANCH  29  31
ATOM     30  C   UNL     1       3.204   4.521  19.518  0.00  0.00    +0.000 C 
ATOM     31  O   UNL     1       2.152   5.375  19.092  0.00  0.00    +0.000 OA
ENDBRANCH  29  31
ENDBRANCH  20  29
ENDBRANCH   1  24
TORSDOF 4
ENDMDL
MODEL 6
REMARK VINA RESULT:      -7.3      5.980     10.646
REMARK  Name = 
REMARK  6 active torsions:
REMARK  status: ('A' for Active; 'I' for Inactive)
REMARK    1  A    between atoms: C_1  and  O_2
REMARK    2  A    between atoms: O_2  and  C_3
REMARK    3  A    between atoms: C_3  and  C_4
REMARK    4  A    between atoms: C_8  and  C_9
REMARK    5  A    between atoms: C_10  and  C_11
REMARK    6  A    between atoms: N_13  and  C_14
REMARK                            x       y       z     vdW  Elec       q    Type
REMARK                         _______ _______ _______ _____ _____    ______ ____
ROOT
ATOM      1  C   UNL     1      -1.303  13.191  21.720  0.00  0.00    +0.000 C 
ATOM      2  C   UNL     1      -2.378  13.681  21.086  0.00  0.00    +0.000 C 
ATOM      3  C   UNL     1      -2.210  15.148  21.014  0.00  0.00    +0.000 C 
ATOM      4  O   UNL     1      -2.965  15.944  20.482  0.00  0.00    +0.000 OA
ATOM      5  N   UNL     1      -1.051  15.452  21.636  0.00  0.00    +0.000 N 
ATOM      6  C   UNL     1      -0.448  14.337  22.097  0.00  0.00    +0.000 C 
ATOM      7  O   UNL     1       0.601  14.288  22.711  0.00  0.00    +0.000 OA
ATOM      8  H   UNL     1      -0.685  16.384  21.738  0.00  0.00    +0.000 HD
ENDROOT
BRANCH   2   9
ATOM      9  C   UNL     1      -3.487  12.992  20.537  0.00  0.00    +0.000 A 
ATOM     10  C   UNL     1      -4.733  12.942  21.121  0.00  0.00    +0.000 A 
ATOM     11  N   UNL     1      -5.535  12.165  20.326  0.00  0.00    +0.000 N 
ATOM     12  C   UNL     1      -6.916  11.843  20.611  0.00  0.00    +0.000 C 
ATOM     13  C   UNL     1      -4.831  11.709  19.231  0.00  0.00    +0.000 A 
ATOM     14  C   UNL     1      -5.228  10.879  18.168  0.00  0.00    +0.000 A 
ATOM     15  C   UNL     1      -4.278  10.561  17.196  0.00  0.00    +0.000 A 
ATOM     16  C   UNL     1      -2.988  11.067  17.285  0.00  0.00    +0.000 A 
ATOM     17  F   UNL     1      -2.094  10.740  16.342  0.00  0.00    +0.000 F 
ATOM     18  C   UNL     1      -2.595  11.898  18.333  0.00  0.00    +0.000 A 
ATOM     19  C   UNL     1      -3.532  12.223  19.337  0.00  0.00    +0.000 A 
ENDBRANCH   2   9
BRANCH   1  24
ATOM     20  C   UNL     1       1.198   8.663  20.392  0.00  0.00    +0.000 A 
ATOM     21  C   UNL     1       1.230   9.856  19.649  0.00  0.00    +0.000 A 
ATOM     22  C   UNL     1       0.546  11.002  20.070  0.00  0.00    +0.000 A 
ATOM     23  C   UNL     1      -0.182  10.952  21.272  0.00  0.00    +0.000 A 
ATOM     24  C   UNL     1      -0.978  11.852  22.028  0.00  0.00    +0.000 A 
ATOM     25  C   UNL     1      -1.403  11.170  23.144  0.00  0.00    +0.000 A 
ATOM     26  O   UNL     1      -0.937   9.892  23.122  0.00  0.00    +0.000 OA
ATOM     27  C   UNL     1      -0.198   9.758  21.986  0.00  0.00    +0.000 A 
ATOM     28  C   UNL     1       0.458   8.596  21.584  0.00  0.00    +0.000 A 
BRANCH  20  29
ATOM     29  C   UNL     1       1.964   7.457  19.908  0.00  0.00    +0.000 C 
BRANCH  29  31
ATOM     30  C   UNL     1       1.698   5.134  20.162  0.00  0.00    +0.000 C 
ATOM     31  O   UNL     1       1.765   6.386  20.828  0.00  0.00    +0.000 OA
ENDBRANCH  29  31
ENDBRANCH  20  29
ENDBRANCH   1  24
TORSDOF 4
ENDMDL
MODEL 7
REMARK VINA RESULT:      -7.2      5.096      9.901
REMARK  Name = 
REMARK  6 active torsions:
REMARK  status: ('A' for Active; 'I' for Inactive)
REMARK    1  A    between atoms: C_1  and  O_2
REMARK    2  A    between atoms: O_2  and  C_3
REMARK    3  A    between atoms: C_3  and  C_4
REMARK    4  A    between atoms: C_8  and  C_9
REMARK    5  A    between atoms: C_10  and  C_11
REMARK    6  A    between atoms: N_13  and  C_14
REMARK                            x       y       z     vdW  Elec       q    Type
REMARK                         _______ _______ _______ _____ _____    ______ ____
ROOT
ATOM      1  C   UNL     1       0.242  12.536  20.740  0.00  0.00    +0.000 C 
ATOM      2  C   UNL     1      -0.763  13.216  20.170  0.00  0.00    +0.000 C 
ATOM      3  C   UNL     1      -0.239  14.552  19.814  0.00  0.00    +0.000 C 
ATOM      4  O   UNL     1      -0.844  15.447  19.249  0.00  0.00    +0.000 OA
ATOM      5  N   UNL     1       1.048  14.601  20.220  0.00  0.00    +0.000 N 
ATOM      6  C   UNL     1       1.414  13.436  20.793  0.00  0.00    +0.000 C 
ATOM      7  O   UNL     1       2.504  13.179  21.268  0.00  0.00    +0.000 OA
ATOM      8  H   UNL     1       1.652  15.397  20.105  0.00  0.00    +0.000 HD
ENDROOT
BRANCH   2   9
ATOM      9  C   UNL     1      -2.090  12.797  19.900  0.00  0.00    +0.000 A 
ATOM     10  C   UNL     1      -3.150  12.981  20.759  0.00  0.00    +0.000 A 
ATOM     11  N   UNL     1      -4.259  12.424  20.178  0.00  0.00    +0.000 N 
ATOM     12  C   UNL     1      -5.574  12.383  20.779  0.00  0.00    +0.000 C 
ATOM     13  C   UNL     1      -3.938  11.881  18.951  0.00  0.00    +0.000 A 
ATOM     14  C   UNL     1      -4.735  11.199  18.015  0.00  0.00    +0.000 A 
ATOM     15  C   UNL     1      -4.123  10.735  16.849  0.00  0.00    +0.000 A 
ATOM     16  C   UNL     1      -2.770  10.957  16.631  0.00  0.00    +0.000 A 
ATOM     17  F   UNL     1      -2.207  10.494  15.507  0.00  0.00    +0.000 F 
ATOM     18  C   UNL     1      -1.980  11.641  17.554  0.00  0.00    +0.000 A 
ATOM     19  C   UNL     1      -2.571  12.108  18.747  0.00  0.00    +0.000 A 
ENDBRANCH   2   9
BRANCH   1  24
ATOM     20  C   UNL     1       1.629   7.417  20.105  0.00  0.00    +0.000 A 
ATOM     21  C   UNL     1       1.917   8.454  19.201  0.00  0.00    +0.000 A 
ATOM     22  C   UNL     1       1.518   9.774  19.445  0.00  0.00    +0.000 A 
ATOM     23  C   UNL     1       0.819  10.060  20.630  0.00  0.00    +0.000 A 
ATOM     24  C   UNL     1       0.260  11.215  21.239  0.00  0.00    +0.000 A 
ATOM     25  C   UNL     1      -0.289  10.812  22.433  0.00  0.00    +0.000 A 
ATOM     26  O   UNL     1      -0.125   9.472  22.600  0.00  0.00    +0.000 OA
ATOM     27  C   UNL     1       0.545   9.014  21.506  0.00  0.00    +0.000 A 
ATOM     28  C   UNL     1       0.914   7.689  21.283  0.00  0.00    +0.000 A 
BRANCH  20  29
ATOM     29  C   UNL     1       2.093   6.013  19.808  0.00  0.00    +0.000 C 
BRANCH  29  31
ATOM     30  C   UNL     1       1.461   3.844  20.463  0.00  0.00    +0.000 C 
ATOM     31  O   UNL     1       1.729   5.169  20.898  0.00  0.00    +0.000 OA
ENDBRANCH  29  31
ENDBRANCH  20  29
ENDBRANCH   1  24
TORSDOF 4
ENDMDL
MODEL 8
REMARK VINA RESULT:      -7.2      5.349     10.116
REMARK  Name = 
REMARK  6 active torsions:
REMARK  status: ('A' for Active; 'I' for Inactive)
REMARK    1  A    between atoms: C_1  and  O_2
REMARK    2  A    between atoms: O_2  and  C_3
REMARK    3  A    between atoms: C_3  and  C_4
REMARK    4  A    between atoms: C_8  and  C_9
REMARK    5  A    between atoms: C_10  and  C_11
REMARK    6  A    between atoms: N_13  and  C_14
REMARK                            x       y       z     vdW  Elec       q    Type
REMARK                         _______ _______ _______ _____ _____    ______ ____
ROOT
ATOM      1  C   UNL     1      -0.178  12.922  20.882  0.00  0.00    +0.000 C 
ATOM      2  C   UNL     1      -1.324  13.531  20.548  0.00  0.00    +0.000 C 
ATOM      3  C   UNL     1      -1.076  14.988  20.604  0.00  0.00    +0.000 C 
ATOM      4  O   UNL     1      -1.869  15.874  20.335  0.00  0.00    +0.000 OA
ATOM      5  N   UNL     1       0.204  15.163  20.996  0.00  0.00    +0.000 N 
ATOM      6  C   UNL     1       0.812  13.975  21.193  0.00  0.00    +0.000 C 
ATOM      7  O   UNL     1       1.959  13.807  21.562  0.00  0.00    +0.000 OA
ATOM      8  H   UNL     1       0.645  16.059  21.120  0.00  0.00    +0.000 HD
ENDROOT
BRANCH   2   9
ATOM      9  C   UNL     1      -2.567  12.962  20.174  0.00  0.00    +0.000 A 
ATOM     10  C   UNL     1      -3.714  13.043  20.931  0.00  0.00    +0.000 A 
ATOM     11  N   UNL     1      -4.698  12.354  20.272  0.00  0.00    +0.000 N 
ATOM     12  C   UNL     1      -6.050  12.178  20.756  0.00  0.00    +0.000 C 
ATOM     13  C   UNL     1      -4.210  11.827  19.094  0.00  0.00    +0.000 A 
ATOM     14  C   UNL     1      -4.840  11.043  18.111  0.00  0.00    +0.000 A 
ATOM     15  C   UNL     1      -4.078  10.627  17.018  0.00  0.00    +0.000 A 
ATOM     16  C   UNL     1      -2.743  10.996  16.914  0.00  0.00    +0.000 A 
ATOM     17  F   UNL     1      -2.033  10.577  15.857  0.00  0.00    +0.000 F 
ATOM     18  C   UNL     1      -2.120  11.781  17.882  0.00  0.00    +0.000 A 
ATOM     19  C   UNL     1      -2.863  12.202  19.004  0.00  0.00    +0.000 A 
ENDBRANCH   2   9
BRANCH   1  24
ATOM     20  C   UNL     1       1.923   8.542  18.661  0.00  0.00    +0.000 A 
ATOM     21  C   UNL     1       1.929   9.825  18.088  0.00  0.00    +0.000 A 
ATOM     22  C   UNL     1       1.356  10.924  18.740  0.00  0.00    +0.000 A 
ATOM     23  C   UNL     1       0.771  10.731  20.003  0.00  0.00    +0.000 A 
ATOM     24  C   UNL     1       0.113  11.543  20.964  0.00  0.00    +0.000 A 
ATOM     25  C   UNL     1      -0.214  10.726  22.021  0.00  0.00    +0.000 A 
ATOM     26  O   UNL     1       0.181   9.448  21.770  0.00  0.00    +0.000 OA
ATOM     27  C   UNL     1       0.776   9.450  20.545  0.00  0.00    +0.000 A 
ATOM     28  C   UNL     1       1.323   8.334  19.914  0.00  0.00    +0.000 A 
BRANCH  20  29
ATOM     29  C   UNL     1       2.566   7.391  17.929  0.00  0.00    +0.000 C 
BRANCH  29  31
ATOM     30  C   UNL     1       2.849   5.058  18.050  0.00  0.00    +0.000 C 
ATOM     31  O   UNL     1       2.549   6.242  18.775  0.00  0.00    +0.000 OA
ENDBRANCH  29  31
ENDBRANCH  20  29
ENDBRANCH   1  24
TORSDOF 4
ENDMDL
MODEL 9
REMARK VINA RESULT:      -7.2      7.345     11.688
REMARK  Name = 
REMARK  6 active torsions:
REMARK  status: ('A' for Active; 'I' for Inactive)
REMARK    1  A    between atoms: C_1  and  O_2
REMARK    2  A    between atoms: O_2  and  C_3
REMARK    3  A    between atoms: C_3  and  C_4
REMARK    4  A    between atoms: C_8  and  C_9
REMARK    5  A    between atoms: C_10  and  C_11
REMARK    6  A    between atoms: N_13  and  C_14
REMARK                            x       y       z     vdW  Elec       q    Type
REMARK                         _______ _______ _______ _____ _____    ______ ____
ROOT
ATOM      1  C   UNL     1       9.619  14.960  18.932  0.00  0.00    +0.000 C 
ATOM      2  C   UNL     1       8.584  15.788  19.128  0.00  0.00    +0.000 C 
ATOM      3  C   UNL     1       8.871  17.031  18.380  0.00  0.00    +0.000 C 
ATOM      4  O   UNL     1       8.151  18.010  18.286  0.00  0.00    +0.000 OA
ATOM      5  N   UNL     1      10.081  16.881  17.799  0.00  0.00    +0.000 N 
ATOM      6  C   UNL     1      10.603  15.671  18.087  0.00  0.00    +0.000 C 
ATOM      7  O   UNL     1      11.684  15.248  17.721  0.00  0.00    +0.000 OA
ATOM      8  H   UNL     1      10.529  17.575  17.226  0.00  0.00    +0.000 HD
ENDROOT
BRANCH   2   9
ATOM      9  C   UNL     1       7.396  15.579  19.871  0.00  0.00    +0.000 A 
ATOM     10  C   UNL     1       7.355  15.417  21.238  0.00  0.00    +0.000 A 
ATOM     11  N   UNL     1       6.049  15.208  21.594  0.00  0.00    +0.000 N 
ATOM     12  C   UNL     1       5.590  14.964  22.944  0.00  0.00    +0.000 C 
ATOM     13  C   UNL     1       5.236  15.231  20.480  0.00  0.00    +0.000 A 
ATOM     14  C   UNL     1       3.847  15.050  20.356  0.00  0.00    +0.000 A 
ATOM     15  C   UNL     1       3.292  15.107  19.077  0.00  0.00    +0.000 A 
ATOM     16  C   UNL     1       4.098  15.349  17.973  0.00  0.00    +0.000 A 
ATOM     17  F   UNL     1       3.539  15.391  16.755  0.00  0.00    +0.000 F 
ATOM     18  C   UNL     1       5.474  15.538  18.095  0.00  0.00    +0.000 A 
ATOM     19  C   UNL     1       6.063  15.471  19.375  0.00  0.00    +0.000 A 
ENDBRANCH   2   9
BRANCH   1  24
ATOM     20  C   UNL     1       8.704   9.717  18.487  0.00  0.00    +0.000 A 
ATOM     21  C   UNL     1       8.222  10.703  17.608  0.00  0.00    +0.000 A 
ATOM     22  C   UNL     1       8.512  12.060  17.795  0.00  0.00    +0.000 A 
ATOM     23  C   UNL     1       9.311  12.435  18.889  0.00  0.00    +0.000 A 
ATOM     24  C   UNL     1       9.823  13.650  19.417  0.00  0.00    +0.000 A 
ATOM     25  C   UNL     1      10.567  13.322  20.526  0.00  0.00    +0.000 A 
ATOM     26  O   UNL     1      10.536  11.978  20.735  0.00  0.00    +0.000 OA
ATOM     27  C   UNL     1       9.772  11.439  19.745  0.00  0.00    +0.000 A 
ATOM     28  C   UNL     1       9.487  10.084  19.594  0.00  0.00    +0.000 A 
BRANCH  20  29
ATOM     29  C   UNL     1       8.381   8.265  18.235  0.00  0.00    +0.000 C 
BRANCH  29  31
ATOM     30  C   UNL     1       6.779   6.893  17.194  0.00  0.00    +0.000 C 
ATOM     31  O   UNL     1       7.359   8.188  17.243  0.00  0.00    +0.000 OA
ENDBRANCH  29  31
ENDBRANCH  20  29
ENDBRANCH   1  24
TORSDOF 4
ENDMDL
