MODEL 1
REMARK VINA RESULT:      -7.9      0.000      0.000
REMARK  Name = 
REMARK  10 active torsions:
REMARK  status: ('A' for Active; 'I' for Inactive)
REMARK    1  A    between atoms: CG1_1  and  CB_2
REMARK    2  A    between atoms: CB_2  and  CG2_3
REMARK    3  A    between atoms: CB_2  and  CA_4
REMARK    4  A    between atoms: CA_4  and  N_5
REMARK    5  A    between atoms: CA_4  and  C_6
REMARK    6  A    between atoms: N_8  and  CA_9
REMARK    7  A    between atoms: CA_9  and  CB_10
REMARK    8  A    between atoms: CA_9  and  C_17
REMARK    9  A    between atoms: CB_10  and  CG_11
REMARK   10  A    between atoms: C_17  and  OXT_19
REMARK                            x       y       z     vdW  Elec       q    Type
REMARK                         _______ _______ _______ _____ _____    ______ ____
ROOT
ATOM      1  CA  PHE A   2       4.240   3.245  18.649  0.00  0.00    +0.000 C 
ENDROOT
BRANCH   1   4
ATOM      2  C   VAL A   1       6.146   4.825  18.667  0.00  0.00    +0.000 C 
ATOM      3  O   VAL A   1       5.751   5.373  19.695  0.00  0.00    +0.000 OA
ATOM      4  N   PHE A   2       5.465   3.792  18.075  0.00  0.00    +0.000 N 
ATOM      5  H   PHE A   2       5.870   3.297  17.285  0.00  0.00    +0.000 HD
BRANCH   2   6
ATOM      6  CA  VAL A   1       7.433   5.265  17.930  0.00  0.00    +0.000 C 
BRANCH   6   8
ATOM      7  CG1 VAL A   1       7.769   7.814  17.780  0.00  0.00    +0.000 C 
ATOM      8  CB  VAL A   1       7.213   6.556  17.105  0.00  0.00    +0.000 C 
ATOM      9  CG2 VAL A   1       5.728   6.761  16.782  0.00  0.00    +0.000 C 
ENDBRANCH   6   8
BRANCH   6  10
ATOM     10  N   VAL A   1       7.934   4.136  17.118  0.00  0.00    +0.000 NA
ATOM     11  H1  VAL A   1       7.213   3.408  17.134  0.00  0.00    +0.000 HD
ATOM     12  H2  VAL A   1       8.712   3.705  17.621  0.00  0.00    +0.000 HD
ENDBRANCH   6  10
ENDBRANCH   2   6
ENDBRANCH   1   4
BRANCH   1  13
ATOM     13  C   PHE A   2       4.577   1.953  19.407  0.00  0.00    +0.000 C 
ATOM     14  O   PHE A   2       4.994   1.934  20.555  0.00  0.00    +0.000 OA
BRANCH  13  15
ATOM     15  OXT PHE A   2       4.368   0.818  18.701  0.00  0.00    +0.000 OA
ATOM     16  HXT PHE A   2       4.011   0.072  19.218  0.00  0.00    +0.000 HD
ENDBRANCH  13  15
ENDBRANCH   1  13
BRANCH   1  17
ATOM     17  CB  PHE A   2       3.127   3.113  17.589  0.00  0.00    +0.000 C 
BRANCH  17  18
ATOM     18  CG  PHE A   2       1.819   3.908  17.835  0.00  0.00    +0.000 C 
ATOM     19  CD1 PHE A   2       0.710   3.120  18.550  0.00  0.00    +0.000 C 
ATOM     20  CE1 PHE A   2       1.067   2.789  19.995  0.00  0.00    +0.000 C 
ATOM     21  CZ  PHE A   2       1.339   4.062  20.786  0.00  0.00    +0.000 C 
ATOM     22  CE2 PHE A   2       2.410   4.925  20.121  0.00  0.00    +0.000 C 
ATOM     23  CD2 PHE A   2       2.104   5.191  18.646  0.00  0.00    +0.000 C 
ENDBRANCH  17  18
ENDBRANCH   1  17
TORSDOF 8
ENDMDL
MODEL 2
REMARK VINA RESULT:      -7.6      1.083      1.328
REMARK  Name = 
REMARK  10 active torsions:
REMARK  status: ('A' for Active; 'I' for Inactive)
REMARK    1  A    between atoms: CG1_1  and  CB_2
REMARK    2  A    between atoms: CB_2  and  CG2_3
REMARK    3  A    between atoms: CB_2  and  CA_4
REMARK    4  A    between atoms: CA_4  and  N_5
REMARK    5  A    between atoms: CA_4  and  C_6
REMARK    6  A    between atoms: N_8  and  CA_9
REMARK    7  A    between atoms: CA_9  and  CB_10
REMARK    8  A    between atoms: CA_9  and  C_17
REMARK    9  A    between atoms: CB_10  and  CG_11
REMARK   10  A    between atoms: C_17  and  OXT_19
REMARK                            x       y       z     vdW  Elec       q    Type
REMARK                         _______ _______ _______ _____ _____    ______ ____
ROOT
ATOM      1  CA  PHE A   2       3.919   2.902  18.602  0.00  0.00    +0.000 C 
ENDROOT
BRANCH   1   4
ATOM      2  C   VAL A   1       5.745   4.503  18.116  0.00  0.00    +0.000 C 
ATOM      3  O   VAL A   1       5.662   5.018  19.230  0.00  0.00    +0.000 OA
ATOM      4  N   PHE A   2       4.924   3.479  17.715  0.00  0.00    +0.000 N 
ATOM      5  H   PHE A   2       5.085   3.011  16.827  0.00  0.00    +0.000 HD
BRANCH   2   6
ATOM      6  CA  VAL A   1       6.762   4.978  17.052  0.00  0.00    +0.000 C 
BRANCH   6   8
ATOM      7  CG1 VAL A   1       7.183   4.898  14.512  0.00  0.00    +0.000 C 
ATOM      8  CB  VAL A   1       6.144   5.002  15.634  0.00  0.00    +0.000 C 
ATOM      9  CG2 VAL A   1       5.286   6.255  15.423  0.00  0.00    +0.000 C 
ENDBRANCH   6   8
BRANCH   6  10
ATOM     10  N   VAL A   1       7.979   4.143  17.141  0.00  0.00    +0.000 NA
ATOM     11  H1  VAL A   1       7.888   3.399  16.443  0.00  0.00    +0.000 HD
ATOM     12  H2  VAL A   1       7.950   3.636  18.027  0.00  0.00    +0.000 HD
ENDBRANCH   6  10
ENDBRANCH   2   6
ENDBRANCH   1   4
BRANCH   1  13
ATOM     13  C   PHE A   2       4.551   1.742  19.385  0.00  0.00    +0.000 C 
ATOM     14  O   PHE A   2       5.058   1.871  20.488  0.00  0.00    +0.000 OA
BRANCH  13  15
ATOM     15  OXT PHE A   2       4.496   0.546  18.755  0.00  0.00    +0.000 OA
ATOM     16  HXT PHE A   2       3.618   0.120  18.755  0.00  0.00    +0.000 HD
ENDBRANCH  13  15
ENDBRANCH   1  13
BRANCH   1  17
ATOM     17  CB  PHE A   2       2.625   2.552  17.840  0.00  0.00    +0.000 C 
BRANCH  17  18
ATOM     18  CG  PHE A   2       1.364   3.395  18.164  0.00  0.00    +0.000 C 
ATOM     19  CD1 PHE A   2       0.488   2.837  19.295  0.00  0.00    +0.000 C 
ATOM     20  CE1 PHE A   2       1.177   2.900  20.655  0.00  0.00    +0.000 C 
ATOM     21  CZ  PHE A   2       1.551   4.337  21.000  0.00  0.00    +0.000 C 
ATOM     22  CE2 PHE A   2       2.397   4.980  19.904  0.00  0.00    +0.000 C 
ATOM     23  CD2 PHE A   2       1.755   4.846  18.522  0.00  0.00    +0.000 C 
ENDBRANCH  17  18
ENDBRANCH   1  17
TORSDOF 8
ENDMDL
MODEL 3
REMARK VINA RESULT:      -7.3      0.750      1.243
REMARK  Name = 
REMARK  10 active torsions:
REMARK  status: ('A' for Active; 'I' for Inactive)
REMARK    1  A    between atoms: CG1_1  and  CB_2
REMARK    2  A    between atoms: CB_2  and  CG2_3
REMARK    3  A    between atoms: CB_2  and  CA_4
REMARK    4  A    between atoms: CA_4  and  N_5
REMARK    5  A    between atoms: CA_4  and  C_6
REMARK    6  A    between atoms: N_8  and  CA_9
REMARK    7  A    between atoms: CA_9  and  CB_10
REMARK    8  A    between atoms: CA_9  and  C_17
REMARK    9  A    between atoms: CB_10  and  CG_11
REMARK   10  A    between atoms: C_17  and  OXT_19
REMARK                            x       y       z     vdW  Elec       q    Type
REMARK                         _______ _______ _______ _____ _____    ______ ____
ROOT
ATOM      1  CA  PHE A   2       4.083   3.277  18.651  0.00  0.00    +0.000 C 
ENDROOT
BRANCH   1   4
ATOM      2  C   VAL A   1       6.001   4.842  18.587  0.00  0.00    +0.000 C 
ATOM      3  O   VAL A   1       5.638   5.412  19.615  0.00  0.00    +0.000 OA
ATOM      4  N   PHE A   2       5.296   3.803  18.033  0.00  0.00    +0.000 N 
ATOM      5  H   PHE A   2       5.676   3.291  17.242  0.00  0.00    +0.000 HD
BRANCH   2   6
ATOM      6  CA  VAL A   1       7.270   5.259  17.806  0.00  0.00    +0.000 C 
BRANCH   6   8
ATOM      7  CG1 VAL A   1       5.552   6.610  16.443  0.00  0.00    +0.000 C 
ATOM      8  CB  VAL A   1       6.922   5.923  16.453  0.00  0.00    +0.000 C 
ATOM      9  CG2 VAL A   1       6.997   4.912  15.303  0.00  0.00    +0.000 C 
ENDBRANCH   6   8
BRANCH   6  10
ATOM     10  N   VAL A   1       8.157   4.084  17.666  0.00  0.00    +0.000 NA
ATOM     11  H1  VAL A   1       7.582   3.250  17.817  0.00  0.00    +0.000 HD
ATOM     12  H2  VAL A   1       8.797   4.074  18.462  0.00  0.00    +0.000 HD
ENDBRANCH   6  10
ENDBRANCH   2   6
ENDBRANCH   1   4
BRANCH   1  13
ATOM     13  C   PHE A   2       4.352   1.844  19.136  0.00  0.00    +0.000 C 
ATOM     14  O   PHE A   2       3.862   0.854  18.616  0.00  0.00    +0.000 OA
BRANCH  13  15
ATOM     15  OXT PHE A   2       5.192   1.759  20.193  0.00  0.00    +0.000 OA
ATOM     16  HXT PHE A   2       6.034   1.300  20.014  0.00  0.00    +0.000 HD
ENDBRANCH  13  15
ENDBRANCH   1  13
BRANCH   1  17
ATOM     17  CB  PHE A   2       2.860   3.437  17.726  0.00  0.00    +0.000 C 
BRANCH  17  18
ATOM     18  CG  PHE A   2       1.611   4.137  18.321  0.00  0.00    +0.000 C 
ATOM     19  CD1 PHE A   2       0.569   3.187  18.931  0.00  0.00    +0.000 C 
ATOM     20  CE1 PHE A   2       1.078   2.490  20.189  0.00  0.00    +0.000 C 
ATOM     21  CZ  PHE A   2       1.474   3.513  21.247  0.00  0.00    +0.000 C 
ATOM     22  CE2 PHE A   2       2.486   4.522  20.708  0.00  0.00    +0.000 C 
ATOM     23  CD2 PHE A   2       2.023   5.164  19.400  0.00  0.00    +0.000 C 
ENDBRANCH  17  18
ENDBRANCH   1  17
TORSDOF 8
ENDMDL
MODEL 4
REMARK VINA RESULT:      -7.2      0.613      1.149
REMARK  Name = 
REMARK  10 active torsions:
REMARK  status: ('A' for Active; 'I' for Inactive)
REMARK    1  A    between atoms: CG1_1  and  CB_2
REMARK    2  A    between atoms: CB_2  and  CG2_3
REMARK    3  A    between atoms: CB_2  and  CA_4
REMARK    4  A    between atoms: CA_4  and  N_5
REMARK    5  A    between atoms: CA_4  and  C_6
REMARK    6  A    between atoms: N_8  and  CA_9
REMARK    7  A    between atoms: CA_9  and  CB_10
REMARK    8  A    between atoms: CA_9  and  C_17
REMARK    9  A    between atoms: CB_10  and  CG_11
REMARK   10  A    between atoms: C_17  and  OXT_19
REMARK                            x       y       z     vdW  Elec       q    Type
REMARK                         _______ _______ _______ _____ _____    ______ ____
ROOT
ATOM      1  CA  PHE A   2       4.071   3.370  18.472  0.00  0.00    +0.000 C 
ENDROOT
BRANCH   1   4
ATOM      2  C   VAL A   1       6.153   4.703  18.617  0.00  0.00    +0.000 C 
ATOM      3  O   VAL A   1       5.896   5.080  19.759  0.00  0.00    +0.000 OA
ATOM      4  N   PHE A   2       5.314   3.884  17.905  0.00  0.00    +0.000 N 
ATOM      5  H   PHE A   2       5.603   3.512  17.004  0.00  0.00    +0.000 HD
BRANCH   2   6
ATOM      6  CA  VAL A   1       7.433   5.138  17.864  0.00  0.00    +0.000 C 
BRANCH   6   8
ATOM      7  CG1 VAL A   1       7.938   7.655  18.072  0.00  0.00    +0.000 C 
ATOM      8  CB  VAL A   1       7.285   6.546  17.241  0.00  0.00    +0.000 C 
ATOM      9  CG2 VAL A   1       5.812   6.891  16.993  0.00  0.00    +0.000 C 
ENDBRANCH   6   8
BRANCH   6  10
ATOM     10  N   VAL A   1       7.787   4.099  16.875  0.00  0.00    +0.000 NA
ATOM     11  H1  VAL A   1       8.415   4.532  16.191  0.00  0.00    +0.000 HD
ATOM     12  H2  VAL A   1       6.953   3.889  16.324  0.00  0.00    +0.000 HD
ENDBRANCH   6  10
ENDBRANCH   2   6
ENDBRANCH   1   4
BRANCH   1  13
ATOM     13  C   PHE A   2       4.325   1.964  19.036  0.00  0.00    +0.000 C 
ATOM     14  O   PHE A   2       3.849   0.948  18.551  0.00  0.00    +0.000 OA
BRANCH  13  15
ATOM     15  OXT PHE A   2       5.133   1.932  20.119  0.00  0.00    +0.000 OA
ATOM     16  HXT PHE A   2       5.840   1.261  20.086  0.00  0.00    +0.000 HD
ENDBRANCH  13  15
ENDBRANCH   1  13
BRANCH   1  17
ATOM     17  CB  PHE A   2       2.905   3.475  17.470  0.00  0.00    +0.000 C 
BRANCH  17  18
ATOM     18  CG  PHE A   2       1.612   4.177  17.960  0.00  0.00    +0.000 C 
ATOM     19  CD1 PHE A   2       1.184   3.815  19.390  0.00  0.00    +0.000 C 
ATOM     20  CE1 PHE A   2       2.157   4.336  20.443  0.00  0.00    +0.000 C 
ATOM     21  CZ  PHE A   2       2.287   5.851  20.349  0.00  0.00    +0.000 C 
ATOM     22  CE2 PHE A   2       2.678   6.301  18.943  0.00  0.00    +0.000 C 
ATOM     23  CD2 PHE A   2       1.759   5.713  17.871  0.00  0.00    +0.000 C 
ENDBRANCH  17  18
ENDBRANCH   1  17
TORSDOF 8
ENDMDL
MODEL 5
REMARK VINA RESULT:      -7.2      2.627      3.759
REMARK  Name = 
REMARK  10 active torsions:
REMARK  status: ('A' for Active; 'I' for Inactive)
REMARK    1  A    between atoms: CG1_1  and  CB_2
REMARK    2  A    between atoms: CB_2  and  CG2_3
REMARK    3  A    between atoms: CB_2  and  CA_4
REMARK    4  A    between atoms: CA_4  and  N_5
REMARK    5  A    between atoms: CA_4  and  C_6
REMARK    6  A    between atoms: N_8  and  CA_9
REMARK    7  A    between atoms: CA_9  and  CB_10
REMARK    8  A    between atoms: CA_9  and  C_17
REMARK    9  A    between atoms: CB_10  and  CG_11
REMARK   10  A    between atoms: C_17  and  OXT_19
REMARK                            x       y       z     vdW  Elec       q    Type
REMARK                         _______ _______ _______ _____ _____    ______ ____
ROOT
ATOM      1  CA  PHE A   2       6.226   5.766  18.490  0.00  0.00    +0.000 C 
ENDROOT
BRANCH   1   4
ATOM      2  C   VAL A   1       6.389   5.230  16.078  0.00  0.00    +0.000 C 
ATOM      3  O   VAL A   1       6.014   6.353  15.748  0.00  0.00    +0.000 OA
ATOM      4  N   PHE A   2       6.504   4.847  17.390  0.00  0.00    +0.000 N 
ATOM      5  H   PHE A   2       6.912   3.946  17.628  0.00  0.00    +0.000 HD
BRANCH   2   6
ATOM      6  CA  VAL A   1       6.740   4.132  15.045  0.00  0.00    +0.000 C 
BRANCH   6   8
ATOM      7  CG1 VAL A   1       5.989   3.542  12.653  0.00  0.00    +0.000 C 
ATOM      8  CB  VAL A   1       6.540   4.622  13.592  0.00  0.00    +0.000 C 
ATOM      9  CG2 VAL A   1       7.841   5.189  13.013  0.00  0.00    +0.000 C 
ENDBRANCH   6   8
BRANCH   6  10
ATOM     10  N   VAL A   1       5.969   2.910  15.359  0.00  0.00    +0.000 NA
ATOM     11  H1  VAL A   1       6.551   2.333  15.973  0.00  0.00    +0.000 HD
ATOM     12  H2  VAL A   1       5.903   2.351  14.506  0.00  0.00    +0.000 HD
ENDBRANCH   6  10
ENDBRANCH   2   6
ENDBRANCH   1   4
BRANCH   1  13
ATOM     13  C   PHE A   2       7.475   5.877  19.375  0.00  0.00    +0.000 C 
ATOM     14  O   PHE A   2       7.659   5.192  20.370  0.00  0.00    +0.000 OA
BRANCH  13  15
ATOM     15  OXT PHE A   2       8.375   6.798  18.962  0.00  0.00    +0.000 OA
ATOM     16  HXT PHE A   2       8.194   7.187  18.086  0.00  0.00    +0.000 HD
ENDBRANCH  13  15
ENDBRANCH   1  13
BRANCH   1  17
ATOM     17  CB  PHE A   2       4.928   5.385  19.230  0.00  0.00    +0.000 C 
BRANCH  17  18
ATOM     18  CG  PHE A   2       3.589   5.821  18.580  0.00  0.00    +0.000 C 
ATOM     19  CD1 PHE A   2       2.873   4.722  17.781  0.00  0.00    +0.000 C 
ATOM     20  CE1 PHE A   2       2.355   3.595  18.669  0.00  0.00    +0.000 C 
ATOM     21  CZ  PHE A   2       1.388   4.138  19.715  0.00  0.00    +0.000 C 
ATOM     22  CE2 PHE A   2       2.014   5.264  20.534  0.00  0.00    +0.000 C 
ATOM     23  CD2 PHE A   2       2.613   6.359  19.650  0.00  0.00    +0.000 C 
ENDBRANCH  17  18
ENDBRANCH   1  17
TORSDOF 8
ENDMDL
MODEL 6
REMARK VINA RESULT:      -7.1      2.804      3.410
REMARK  Name = 
REMARK  10 active torsions:
REMARK  status: ('A' for Active; 'I' for Inactive)
REMARK    1  A    between atoms: CG1_1  and  CB_2
REMARK    2  A    between atoms: CB_2  and  CG2_3
REMARK    3  A    between atoms: CB_2  and  CA_4
REMARK    4  A    between atoms: CA_4  and  N_5
REMARK    5  A    between atoms: CA_4  and  C_6
REMARK    6  A    between atoms: N_8  and  CA_9
REMARK    7  A    between atoms: CA_9  and  CB_10
REMARK    8  A    between atoms: CA_9  and  C_17
REMARK    9  A    between atoms: CB_10  and  CG_11
REMARK   10  A    between atoms: C_17  and  OXT_19
REMARK                            x       y       z     vdW  Elec       q    Type
REMARK                         _______ _______ _______ _____ _____    ______ ____
ROOT
ATOM      1  CA  PHE A   2       4.894   4.396  17.284  0.00  0.00    +0.000 C 
ENDROOT
BRANCH   1   4
ATOM      2  C   VAL A   1       5.696   5.376  15.156  0.00  0.00    +0.000 C 
ATOM      3  O   VAL A   1       5.153   6.455  15.386  0.00  0.00    +0.000 OA
ATOM      4  N   PHE A   2       5.609   4.309  16.015  0.00  0.00    +0.000 N 
ATOM      5  H   PHE A   2       6.152   3.466  15.843  0.00  0.00    +0.000 HD
BRANCH   2   6
ATOM      6  CA  VAL A   1       6.508   5.108  13.866  0.00  0.00    +0.000 C 
BRANCH   6   8
ATOM      7  CG1 VAL A   1       7.115   3.323  12.112  0.00  0.00    +0.000 C 
ATOM      8  CB  VAL A   1       6.171   3.730  13.249  0.00  0.00    +0.000 C 
ATOM      9  CG2 VAL A   1       4.722   3.683  12.753  0.00  0.00    +0.000 C 
ENDBRANCH   6   8
BRANCH   6  10
ATOM     10  N   VAL A   1       7.947   5.279  14.157  0.00  0.00    +0.000 NA
ATOM     11  H1  VAL A   1       8.405   5.542  13.279  0.00  0.00    +0.000 HD
ATOM     12  H2  VAL A   1       8.340   4.358  14.358  0.00  0.00    +0.000 HD
ENDBRANCH   6  10
ENDBRANCH   2   6
ENDBRANCH   1   4
BRANCH   1  13
ATOM     13  C   PHE A   2       5.898   4.711  18.402  0.00  0.00    +0.000 C 
ATOM     14  O   PHE A   2       5.621   5.373  19.391  0.00  0.00    +0.000 OA
BRANCH  13  15
ATOM     15  OXT PHE A   2       7.130   4.184  18.214  0.00  0.00    +0.000 OA
ATOM     16  HXT PHE A   2       7.188   3.218  18.333  0.00  0.00    +0.000 HD
ENDBRANCH  13  15
ENDBRANCH   1  13
BRANCH   1  17
ATOM     17  CB  PHE A   2       4.012   3.154  17.524  0.00  0.00    +0.000 C 
BRANCH  17  18
ATOM     18  CG  PHE A   2       2.477   3.344  17.406  0.00  0.00    +0.000 C 
ATOM     19  CD1 PHE A   2       1.639   2.324  18.193  0.00  0.00    +0.000 C 
ATOM     20  CE1 PHE A   2       1.788   2.486  19.703  0.00  0.00    +0.000 C 
ATOM     21  CZ  PHE A   2       1.373   3.887  20.136  0.00  0.00    +0.000 C 
ATOM     22  CE2 PHE A   2       2.138   4.966  19.372  0.00  0.00    +0.000 C 
ATOM     23  CD2 PHE A   2       2.067   4.763  17.858  0.00  0.00    +0.000 C 
ENDBRANCH  17  18
ENDBRANCH   1  17
TORSDOF 8
ENDMDL
MODEL 7
REMARK VINA RESULT:      -7.1      2.692      3.594
REMARK  Name = 
REMARK  10 active torsions:
REMARK  status: ('A' for Active; 'I' for Inactive)
REMARK    1  A    between atoms: CG1_1  and  CB_2
REMARK    2  A    between atoms: CB_2  and  CG2_3
REMARK    3  A    between atoms: CB_2  and  CA_4
REMARK    4  A    between atoms: CA_4  and  N_5
REMARK    5  A    between atoms: CA_4  and  C_6
REMARK    6  A    between atoms: N_8  and  CA_9
REMARK    7  A    between atoms: CA_9  and  CB_10
REMARK    8  A    between atoms: CA_9  and  C_17
REMARK    9  A    between atoms: CB_10  and  CG_11
REMARK   10  A    between atoms: C_17  and  OXT_19
REMARK                            x       y       z     vdW  Elec       q    Type
REMARK                         _______ _______ _______ _____ _____    ______ ____
ROOT
ATOM      1  CA  PHE A   2       2.922   6.247  17.494  0.00  0.00    +0.000 C 
ENDROOT
BRANCH   1   4
ATOM      2  C   VAL A   1       5.259   6.258  16.675  0.00  0.00    +0.000 C 
ATOM      3  O   VAL A   1       4.933   6.736  15.590  0.00  0.00    +0.000 OA
ATOM      4  N   PHE A   2       4.346   5.969  17.657  0.00  0.00    +0.000 N 
ATOM      5  H   PHE A   2       4.659   5.669  18.577  0.00  0.00    +0.000 HD
BRANCH   2   6
ATOM      6  CA  VAL A   1       6.726   5.912  17.026  0.00  0.00    +0.000 C 
BRANCH   6   8
ATOM      7  CG1 VAL A   1       8.034   8.001  17.775  0.00  0.00    +0.000 C 
ATOM      8  CB  VAL A   1       7.249   6.759  18.211  0.00  0.00    +0.000 C 
ATOM      9  CG2 VAL A   1       8.109   5.915  19.159  0.00  0.00    +0.000 C 
ENDBRANCH   6   8
BRANCH   6  10
ATOM     10  N   VAL A   1       7.557   6.039  15.810  0.00  0.00    +0.000 NA
ATOM     11  H1  VAL A   1       7.429   5.181  15.265  0.00  0.00    +0.000 HD
ATOM     12  H2  VAL A   1       8.538   5.993  16.091  0.00  0.00    +0.000 HD
ENDBRANCH   6  10
ENDBRANCH   2   6
ENDBRANCH   1   4
BRANCH   1  13
ATOM     13  C   PHE A   2       2.586   7.563  18.209  0.00  0.00    +0.000 C 
ATOM     14  O   PHE A   2       2.380   7.644  19.411  0.00  0.00    +0.000 OA
BRANCH  13  15
ATOM     15  OXT PHE A   2       2.543   8.646  17.400  0.00  0.00    +0.000 OA
ATOM     16  HXT PHE A   2       2.156   8.486  16.518  0.00  0.00    +0.000 HD
ENDBRANCH  13  15
ENDBRANCH   1  13
BRANCH   1  17
ATOM     17  CB  PHE A   2       2.059   5.037  17.905  0.00  0.00    +0.000 C 
BRANCH  17  18
ATOM     18  CG  PHE A   2       2.779   3.864  18.618  0.00  0.00    +0.000 C 
ATOM     19  CD1 PHE A   2       3.132   4.124  20.091  0.00  0.00    +0.000 C 
ATOM     20  CE1 PHE A   2       1.897   4.227  20.980  0.00  0.00    +0.000 C 
ATOM     21  CZ  PHE A   2       1.072   2.948  20.902  0.00  0.00    +0.000 C 
ATOM     22  CE2 PHE A   2       0.706   2.597  19.461  0.00  0.00    +0.000 C 
ATOM     23  CD2 PHE A   2       1.929   2.576  18.543  0.00  0.00    +0.000 C 
ENDBRANCH  17  18
ENDBRANCH   1  17
TORSDOF 8
ENDMDL
MODEL 8
REMARK VINA RESULT:      -7.1      1.287      1.797
REMARK  Name = 
REMARK  10 active torsions:
REMARK  status: ('A' for Active; 'I' for Inactive)
REMARK    1  A    between atoms: CG1_1  and  CB_2
REMARK    2  A    between atoms: CB_2  and  CG2_3
REMARK    3  A    between atoms: CB_2  and  CA_4
REMARK    4  A    between atoms: CA_4  and  N_5
REMARK    5  A    between atoms: CA_4  and  C_6
REMARK    6  A    between atoms: N_8  and  CA_9
REMARK    7  A    between atoms: CA_9  and  CB_10
REMARK    8  A    between atoms: CA_9  and  C_17
REMARK    9  A    between atoms: CB_10  and  CG_11
REMARK   10  A    between atoms: C_17  and  OXT_19
REMARK                            x       y       z     vdW  Elec       q    Type
REMARK                         _______ _______ _______ _____ _____    ______ ____
ROOT
ATOM      1  CA  PHE A   2       4.381   2.503  19.686  0.00  0.00    +0.000 C 
ENDROOT
BRANCH   1   4
ATOM      2  C   VAL A   1       5.442   4.595  18.894  0.00  0.00    +0.000 C 
ATOM      3  O   VAL A   1       4.655   5.297  19.528  0.00  0.00    +0.000 OA
ATOM      4  N   PHE A   2       5.374   3.225  18.896  0.00  0.00    +0.000 N 
ATOM      5  H   PHE A   2       6.099   2.675  18.443  0.00  0.00    +0.000 HD
BRANCH   2   6
ATOM      6  CA  VAL A   1       6.567   5.190  18.014  0.00  0.00    +0.000 C 
BRANCH   6   8
ATOM      7  CG1 VAL A   1       4.933   6.562  16.570  0.00  0.00    +0.000 C 
ATOM      8  CB  VAL A   1       6.066   5.530  16.590  0.00  0.00    +0.000 C 
ATOM      9  CG2 VAL A   1       5.622   4.267  15.842  0.00  0.00    +0.000 C 
ENDBRANCH   6   8
BRANCH   6  10
ATOM     10  N   VAL A   1       7.722   4.268  18.019  0.00  0.00    +0.000 NA
ATOM     11  H1  VAL A   1       7.961   4.086  18.998  0.00  0.00    +0.000 HD
ATOM     12  H2  VAL A   1       8.536   4.779  17.672  0.00  0.00    +0.000 HD
ENDBRANCH   6  10
ENDBRANCH   2   6
ENDBRANCH   1   4
BRANCH   1  13
ATOM     13  C   PHE A   2       5.081   1.369  20.450  0.00  0.00    +0.000 C 
ATOM     14  O   PHE A   2       5.439   1.463  21.615  0.00  0.00    +0.000 OA
BRANCH  13  15
ATOM     15  OXT PHE A   2       5.267   0.239  19.731  0.00  0.00    +0.000 OA
ATOM     16  HXT PHE A   2       5.808  -0.444  20.169  0.00  0.00    +0.000 HD
ENDBRANCH  13  15
ENDBRANCH   1  13
BRANCH   1  17
ATOM     17  CB  PHE A   2       3.179   2.068  18.824  0.00  0.00    +0.000 C 
BRANCH  17  18
ATOM     18  CG  PHE A   2       1.777   2.128  19.484  0.00  0.00    +0.000 C 
ATOM     19  CD1 PHE A   2       1.786   2.435  20.990  0.00  0.00    +0.000 C 
ATOM     20  CE1 PHE A   2       2.259   3.852  21.295  0.00  0.00    +0.000 C 
ATOM     21  CZ  PHE A   2       1.369   4.876  20.601  0.00  0.00    +0.000 C 
ATOM     22  CE2 PHE A   2       1.277   4.620  19.098  0.00  0.00    +0.000 C 
ATOM     23  CD2 PHE A   2       0.887   3.176  18.780  0.00  0.00    +0.000 C 
ENDBRANCH  17  18
ENDBRANCH   1  17
TORSDOF 8
ENDMDL
MODEL 9
REMARK VINA RESULT:      -7.1      2.616      3.924
REMARK  Name = 
REMARK  10 active torsions:
REMARK  status: ('A' for Active; 'I' for Inactive)
REMARK    1  A    between atoms: CG1_1  and  CB_2
REMARK    2  A    between atoms: CB_2  and  CG2_3
REMARK    3  A    between atoms: CB_2  and  CA_4
REMARK    4  A    between atoms: CA_4  and  N_5
REMARK    5  A    between atoms: CA_4  and  C_6
REMARK    6  A    between atoms: N_8  and  CA_9
REMARK    7  A    between atoms: CA_9  and  CB_10
REMARK    8  A    between atoms: CA_9  and  C_17
REMARK    9  A    between atoms: CB_10  and  CG_11
REMARK   10  A    between atoms: C_17  and  OXT_19
REMARK                            x       y       z     vdW  Elec       q    Type
REMARK                         _______ _______ _______ _____ _____    ______ ____
ROOT
ATOM      1  CA  PHE A   2       6.175   5.718  18.485  0.00  0.00    +0.000 C 
ENDROOT
BRANCH   1   4
ATOM      2  C   VAL A   1       6.372   5.206  16.071  0.00  0.00    +0.000 C 
ATOM      3  O   VAL A   1       6.025   6.341  15.747  0.00  0.00    +0.000 OA
ATOM      4  N   PHE A   2       6.456   4.807  17.381  0.00  0.00    +0.000 N 
ATOM      5  H   PHE A   2       6.841   3.896  17.615  0.00  0.00    +0.000 HD
BRANCH   2   6
ATOM      6  CA  VAL A   1       6.720   4.113  15.032  0.00  0.00    +0.000 C 
BRANCH   6   8
ATOM      7  CG1 VAL A   1       5.972   3.547  12.634  0.00  0.00    +0.000 C 
ATOM      8  CB  VAL A   1       6.530   4.614  13.581  0.00  0.00    +0.000 C 
ATOM      9  CG2 VAL A   1       7.838   5.173  13.011  0.00  0.00    +0.000 C 
ENDBRANCH   6   8
BRANCH   6  10
ATOM     10  N   VAL A   1       5.939   2.895  15.334  0.00  0.00    +0.000 NA
ATOM     11  H1  VAL A   1       5.115   3.187  15.866  0.00  0.00    +0.000 HD
ATOM     12  H2  VAL A   1       6.468   2.339  16.009  0.00  0.00    +0.000 HD
ENDBRANCH   6  10
ENDBRANCH   2   6
ENDBRANCH   1   4
BRANCH   1  13
ATOM     13  C   PHE A   2       7.496   6.086  19.177  0.00  0.00    +0.000 C 
ATOM     14  O   PHE A   2       8.268   6.931  18.750  0.00  0.00    +0.000 OA
BRANCH  13  15
ATOM     15  OXT PHE A   2       7.742   5.400  20.316  0.00  0.00    +0.000 OA
ATOM     16  HXT PHE A   2       8.238   5.894  20.996  0.00  0.00    +0.000 HD
ENDBRANCH  13  15
ENDBRANCH   1  13
BRANCH   1  17
ATOM     17  CB  PHE A   2       5.080   5.160  19.416  0.00  0.00    +0.000 C 
BRANCH  17  18
ATOM     18  CG  PHE A   2       3.661   5.771  19.285  0.00  0.00    +0.000 C 
ATOM     19  CD1 PHE A   2       3.014   5.609  17.902  0.00  0.00    +0.000 C 
ATOM     20  CE1 PHE A   2       2.683   4.155  17.578  0.00  0.00    +0.000 C 
ATOM     21  CZ  PHE A   2       1.737   3.575  18.622  0.00  0.00    +0.000 C 
ATOM     22  CE2 PHE A   2       2.292   3.729  20.037  0.00  0.00    +0.000 C 
ATOM     23  CD2 PHE A   2       2.708   5.169  20.342  0.00  0.00    +0.000 C 
ENDBRANCH  17  18
ENDBRANCH   1  17
TORSDOF 8
ENDMDL
