MODEL 1
REMARK VINA RESULT:      -7.1      0.000      0.000
REMARK  Name = 
REMARK  14 active torsions:
REMARK  status: ('A' for Active; 'I' for Inactive)
REMARK    1  A    between atoms: C_1  and  C_2
REMARK    2  A    between atoms: C_2  and  C_3
REMARK    3  A    between atoms: C_2  and  C_4
REMARK    4  A    between atoms: C_4  and  C_5
REMARK    5  A    between atoms: C_5  and  N_6
REMARK    6  A    between atoms: C_5  and  O_14
REMARK    7  A    between atoms: C_7  and  O_9
REMARK    8  A    between atoms: O_9  and  C_10
REMARK    9  A    between atoms: C_10  and  C_11
REMARK   10  A    between atoms: C_10  and  C_12
REMARK   11  A    between atoms: C_10  and  C_13
REMARK   12  A    between atoms: O_14  and  C_15
REMARK   13  A    between atoms: C_15  and  C_17
REMARK   14  A    between atoms: C_20  and  N_21
REMARK                            x       y       z     vdW  Elec       q    Type
REMARK                         _______ _______ _______ _____ _____    ______ ____
ROOT
ATOM      1  C   UNL     1       2.891   5.121  19.523  0.00  0.00    +0.000 C 
ENDROOT
BRANCH   1   2
ATOM      2  N   UNL     1       3.473   4.955  18.179  0.00  0.00    +0.000 N 
ATOM      3  C   UNL     1       4.311   3.908  17.865  0.00  0.00    +0.000 C 
ATOM      4  O   UNL     1       4.708   3.105  18.703  0.00  0.00    +0.000 OA
ATOM      5  H   UNL     1       3.100   5.474  17.398  0.00  0.00    +0.000 HD
BRANCH   3   6
ATOM      6  O   UNL     1       4.586   3.862  16.521  0.00  0.00    +0.000 OA
BRANCH   6   7
ATOM      7  C   UNL     1       5.743   4.572  15.945  0.00  0.00    +0.000 C 
ATOM      8  C   UNL     1       6.961   4.599  16.883  0.00  0.00    +0.000 C 
ATOM      9  C   UNL     1       6.181   3.902  14.621  0.00  0.00    +0.000 C 
ATOM     10  C   UNL     1       5.325   5.994  15.581  0.00  0.00    +0.000 C 
ENDBRANCH   6   7
ENDBRANCH   3   6
ENDBRANCH   1   2
BRANCH   1  11
ATOM     11  C   UNL     1       1.378   4.763  19.558  0.00  0.00    +0.000 C 
BRANCH  11  13
ATOM     12  C   UNL     1       1.270   2.192  19.289  0.00  0.00    +0.000 C 
ATOM     13  C   UNL     1       1.033   3.400  20.207  0.00  0.00    +0.000 C 
ATOM     14  C   UNL     1       1.875   3.097  21.447  0.00  0.00    +0.000 C 
ENDBRANCH  11  13
ENDBRANCH   1  11
BRANCH   1  15
ATOM     15  O   UNL     1       3.064   6.510  19.875  0.00  0.00    +0.000 OA
BRANCH  15  16
ATOM     16  C   UNL     1       2.382   7.387  19.085  0.00  0.00    +0.000 C 
ATOM     17  O   UNL     1       2.383   7.441  17.882  0.00  0.00    +0.000 OA
BRANCH  16  18
ATOM     18  C   UNL     1       1.533   8.309  19.917  0.00  0.00    +0.000 A 
ATOM     19  C   UNL     1       1.058   9.482  19.307  0.00  0.00    +0.000 A 
ATOM     20  C   UNL     1       0.407  10.465  20.061  0.00  0.00    +0.000 A 
ATOM     21  C   UNL     1       0.216  10.266  21.432  0.00  0.00    +0.000 A 
ATOM     22  C   UNL     1       0.639   9.072  22.043  0.00  0.00    +0.000 A 
ATOM     23  C   UNL     1       1.286   8.090  21.276  0.00  0.00    +0.000 A 
BRANCH  21  24
ATOM     24  N   UNL     1      -0.400  11.323  22.246  0.00  0.00    +0.000 N 
ATOM     25  O   UNL     1      -0.843  10.999  23.365  0.00  0.00    +0.000 OA
ATOM     26  O   UNL     1      -0.450  12.461  21.777  0.00  0.00    +0.000 OA
ENDBRANCH  21  24
ENDBRANCH  16  18
ENDBRANCH  15  16
ENDBRANCH   1  15
TORSDOF 9
ENDMDL
MODEL 2
REMARK VINA RESULT:      -7.1      0.895      1.594
REMARK  Name = 
REMARK  14 active torsions:
REMARK  status: ('A' for Active; 'I' for Inactive)
REMARK    1  A    between atoms: C_1  and  C_2
REMARK    2  A    between atoms: C_2  and  C_3
REMARK    3  A    between atoms: C_2  and  C_4
REMARK    4  A    between atoms: C_4  and  C_5
REMARK    5  A    between atoms: C_5  and  N_6
REMARK    6  A    between atoms: C_5  and  O_14
REMARK    7  A    between atoms: C_7  and  O_9
REMARK    8  A    between atoms: O_9  and  C_10
REMARK    9  A    between atoms: C_10  and  C_11
REMARK   10  A    between atoms: C_10  and  C_12
REMARK   11  A    between atoms: C_10  and  C_13
REMARK   12  A    between atoms: O_14  and  C_15
REMARK   13  A    between atoms: C_15  and  C_17
REMARK   14  A    between atoms: C_20  and  N_21
REMARK                            x       y       z     vdW  Elec       q    Type
REMARK                         _______ _______ _______ _____ _____    ______ ____
ROOT
ATOM      1  C   UNL     1       2.441   5.163  18.537  0.00  0.00    +0.000 C 
ENDROOT
BRANCH   1   2
ATOM      2  N   UNL     1       3.306   4.751  17.417  0.00  0.00    +0.000 N 
ATOM      3  C   UNL     1       4.468   4.036  17.610  0.00  0.00    +0.000 C 
ATOM      4  O   UNL     1       4.910   3.784  18.726  0.00  0.00    +0.000 OA
ATOM      5  H   UNL     1       2.961   4.788  16.469  0.00  0.00    +0.000 HD
BRANCH   3   6
ATOM      6  O   UNL     1       5.012   3.617  16.421  0.00  0.00    +0.000 OA
BRANCH   6   7
ATOM      7  C   UNL     1       5.977   4.448  15.678  0.00  0.00    +0.000 C 
ATOM      8  C   UNL     1       6.304   3.889  14.284  0.00  0.00    +0.000 C 
ATOM      9  C   UNL     1       5.425   5.881  15.495  0.00  0.00    +0.000 C 
ATOM     10  C   UNL     1       7.254   4.588  16.503  0.00  0.00    +0.000 C 
ENDBRANCH   6   7
ENDBRANCH   3   6
ENDBRANCH   1   2
BRANCH   1  11
ATOM     11  C   UNL     1       1.388   4.078  18.897  0.00  0.00    +0.000 C 
BRANCH  11  13
ATOM     12  C   UNL     1       1.573   2.293  20.761  0.00  0.00    +0.000 C 
ATOM     13  C   UNL     1       1.259   3.753  20.405  0.00  0.00    +0.000 C 
ATOM     14  C   UNL     1       2.219   4.564  21.277  0.00  0.00    +0.000 C 
ENDBRANCH  11  13
ENDBRANCH   1  11
BRANCH   1  15
ATOM     15  O   UNL     1       1.765   6.364  18.110  0.00  0.00    +0.000 OA
BRANCH  15  16
ATOM     16  C   UNL     1       2.490   7.510  18.255  0.00  0.00    +0.000 C 
ATOM     17  O   UNL     1       3.491   7.823  17.662  0.00  0.00    +0.000 OA
BRANCH  16  18
ATOM     18  C   UNL     1       1.845   8.429  19.256  0.00  0.00    +0.000 A 
ATOM     19  C   UNL     1       1.778   7.992  20.590  0.00  0.00    +0.000 A 
ATOM     20  C   UNL     1       1.046   8.712  21.541  0.00  0.00    +0.000 A 
ATOM     21  C   UNL     1       0.391   9.887  21.159  0.00  0.00    +0.000 A 
ATOM     22  C   UNL     1       0.495  10.362  19.840  0.00  0.00    +0.000 A 
ATOM     23  C   UNL     1       1.236   9.635  18.895  0.00  0.00    +0.000 A 
BRANCH  21  24
ATOM     24  N   UNL     1      -0.439  10.610  22.131  0.00  0.00    +0.000 N 
ATOM     25  O   UNL     1      -0.238  10.379  23.340  0.00  0.00    +0.000 OA
ATOM     26  O   UNL     1      -1.286  11.395  21.701  0.00  0.00    +0.000 OA
ENDBRANCH  21  24
ENDBRANCH  16  18
ENDBRANCH  15  16
ENDBRANCH   1  15
TORSDOF 9
ENDMDL
MODEL 3
REMARK VINA RESULT:      -7.0      0.688      1.259
REMARK  Name = 
REMARK  14 active torsions:
REMARK  status: ('A' for Active; 'I' for Inactive)
REMARK    1  A    between atoms: C_1  and  C_2
REMARK    2  A    between atoms: C_2  and  C_3
REMARK    3  A    between atoms: C_2  and  C_4
REMARK    4  A    between atoms: C_4  and  C_5
REMARK    5  A    between atoms: C_5  and  N_6
REMARK    6  A    between atoms: C_5  and  O_14
REMARK    7  A    between atoms: C_7  and  O_9
REMARK    8  A    between atoms: O_9  and  C_10
REMARK    9  A    between atoms: C_10  and  C_11
REMARK   10  A    between atoms: C_10  and  C_12
REMARK   11  A    between atoms: C_10  and  C_13
REMARK   12  A    between atoms: O_14  and  C_15
REMARK   13  A    between atoms: C_15  and  C_17
REMARK   14  A    between atoms: C_20  and  N_21
REMARK                            x       y       z     vdW  Elec       q    Type
REMARK                         _______ _______ _______ _____ _____    ______ ____
ROOT
ATOM      1  C   UNL     1       3.010   5.077  19.530  0.00  0.00    +0.000 C 
ENDROOT
BRANCH   1   2
ATOM      2  N   UNL     1       3.844   4.968  18.319  0.00  0.00    +0.000 N 
ATOM      3  C   UNL     1       5.020   4.252  18.299  0.00  0.00    +0.000 C 
ATOM      4  O   UNL     1       5.502   3.744  19.305  0.00  0.00    +0.000 OA
ATOM      5  H   UNL     1       3.467   5.228  17.419  0.00  0.00    +0.000 HD
BRANCH   3   6
ATOM      6  O   UNL     1       5.530   4.148  17.028  0.00  0.00    +0.000 OA
BRANCH   6   7
ATOM      7  C   UNL     1       6.228   5.274  16.381  0.00  0.00    +0.000 C 
ATOM      8  C   UNL     1       5.266   6.335  15.821  0.00  0.00    +0.000 C 
ATOM      9  C   UNL     1       7.169   5.975  17.389  0.00  0.00    +0.000 C 
ATOM     10  C   UNL     1       7.124   4.735  15.270  0.00  0.00    +0.000 C 
ENDBRANCH   6   7
ENDBRANCH   3   6
ENDBRANCH   1   2
BRANCH   1  11
ATOM     11  C   UNL     1       1.524   4.712  19.255  0.00  0.00    +0.000 C 
BRANCH  11  13
ATOM     12  C   UNL     1       0.777   2.243  19.047  0.00  0.00    +0.000 C 
ATOM     13  C   UNL     1       1.007   3.443  19.977  0.00  0.00    +0.000 C 
ATOM     14  C   UNL     1       1.982   2.916  21.032  0.00  0.00    +0.000 C 
ENDBRANCH  11  13
ENDBRANCH   1  11
BRANCH   1  15
ATOM     15  O   UNL     1       3.095   6.451  19.963  0.00  0.00    +0.000 OA
BRANCH  15  16
ATOM     16  C   UNL     1       2.506   7.351  19.125  0.00  0.00    +0.000 C 
ATOM     17  O   UNL     1       2.660   7.451  17.935  0.00  0.00    +0.000 OA
BRANCH  16  18
ATOM     18  C   UNL     1       1.542   8.229  19.875  0.00  0.00    +0.000 A 
ATOM     19  C   UNL     1       1.127   9.418  19.252  0.00  0.00    +0.000 A 
ATOM     20  C   UNL     1       0.369  10.364  19.952  0.00  0.00    +0.000 A 
ATOM     21  C   UNL     1       0.008  10.110  21.279  0.00  0.00    +0.000 A 
ATOM     22  C   UNL     1       0.372   8.899  21.895  0.00  0.00    +0.000 A 
ATOM     23  C   UNL     1       1.128   7.955  21.183  0.00  0.00    +0.000 A 
BRANCH  21  24
ATOM     24  N   UNL     1      -0.724  11.127  22.045  0.00  0.00    +0.000 N 
ATOM     25  O   UNL     1      -1.475  11.891  21.409  0.00  0.00    +0.000 OA
ATOM     26  O   UNL     1      -0.552  11.171  23.264  0.00  0.00    +0.000 OA
ENDBRANCH  21  24
ENDBRANCH  16  18
ENDBRANCH  15  16
ENDBRANCH   1  15
TORSDOF 9
ENDMDL
MODEL 4
REMARK VINA RESULT:      -6.9      1.647      2.062
REMARK  Name = 
REMARK  14 active torsions:
REMARK  status: ('A' for Active; 'I' for Inactive)
REMARK    1  A    between atoms: C_1  and  C_2
REMARK    2  A    between atoms: C_2  and  C_3
REMARK    3  A    between atoms: C_2  and  C_4
REMARK    4  A    between atoms: C_4  and  C_5
REMARK    5  A    between atoms: C_5  and  N_6
REMARK    6  A    between atoms: C_5  and  O_14
REMARK    7  A    between atoms: C_7  and  O_9
REMARK    8  A    between atoms: O_9  and  C_10
REMARK    9  A    between atoms: C_10  and  C_11
REMARK   10  A    between atoms: C_10  and  C_12
REMARK   11  A    between atoms: C_10  and  C_13
REMARK   12  A    between atoms: O_14  and  C_15
REMARK   13  A    between atoms: C_15  and  C_17
REMARK   14  A    between atoms: C_20  and  N_21
REMARK                            x       y       z     vdW  Elec       q    Type
REMARK                         _______ _______ _______ _____ _____    ______ ____
ROOT
ATOM      1  C   UNL     1       3.532   6.085  18.234  0.00  0.00    +0.000 C 
ENDROOT
BRANCH   1   2
ATOM      2  N   UNL     1       4.169   6.043  16.906  0.00  0.00    +0.000 N 
ATOM      3  C   UNL     1       5.388   6.633  16.657  0.00  0.00    +0.000 C 
ATOM      4  O   UNL     1       5.975   7.314  17.491  0.00  0.00    +0.000 OA
ATOM      5  H   UNL     1       3.838   5.397  16.205  0.00  0.00    +0.000 HD
BRANCH   3   6
ATOM      6  O   UNL     1       5.861   6.317  15.408  0.00  0.00    +0.000 OA
BRANCH   6   7
ATOM      7  C   UNL     1       6.460   5.001  15.118  0.00  0.00    +0.000 C 
ATOM      8  C   UNL     1       7.216   4.407  16.319  0.00  0.00    +0.000 C 
ATOM      9  C   UNL     1       5.365   3.991  14.703  0.00  0.00    +0.000 C 
ATOM     10  C   UNL     1       7.394   5.130  13.919  0.00  0.00    +0.000 C 
ENDBRANCH   6   7
ENDBRANCH   3   6
ENDBRANCH   1   2
BRANCH   1  11
ATOM     11  C   UNL     1       3.361   4.668  18.850  0.00  0.00    +0.000 C 
BRANCH  11  13
ATOM     12  C   UNL     1       3.364   2.298  17.811  0.00  0.00    +0.000 C 
ATOM     13  C   UNL     1       2.630   3.638  17.954  0.00  0.00    +0.000 C 
ATOM     14  C   UNL     1       1.250   3.252  18.489  0.00  0.00    +0.000 C 
ENDBRANCH  11  13
ENDBRANCH   1  11
BRANCH   1  15
ATOM     15  O   UNL     1       2.233   6.685  18.045  0.00  0.00    +0.000 OA
BRANCH  15  16
ATOM     16  C   UNL     1       2.227   8.048  18.053  0.00  0.00    +0.000 C 
ATOM     17  O   UNL     1       2.693   8.786  17.222  0.00  0.00    +0.000 OA
BRANCH  16  18
ATOM     18  C   UNL     1       1.486   8.575  19.251  0.00  0.00    +0.000 A 
ATOM     19  C   UNL     1       0.763   9.770  19.095  0.00  0.00    +0.000 A 
ATOM     20  C   UNL     1       0.191  10.408  20.201  0.00  0.00    +0.000 A 
ATOM     21  C   UNL     1       0.327   9.837  21.471  0.00  0.00    +0.000 A 
ATOM     22  C   UNL     1       1.001   8.614  21.631  0.00  0.00    +0.000 A 
ATOM     23  C   UNL     1       1.568   7.979  20.514  0.00  0.00    +0.000 A 
BRANCH  21  24
ATOM     24  N   UNL     1      -0.207  10.535  22.647  0.00  0.00    +0.000 N 
ATOM     25  O   UNL     1      -0.800  11.614  22.453  0.00  0.00    +0.000 OA
ATOM     26  O   UNL     1      -0.034  10.023  23.755  0.00  0.00    +0.000 OA
ENDBRANCH  21  24
ENDBRANCH  16  18
ENDBRANCH  15  16
ENDBRANCH   1  15
TORSDOF 9
ENDMDL
MODEL 5
REMARK VINA RESULT:      -6.9      2.473      4.603
REMARK  Name = 
REMARK  14 active torsions:
REMARK  status: ('A' for Active; 'I' for Inactive)
REMARK    1  A    between atoms: C_1  and  C_2
REMARK    2  A    between atoms: C_2  and  C_3
REMARK    3  A    between atoms: C_2  and  C_4
REMARK    4  A    between atoms: C_4  and  C_5
REMARK    5  A    between atoms: C_5  and  N_6
REMARK    6  A    between atoms: C_5  and  O_14
REMARK    7  A    between atoms: C_7  and  O_9
REMARK    8  A    between atoms: O_9  and  C_10
REMARK    9  A    between atoms: C_10  and  C_11
REMARK   10  A    between atoms: C_10  and  C_12
REMARK   11  A    between atoms: C_10  and  C_13
REMARK   12  A    between atoms: O_14  and  C_15
REMARK   13  A    between atoms: C_15  and  C_17
REMARK   14  A    between atoms: C_20  and  N_21
REMARK                            x       y       z     vdW  Elec       q    Type
REMARK                         _______ _______ _______ _____ _____    ______ ____
ROOT
ATOM      1  C   UNL     1       5.339   4.286  17.057  0.00  0.00    +0.000 C 
ENDROOT
BRANCH   1   2
ATOM      2  N   UNL     1       5.665   3.514  15.845  0.00  0.00    +0.000 N 
ATOM      3  C   UNL     1       6.061   4.119  14.673  0.00  0.00    +0.000 C 
ATOM      4  O   UNL     1       6.072   5.337  14.529  0.00  0.00    +0.000 OA
ATOM      5  H   UNL     1       5.821   2.518  15.905  0.00  0.00    +0.000 HD
BRANCH   3   6
ATOM      6  O   UNL     1       6.477   3.200  13.741  0.00  0.00    +0.000 OA
BRANCH   6   7
ATOM      7  C   UNL     1       6.310   3.437  12.295  0.00  0.00    +0.000 C 
ATOM      8  C   UNL     1       7.200   4.573  11.765  0.00  0.00    +0.000 C 
ATOM      9  C   UNL     1       6.652   2.157  11.497  0.00  0.00    +0.000 C 
ATOM     10  C   UNL     1       4.842   3.736  12.005  0.00  0.00    +0.000 C 
ENDBRANCH   6   7
ENDBRANCH   3   6
ENDBRANCH   1   2
BRANCH   1  11
ATOM     11  C   UNL     1       6.578   4.493  17.974  0.00  0.00    +0.000 C 
BRANCH  11  13
ATOM     12  C   UNL     1       8.059   6.124  19.331  0.00  0.00    +0.000 C 
ATOM     13  C   UNL     1       6.795   5.941  18.479  0.00  0.00    +0.000 C 
ATOM     14  C   UNL     1       6.961   6.953  17.344  0.00  0.00    +0.000 C 
ENDBRANCH  11  13
ENDBRANCH   1  11
BRANCH   1  15
ATOM     15  O   UNL     1       4.338   3.527  17.768  0.00  0.00    +0.000 OA
BRANCH  15  16
ATOM     16  C   UNL     1       3.058   3.957  17.584  0.00  0.00    +0.000 C 
ATOM     17  O   UNL     1       2.203   3.441  16.910  0.00  0.00    +0.000 OA
BRANCH  16  18
ATOM     18  C   UNL     1       2.784   5.191  18.399  0.00  0.00    +0.000 A 
ATOM     19  C   UNL     1       2.262   5.013  19.692  0.00  0.00    +0.000 A 
ATOM     20  C   UNL     1       1.826   6.110  20.443  0.00  0.00    +0.000 A 
ATOM     21  C   UNL     1       1.928   7.397  19.904  0.00  0.00    +0.000 A 
ATOM     22  C   UNL     1       2.498   7.592  18.634  0.00  0.00    +0.000 A 
ATOM     23  C   UNL     1       2.938   6.485  17.890  0.00  0.00    +0.000 A 
BRANCH  21  24
ATOM     24  N   UNL     1       1.406   8.547  20.654  0.00  0.00    +0.000 N 
ATOM     25  O   UNL     1       1.539   8.531  21.893  0.00  0.00    +0.000 OA
ATOM     26  O   UNL     1       0.862   9.454  20.021  0.00  0.00    +0.000 OA
ENDBRANCH  21  24
ENDBRANCH  16  18
ENDBRANCH  15  16
ENDBRANCH   1  15
TORSDOF 9
ENDMDL
MODEL 6
REMARK VINA RESULT:      -6.9      0.720      1.159
REMARK  Name = 
REMARK  14 active torsions:
REMARK  status: ('A' for Active; 'I' for Inactive)
REMARK    1  A    between atoms: C_1  and  C_2
REMARK    2  A    between atoms: C_2  and  C_3
REMARK    3  A    between atoms: C_2  and  C_4
REMARK    4  A    between atoms: C_4  and  C_5
REMARK    5  A    between atoms: C_5  and  N_6
REMARK    6  A    between atoms: C_5  and  O_14
REMARK    7  A    between atoms: C_7  and  O_9
REMARK    8  A    between atoms: O_9  and  C_10
REMARK    9  A    between atoms: C_10  and  C_11
REMARK   10  A    between atoms: C_10  and  C_12
REMARK   11  A    between atoms: C_10  and  C_13
REMARK   12  A    between atoms: O_14  and  C_15
REMARK   13  A    between atoms: C_15  and  C_17
REMARK   14  A    between atoms: C_20  and  N_21
REMARK                            x       y       z     vdW  Elec       q    Type
REMARK                         _______ _______ _______ _____ _____    ______ ____
ROOT
ATOM      1  C   UNL     1       3.275   5.265  19.685  0.00  0.00    +0.000 C 
ENDROOT
BRANCH   1   2
ATOM      2  N   UNL     1       3.969   5.119  18.393  0.00  0.00    +0.000 N 
ATOM      3  C   UNL     1       5.172   4.458  18.276  0.00  0.00    +0.000 C 
ATOM      4  O   UNL     1       5.792   4.038  19.247  0.00  0.00    +0.000 OA
ATOM      5  H   UNL     1       3.479   5.304  17.530  0.00  0.00    +0.000 HD
BRANCH   3   6
ATOM      6  O   UNL     1       5.538   4.297  16.963  0.00  0.00    +0.000 OA
BRANCH   6   7
ATOM      7  C   UNL     1       6.246   5.358  16.223  0.00  0.00    +0.000 C 
ATOM      8  C   UNL     1       7.188   6.187  17.113  0.00  0.00    +0.000 C 
ATOM      9  C   UNL     1       7.092   4.746  15.082  0.00  0.00    +0.000 C 
ATOM     10  C   UNL     1       5.222   6.266  15.549  0.00  0.00    +0.000 C 
ENDBRANCH   6   7
ENDBRANCH   3   6
ENDBRANCH   1   2
BRANCH   1  11
ATOM     11  C   UNL     1       1.834   4.681  19.648  0.00  0.00    +0.000 C 
BRANCH  11  13
ATOM     12  C   UNL     1       1.330   2.766  21.314  0.00  0.00    +0.000 C 
ATOM     13  C   UNL     1       1.732   3.153  19.884  0.00  0.00    +0.000 C 
ATOM     14  C   UNL     1       0.677   2.481  19.005  0.00  0.00    +0.000 C 
ENDBRANCH  11  13
ENDBRANCH   1  11
BRANCH   1  15
ATOM     15  O   UNL     1       3.210   6.681  19.956  0.00  0.00    +0.000 OA
BRANCH  15  16
ATOM     16  C   UNL     1       2.382   7.384  19.132  0.00  0.00    +0.000 C 
ATOM     17  O   UNL     1       2.275   7.275  17.937  0.00  0.00    +0.000 OA
BRANCH  16  18
ATOM     18  C   UNL     1       1.521   8.333  19.919  0.00  0.00    +0.000 A 
ATOM     19  C   UNL     1       1.102   9.512  19.280  0.00  0.00    +0.000 A 
ATOM     20  C   UNL     1       0.444  10.517  19.997  0.00  0.00    +0.000 A 
ATOM     21  C   UNL     1       0.188  10.335  21.361  0.00  0.00    +0.000 A 
ATOM     22  C   UNL     1       0.555   9.136  21.998  0.00  0.00    +0.000 A 
ATOM     23  C   UNL     1       1.210   8.132  21.268  0.00  0.00    +0.000 A 
BRANCH  21  24
ATOM     24  N   UNL     1      -0.435  11.413  22.139  0.00  0.00    +0.000 N 
ATOM     25  O   UNL     1      -0.690  12.477  21.541  0.00  0.00    +0.000 OA
ATOM     26  O   UNL     1      -0.666  11.210  23.332  0.00  0.00    +0.000 OA
ENDBRANCH  21  24
ENDBRANCH  16  18
ENDBRANCH  15  16
ENDBRANCH   1  15
TORSDOF 9
ENDMDL
MODEL 7
REMARK VINA RESULT:      -6.9      0.997      1.434
REMARK  Name = 
REMARK  14 active torsions:
REMARK  status: ('A' for Active; 'I' for Inactive)
REMARK    1  A    between atoms: C_1  and  C_2
REMARK    2  A    between atoms: C_2  and  C_3
REMARK    3  A    between atoms: C_2  and  C_4
REMARK    4  A    between atoms: C_4  and  C_5
REMARK    5  A    between atoms: C_5  and  N_6
REMARK    6  A    between atoms: C_5  and  O_14
REMARK    7  A    between atoms: C_7  and  O_9
REMARK    8  A    between atoms: O_9  and  C_10
REMARK    9  A    between atoms: C_10  and  C_11
REMARK   10  A    between atoms: C_10  and  C_12
REMARK   11  A    between atoms: C_10  and  C_13
REMARK   12  A    between atoms: O_14  and  C_15
REMARK   13  A    between atoms: C_15  and  C_17
REMARK   14  A    between atoms: C_20  and  N_21
REMARK                            x       y       z     vdW  Elec       q    Type
REMARK                         _______ _______ _______ _____ _____    ______ ____
ROOT
ATOM      1  C   UNL     1       3.512   5.097  19.286  0.00  0.00    +0.000 C 
ENDROOT
BRANCH   1   2
ATOM      2  N   UNL     1       3.955   4.680  17.944  0.00  0.00    +0.000 N 
ATOM      3  C   UNL     1       5.245   4.266  17.691  0.00  0.00    +0.000 C 
ATOM      4  O   UNL     1       6.131   4.312  18.538  0.00  0.00    +0.000 OA
ATOM      5  H   UNL     1       3.276   4.476  17.226  0.00  0.00    +0.000 HD
BRANCH   3   6
ATOM      6  O   UNL     1       5.378   3.764  16.421  0.00  0.00    +0.000 OA
BRANCH   6   7
ATOM      7  C   UNL     1       5.950   4.572  15.327  0.00  0.00    +0.000 C 
ATOM      8  C   UNL     1       5.740   3.941  13.941  0.00  0.00    +0.000 C 
ATOM      9  C   UNL     1       5.312   5.980  15.308  0.00  0.00    +0.000 C 
ATOM     10  C   UNL     1       7.438   4.785  15.590  0.00  0.00    +0.000 C 
ENDBRANCH   6   7
ENDBRANCH   3   6
ENDBRANCH   1   2
BRANCH   1  11
ATOM     11  C   UNL     1       3.124   3.886  20.180  0.00  0.00    +0.000 C 
BRANCH  11  13
ATOM     12  C   UNL     1       0.994   2.838  19.150  0.00  0.00    +0.000 C 
ATOM     13  C   UNL     1       1.604   3.624  20.319  0.00  0.00    +0.000 C 
ATOM     14  C   UNL     1       1.250   2.791  21.553  0.00  0.00    +0.000 C 
ENDBRANCH  11  13
ENDBRANCH   1  11
BRANCH   1  15
ATOM     15  O   UNL     1       2.356   5.939  19.091  0.00  0.00    +0.000 OA
BRANCH  15  16
ATOM     16  C   UNL     1       2.634   7.197  18.644  0.00  0.00    +0.000 C 
ATOM     17  O   UNL     1       3.441   7.514  17.808  0.00  0.00    +0.000 OA
BRANCH  16  18
ATOM     18  C   UNL     1       1.739   8.210  19.303  0.00  0.00    +0.000 A 
ATOM     19  C   UNL     1       1.271   9.274  18.513  0.00  0.00    +0.000 A 
ATOM     20  C   UNL     1       0.576  10.341  19.093  0.00  0.00    +0.000 A 
ATOM     21  C   UNL     1       0.332  10.336  20.470  0.00  0.00    +0.000 A 
ATOM     22  C   UNL     1       0.748   9.251  21.261  0.00  0.00    +0.000 A 
ATOM     23  C   UNL     1       1.440   8.182  20.669  0.00  0.00    +0.000 A 
BRANCH  21  24
ATOM     24  N   UNL     1      -0.332  11.485  21.100  0.00  0.00    +0.000 N 
ATOM     25  O   UNL     1      -1.455  11.805  20.666  0.00  0.00    +0.000 OA
ATOM     26  O   UNL     1       0.258  12.068  22.012  0.00  0.00    +0.000 OA
ENDBRANCH  21  24
ENDBRANCH  16  18
ENDBRANCH  15  16
ENDBRANCH   1  15
TORSDOF 9
ENDMDL
MODEL 8
REMARK VINA RESULT:      -6.9      0.615      1.688
REMARK  Name = 
REMARK  14 active torsions:
REMARK  status: ('A' for Active; 'I' for Inactive)
REMARK    1  A    between atoms: C_1  and  C_2
REMARK    2  A    between atoms: C_2  and  C_3
REMARK    3  A    between atoms: C_2  and  C_4
REMARK    4  A    between atoms: C_4  and  C_5
REMARK    5  A    between atoms: C_5  and  N_6
REMARK    6  A    between atoms: C_5  and  O_14
REMARK    7  A    between atoms: C_7  and  O_9
REMARK    8  A    between atoms: O_9  and  C_10
REMARK    9  A    between atoms: C_10  and  C_11
REMARK   10  A    between atoms: C_10  and  C_12
REMARK   11  A    between atoms: C_10  and  C_13
REMARK   12  A    between atoms: O_14  and  C_15
REMARK   13  A    between atoms: C_15  and  C_17
REMARK   14  A    between atoms: C_20  and  N_21
REMARK                            x       y       z     vdW  Elec       q    Type
REMARK                         _______ _______ _______ _____ _____    ______ ____
ROOT
ATOM      1  C   UNL     1       3.358   5.214  19.701  0.00  0.00    +0.000 C 
ENDROOT
BRANCH   1   2
ATOM      2  N   UNL     1       3.778   4.859  18.334  0.00  0.00    +0.000 N 
ATOM      3  C   UNL     1       4.994   4.270  18.068  0.00  0.00    +0.000 C 
ATOM      4  O   UNL     1       5.846   4.094  18.933  0.00  0.00    +0.000 OA
ATOM      5  H   UNL     1       3.101   4.835  17.586  0.00  0.00    +0.000 HD
BRANCH   3   6
ATOM      6  O   UNL     1       5.093   3.874  16.757  0.00  0.00    +0.000 OA
BRANCH   6   7
ATOM      7  C   UNL     1       5.838   4.670  15.764  0.00  0.00    +0.000 C 
ATOM      8  C   UNL     1       5.731   4.105  14.338  0.00  0.00    +0.000 C 
ATOM      9  C   UNL     1       5.313   6.125  15.737  0.00  0.00    +0.000 C 
ATOM     10  C   UNL     1       7.301   4.756  16.190  0.00  0.00    +0.000 C 
ENDBRANCH   6   7
ENDBRANCH   3   6
ENDBRANCH   1   2
BRANCH   1  11
ATOM     11  C   UNL     1       1.932   4.690  20.033  0.00  0.00    +0.000 C 
BRANCH  11  13
ATOM     12  C   UNL     1       1.308   2.699  21.564  0.00  0.00    +0.000 C 
ATOM     13  C   UNL     1       1.808   3.154  20.185  0.00  0.00    +0.000 C 
ATOM     14  C   UNL     1       0.813   2.533  19.204  0.00  0.00    +0.000 C 
ENDBRANCH  11  13
ENDBRANCH   1  11
BRANCH   1  15
ATOM     15  O   UNL     1       3.367   6.655  19.771  0.00  0.00    +0.000 OA
BRANCH  15  16
ATOM     16  C   UNL     1       2.413   7.269  19.015  0.00  0.00    +0.000 C 
ATOM     17  O   UNL     1       2.085   6.997  17.888  0.00  0.00    +0.000 OA
BRANCH  16  18
ATOM     18  C   UNL     1       1.730   8.358  19.796  0.00  0.00    +0.000 A 
ATOM     19  C   UNL     1       1.497   8.129  21.163  0.00  0.00    +0.000 A 
ATOM     20  C   UNL     1       0.719   9.018  21.913  0.00  0.00    +0.000 A 
ATOM     21  C   UNL     1       0.185  10.154  21.296  0.00  0.00    +0.000 A 
ATOM     22  C   UNL     1       0.457  10.422  19.943  0.00  0.00    +0.000 A 
ATOM     23  C   UNL     1       1.242   9.526  19.200  0.00  0.00    +0.000 A 
BRANCH  21  24
ATOM     24  N   UNL     1      -0.692  11.054  22.056  0.00  0.00    +0.000 N 
ATOM     25  O   UNL     1      -1.506  11.741  21.409  0.00  0.00    +0.000 OA
ATOM     26  O   UNL     1      -0.570  11.085  23.282  0.00  0.00    +0.000 OA
ENDBRANCH  21  24
ENDBRANCH  16  18
ENDBRANCH  15  16
ENDBRANCH   1  15
TORSDOF 9
ENDMDL
MODEL 9
REMARK VINA RESULT:      -6.8      1.491      2.018
REMARK  Name = 
REMARK  14 active torsions:
REMARK  status: ('A' for Active; 'I' for Inactive)
REMARK    1  A    between atoms: C_1  and  C_2
REMARK    2  A    between atoms: C_2  and  C_3
REMARK    3  A    between atoms: C_2  and  C_4
REMARK    4  A    between atoms: C_4  and  C_5
REMARK    5  A    between atoms: C_5  and  N_6
REMARK    6  A    between atoms: C_5  and  O_14
REMARK    7  A    between atoms: C_7  and  O_9
REMARK    8  A    between atoms: O_9  and  C_10
REMARK    9  A    between atoms: C_10  and  C_11
REMARK   10  A    between atoms: C_10  and  C_12
REMARK   11  A    between atoms: C_10  and  C_13
REMARK   12  A    between atoms: O_14  and  C_15
REMARK   13  A    between atoms: C_15  and  C_17
REMARK   14  A    between atoms: C_20  and  N_21
REMARK                            x       y       z     vdW  Elec       q    Type
REMARK                         _______ _______ _______ _____ _____    ______ ____
ROOT
ATOM      1  C   UNL     1       3.716   6.326  18.314  0.00  0.00    +0.000 C 
ENDROOT
BRANCH   1   2
ATOM      2  N   UNL     1       4.185   6.166  16.926  0.00  0.00    +0.000 N 
ATOM      3  C   UNL     1       5.402   6.653  16.501  0.00  0.00    +0.000 C 
ATOM      4  O   UNL     1       6.126   7.336  17.216  0.00  0.00    +0.000 OA
ATOM      5  H   UNL     1       3.733   5.506  16.310  0.00  0.00    +0.000 HD
BRANCH   3   6
ATOM      6  O   UNL     1       5.700   6.236  15.227  0.00  0.00    +0.000 OA
BRANCH   6   7
ATOM      7  C   UNL     1       6.419   4.973  14.977  0.00  0.00    +0.000 C 
ATOM      8  C   UNL     1       7.490   5.097  13.881  0.00  0.00    +0.000 C 
ATOM      9  C   UNL     1       7.119   4.487  16.268  0.00  0.00    +0.000 C 
ATOM     10  C   UNL     1       5.410   3.888  14.609  0.00  0.00    +0.000 C 
ENDBRANCH   6   7
ENDBRANCH   3   6
ENDBRANCH   1   2
BRANCH   1  11
ATOM     11  C   UNL     1       3.748   4.987  19.104  0.00  0.00    +0.000 C 
BRANCH  11  13
ATOM     12  C   UNL     1       2.138   2.962  19.118  0.00  0.00    +0.000 C 
ATOM     13  C   UNL     1       2.365   4.427  19.517  0.00  0.00    +0.000 C 
ATOM     14  C   UNL     1       2.141   4.441  21.030  0.00  0.00    +0.000 C 
ENDBRANCH  11  13
ENDBRANCH   1  11
BRANCH   1  15
ATOM     15  O   UNL     1       2.356   6.802  18.232  0.00  0.00    +0.000 OA
BRANCH  15  16
ATOM     16  C   UNL     1       2.229   8.156  18.141  0.00  0.00    +0.000 C 
ATOM     17  O   UNL     1       2.627   8.870  17.256  0.00  0.00    +0.000 OA
BRANCH  16  18
ATOM     18  C   UNL     1       1.447   8.700  19.305  0.00  0.00    +0.000 A 
ATOM     19  C   UNL     1       0.678   9.856  19.088  0.00  0.00    +0.000 A 
ATOM     20  C   UNL     1       0.061  10.515  20.157  0.00  0.00    +0.000 A 
ATOM     21  C   UNL     1       0.201  10.005  21.452  0.00  0.00    +0.000 A 
ATOM     22  C   UNL     1       0.923   8.819  21.674  0.00  0.00    +0.000 A 
ATOM     23  C   UNL     1       1.534   8.163  20.594  0.00  0.00    +0.000 A 
BRANCH  21  24
ATOM     24  N   UNL     1      -0.381  10.728  22.590  0.00  0.00    +0.000 N 
ATOM     25  O   UNL     1      -0.725  11.911  22.401  0.00  0.00    +0.000 OA
ATOM     26  O   UNL     1      -0.490  10.132  23.663  0.00  0.00    +0.000 OA
ENDBRANCH  21  24
ENDBRANCH  16  18
ENDBRANCH  15  16
ENDBRANCH   1  15
TORSDOF 9
ENDMDL
