MODEL 1
REMARK VINA RESULT:      -7.2      0.000      0.000
REMARK  Name = 
REMARK  8 active torsions:
REMARK  status: ('A' for Active; 'I' for Inactive)
REMARK    1  A    between atoms: C_1  and  O_2
REMARK    2  A    between atoms: O_2  and  C_3
REMARK    3  A    between atoms: N_5  and  N_6
REMARK    4  A    between atoms: N_5  and  C_27
REMARK    5  A    between atoms: C_7  and  C_9
REMARK    6  A    between atoms: C_10  and  O_11
REMARK    7  A    between atoms: O_11  and  C_12
REMARK    8  A    between atoms: C_13  and  C_14
REMARK                            x       y       z     vdW  Elec       q    Type
REMARK                         _______ _______ _______ _____ _____    ______ ____
ROOT
ATOM      1  C   UNL     1      -2.158  11.871  19.228  0.00  0.00    +0.000 A 
ATOM      2  C   UNL     1      -2.980  12.557  20.151  0.00  0.00    +0.000 A 
ATOM      3  C   UNL     1      -4.350  12.642  19.854  0.00  0.00    +0.000 A 
ATOM      4  N   UNL     1      -4.849  12.201  18.665  0.00  0.00    +0.000 NA
ATOM      5  C   UNL     1      -4.052  11.607  17.768  0.00  0.00    +0.000 A 
ATOM      6  C   UNL     1      -4.640  11.168  16.586  0.00  0.00    +0.000 A 
ATOM      7  C   UNL     1      -3.911  10.520  15.588  0.00  0.00    +0.000 A 
ATOM      8  C   UNL     1      -2.566  10.274  15.784  0.00  0.00    +0.000 A 
ATOM      9  C   UNL     1      -1.968  10.673  16.978  0.00  0.00    +0.000 A 
ATOM     10  C   UNL     1      -2.683  11.383  17.988  0.00  0.00    +0.000 A 
ENDROOT
BRANCH   3  11
ATOM     11  C   UNL     1      -5.402  13.196  20.761  0.00  0.00    +0.000 A 
ATOM     12  C   UNL     1      -5.943  12.411  21.801  0.00  0.00    +0.000 A 
ATOM     13  C   UNL     1      -6.936  12.898  22.662  0.00  0.00    +0.000 A 
ATOM     14  C   UNL     1      -7.413  14.193  22.511  0.00  0.00    +0.000 A 
ATOM     15  C   UNL     1      -6.873  15.009  21.523  0.00  0.00    +0.000 A 
ATOM     16  C   UNL     1      -5.873  14.520  20.672  0.00  0.00    +0.000 A 
ENDBRANCH   3  11
BRANCH   1  18
ATOM     17  N   UNL     1      -0.660  10.210  20.230  0.00  0.00    +0.000 N 
ATOM     18  C   UNL     1      -0.789  11.468  19.656  0.00  0.00    +0.000 C 
ATOM     19  O   UNL     1       0.126  12.261  19.474  0.00  0.00    +0.000 OA
ATOM     20  H   UNL     1      -1.413   9.535  20.156  0.00  0.00    +0.000 HD
BRANCH  17  23
ATOM     21  C   UNL     1       1.093  10.025  21.944  0.00  0.00    +0.000 C 
ATOM     22  O   UNL     1       2.276   9.989  22.278  0.00  0.00    +0.000 OA
ATOM     23  N   UNL     1       0.603   9.692  20.666  0.00  0.00    +0.000 N 
BRANCH  23  24
ATOM     24  C   UNL     1       1.325   8.821  19.770  0.00  0.00    +0.000 A 
ATOM     25  C   UNL     1       1.723   9.250  18.491  0.00  0.00    +0.000 A 
ATOM     26  C   UNL     1       2.450   8.421  17.626  0.00  0.00    +0.000 A 
ATOM     27  C   UNL     1       2.808   7.138  18.022  0.00  0.00    +0.000 A 
ATOM     28  C   UNL     1       2.453   6.695  19.292  0.00  0.00    +0.000 A 
ATOM     29  C   UNL     1       1.730   7.529  20.151  0.00  0.00    +0.000 A 
ATOM     30  F   UNL     1       1.447   7.053  21.374  0.00  0.00    +0.000 F 
ENDBRANCH  23  24
BRANCH  21  32
ATOM     31  C   UNL     1      -0.430   9.270  23.547  0.00  0.00    +0.000 C 
ATOM     32  O   UNL     1       0.113  10.384  22.834  0.00  0.00    +0.000 OA
ENDBRANCH  21  32
ENDBRANCH  17  23
ENDBRANCH   1  18
BRANCH   2  33
ATOM     33  O   UNL     1      -2.563  13.101  21.340  0.00  0.00    +0.000 OA
ATOM     34  C   UNL     1      -2.080  14.442  21.353  0.00  0.00    +0.000 C 
ENDBRANCH   2  33
TORSDOF 6
ENDMDL
MODEL 2
REMARK VINA RESULT:      -7.1      1.059      1.347
REMARK  Name = 
REMARK  8 active torsions:
REMARK  status: ('A' for Active; 'I' for Inactive)
REMARK    1  A    between atoms: C_1  and  O_2
REMARK    2  A    between atoms: O_2  and  C_3
REMARK    3  A    between atoms: N_5  and  N_6
REMARK    4  A    between atoms: N_5  and  C_27
REMARK    5  A    between atoms: C_7  and  C_9
REMARK    6  A    between atoms: C_10  and  O_11
REMARK    7  A    between atoms: O_11  and  C_12
REMARK    8  A    between atoms: C_13  and  C_14
REMARK                            x       y       z     vdW  Elec       q    Type
REMARK                         _______ _______ _______ _____ _____    ______ ____
ROOT
ATOM      1  C   UNL     1      -2.279  11.565  19.075  0.00  0.00    +0.000 A 
ATOM      2  C   UNL     1      -3.214  12.289  19.850  0.00  0.00    +0.000 A 
ATOM      3  C   UNL     1      -4.530  12.368  19.364  0.00  0.00    +0.000 A 
ATOM      4  N   UNL     1      -4.864  11.885  18.135  0.00  0.00    +0.000 NA
ATOM      5  C   UNL     1      -3.958  11.255  17.378  0.00  0.00    +0.000 A 
ATOM      6  C   UNL     1      -4.381  10.774  16.143  0.00  0.00    +0.000 A 
ATOM      7  C   UNL     1      -3.529  10.086  15.279  0.00  0.00    +0.000 A 
ATOM      8  C   UNL     1      -2.226   9.843  15.667  0.00  0.00    +0.000 A 
ATOM      9  C   UNL     1      -1.793  10.284  16.917  0.00  0.00    +0.000 A 
ATOM     10  C   UNL     1      -2.634  11.034  17.793  0.00  0.00    +0.000 A 
ENDROOT
BRANCH   3  11
ATOM     11  C   UNL     1      -5.691  12.960  20.097  0.00  0.00    +0.000 A 
ATOM     12  C   UNL     1      -6.418  12.194  21.034  0.00  0.00    +0.000 A 
ATOM     13  C   UNL     1      -7.516  12.717  21.730  0.00  0.00    +0.000 A 
ATOM     14  C   UNL     1      -7.916  14.029  21.514  0.00  0.00    +0.000 A 
ATOM     15  C   UNL     1      -7.198  14.825  20.628  0.00  0.00    +0.000 A 
ATOM     16  C   UNL     1      -6.094  14.300  19.944  0.00  0.00    +0.000 A 
ENDBRANCH   3  11
BRANCH   1  18
ATOM     17  N   UNL     1      -0.855   9.845  20.083  0.00  0.00    +0.000 N 
ATOM     18  C   UNL     1      -0.986  11.174  19.701  0.00  0.00    +0.000 C 
ATOM     19  O   UNL     1      -0.128  12.037  19.835  0.00  0.00    +0.000 OA
ATOM     20  H   UNL     1      -1.517   9.151  19.752  0.00  0.00    +0.000 HD
BRANCH  17  23
ATOM     21  C   UNL     1       0.574   9.513  22.055  0.00  0.00    +0.000 C 
ATOM     22  O   UNL     1       1.679   9.487  22.595  0.00  0.00    +0.000 OA
ATOM     23  N   UNL     1       0.343   9.333  20.677  0.00  0.00    +0.000 N 
BRANCH  23  24
ATOM     24  C   UNL     1       1.273   8.625  19.829  0.00  0.00    +0.000 A 
ATOM     25  C   UNL     1       1.727   7.334  20.154  0.00  0.00    +0.000 A 
ATOM     26  C   UNL     1       2.607   6.629  19.323  0.00  0.00    +0.000 A 
ATOM     27  C   UNL     1       3.050   7.193  18.133  0.00  0.00    +0.000 A 
ATOM     28  C   UNL     1       2.596   8.456  17.770  0.00  0.00    +0.000 A 
ATOM     29  C   UNL     1       1.716   9.154  18.603  0.00  0.00    +0.000 A 
ATOM     30  F   UNL     1       1.292  10.356  18.180  0.00  0.00    +0.000 F 
ENDBRANCH  23  24
BRANCH  21  32
ATOM     31  C   UNL     1      -0.824  11.078  23.081  0.00  0.00    +0.000 C 
ATOM     32  O   UNL     1      -0.571   9.702  22.785  0.00  0.00    +0.000 OA
ENDBRANCH  21  32
ENDBRANCH  17  23
ENDBRANCH   1  18
BRANCH   2  33
ATOM     33  O   UNL     1      -2.960  12.875  21.065  0.00  0.00    +0.000 OA
ATOM     34  C   UNL     1      -2.558  14.243  21.099  0.00  0.00    +0.000 C 
ENDBRANCH   2  33
TORSDOF 6
ENDMDL
MODEL 3
REMARK VINA RESULT:      -6.5      5.020      8.046
REMARK  Name = 
REMARK  8 active torsions:
REMARK  status: ('A' for Active; 'I' for Inactive)
REMARK    1  A    between atoms: C_1  and  O_2
REMARK    2  A    between atoms: O_2  and  C_3
REMARK    3  A    between atoms: N_5  and  N_6
REMARK    4  A    between atoms: N_5  and  C_27
REMARK    5  A    between atoms: C_7  and  C_9
REMARK    6  A    between atoms: C_10  and  O_11
REMARK    7  A    between atoms: O_11  and  C_12
REMARK    8  A    between atoms: C_13  and  C_14
REMARK                            x       y       z     vdW  Elec       q    Type
REMARK                         _______ _______ _______ _____ _____    ______ ____
ROOT
ATOM      1  C   UNL     1       1.209  15.400  19.411  0.00  0.00    +0.000 A 
ATOM      2  C   UNL     1       2.578  15.061  19.314  0.00  0.00    +0.000 A 
ATOM      3  C   UNL     1       3.393  15.892  18.528  0.00  0.00    +0.000 A 
ATOM      4  N   UNL     1       2.867  16.904  17.782  0.00  0.00    +0.000 NA
ATOM      5  C   UNL     1       1.559  17.180  17.831  0.00  0.00    +0.000 A 
ATOM      6  C   UNL     1       1.102  18.240  17.054  0.00  0.00    +0.000 A 
ATOM      7  C   UNL     1      -0.237  18.630  17.040  0.00  0.00    +0.000 A 
ATOM      8  C   UNL     1      -1.143  17.967  17.845  0.00  0.00    +0.000 A 
ATOM      9  C   UNL     1      -0.698  16.927  18.659  0.00  0.00    +0.000 A 
ATOM     10  C   UNL     1       0.657  16.479  18.648  0.00  0.00    +0.000 A 
ENDROOT
BRANCH   3  11
ATOM     11  C   UNL     1       4.881  15.790  18.411  0.00  0.00    +0.000 A 
ATOM     12  C   UNL     1       5.716  16.797  18.940  0.00  0.00    +0.000 A 
ATOM     13  C   UNL     1       7.112  16.735  18.840  0.00  0.00    +0.000 A 
ATOM     14  C   UNL     1       7.717  15.654  18.211  0.00  0.00    +0.000 A 
ATOM     15  C   UNL     1       6.926  14.623  17.714  0.00  0.00    +0.000 A 
ATOM     16  C   UNL     1       5.531  14.686  17.828  0.00  0.00    +0.000 A 
ENDBRANCH   3  11
BRANCH   1  18
ATOM     17  N   UNL     1      -0.452  13.731  20.091  0.00  0.00    +0.000 N 
ATOM     18  C   UNL     1       0.392  14.762  20.481  0.00  0.00    +0.000 C 
ATOM     19  O   UNL     1       0.518  15.179  21.626  0.00  0.00    +0.000 OA
ATOM     20  H   UNL     1      -0.348  13.304  19.176  0.00  0.00    +0.000 HD
BRANCH  17  23
ATOM     21  C   UNL     1      -2.450  13.619  21.518  0.00  0.00    +0.000 C 
ATOM     22  O   UNL     1      -3.009  13.313  22.570  0.00  0.00    +0.000 OA
ATOM     23  N   UNL     1      -1.276  13.020  21.022  0.00  0.00    +0.000 N 
BRANCH  23  24
ATOM     24  C   UNL     1      -0.872  11.689  21.407  0.00  0.00    +0.000 A 
ATOM     25  C   UNL     1      -0.834  11.294  22.757  0.00  0.00    +0.000 A 
ATOM     26  C   UNL     1      -0.470   9.996  23.137  0.00  0.00    +0.000 A 
ATOM     27  C   UNL     1      -0.143   9.050  22.174  0.00  0.00    +0.000 A 
ATOM     28  C   UNL     1      -0.199   9.401  20.830  0.00  0.00    +0.000 A 
ATOM     29  C   UNL     1      -0.565  10.698  20.457  0.00  0.00    +0.000 A 
ATOM     30  F   UNL     1      -0.630  10.964  19.142  0.00  0.00    +0.000 F 
ENDBRANCH  23  24
BRANCH  21  32
ATOM     31  C   UNL     1      -4.360  14.810  20.893  0.00  0.00    +0.000 C 
ATOM     32  O   UNL     1      -2.961  14.592  20.698  0.00  0.00    +0.000 OA
ENDBRANCH  21  32
ENDBRANCH  17  23
ENDBRANCH   1  18
BRANCH   2  33
ATOM     33  O   UNL     1       3.191  14.019  19.965  0.00  0.00    +0.000 OA
ATOM     34  C   UNL     1       3.786  14.258  21.238  0.00  0.00    +0.000 C 
ENDBRANCH   2  33
TORSDOF 6
ENDMDL
MODEL 4
REMARK VINA RESULT:      -6.4      2.711      8.039
REMARK  Name = 
REMARK  8 active torsions:
REMARK  status: ('A' for Active; 'I' for Inactive)
REMARK    1  A    between atoms: C_1  and  O_2
REMARK    2  A    between atoms: O_2  and  C_3
REMARK    3  A    between atoms: N_5  and  N_6
REMARK    4  A    between atoms: N_5  and  C_27
REMARK    5  A    between atoms: C_7  and  C_9
REMARK    6  A    between atoms: C_10  and  O_11
REMARK    7  A    between atoms: O_11  and  C_12
REMARK    8  A    between atoms: C_13  and  C_14
REMARK                            x       y       z     vdW  Elec       q    Type
REMARK                         _______ _______ _______ _____ _____    ______ ____
ROOT
ATOM      1  C   UNL     1      -1.076  12.572  20.579  0.00  0.00    +0.000 A 
ATOM      2  C   UNL     1      -0.675  11.371  19.951  0.00  0.00    +0.000 A 
ATOM      3  C   UNL     1       0.702  11.104  19.889  0.00  0.00    +0.000 A 
ATOM      4  N   UNL     1       1.623  12.023  20.296  0.00  0.00    +0.000 NA
ATOM      5  C   UNL     1       1.237  13.186  20.834  0.00  0.00    +0.000 A 
ATOM      6  C   UNL     1       2.237  14.063  21.242  0.00  0.00    +0.000 A 
ATOM      7  C   UNL     1       1.952  15.294  21.832  0.00  0.00    +0.000 A 
ATOM      8  C   UNL     1       0.636  15.651  22.051  0.00  0.00    +0.000 A 
ATOM      9  C   UNL     1      -0.379  14.769  21.683  0.00  0.00    +0.000 A 
ATOM     10  C   UNL     1      -0.111  13.529  21.032  0.00  0.00    +0.000 A 
ENDROOT
BRANCH   3  11
ATOM     11  C   UNL     1       1.320   9.834  19.397  0.00  0.00    +0.000 A 
ATOM     12  C   UNL     1       1.446   8.717  20.250  0.00  0.00    +0.000 A 
ATOM     13  C   UNL     1       2.027   7.516  19.823  0.00  0.00    +0.000 A 
ATOM     14  C   UNL     1       2.494   7.394  18.520  0.00  0.00    +0.000 A 
ATOM     15  C   UNL     1       2.349   8.461  17.640  0.00  0.00    +0.000 A 
ATOM     16  C   UNL     1       1.757   9.656  18.071  0.00  0.00    +0.000 A 
ENDBRANCH   3  11
BRANCH   1  18
ATOM     17  N   UNL     1      -3.345  13.310  20.019  0.00  0.00    +0.000 N 
ATOM     18  C   UNL     1      -2.506  12.732  20.963  0.00  0.00    +0.000 C 
ATOM     19  O   UNL     1      -2.850  12.344  22.073  0.00  0.00    +0.000 OA
ATOM     20  H   UNL     1      -3.038  13.411  19.057  0.00  0.00    +0.000 HD
BRANCH  17  23
ATOM     21  C   UNL     1      -5.216  14.756  20.688  0.00  0.00    +0.000 C 
ATOM     22  O   UNL     1      -6.275  14.944  21.285  0.00  0.00    +0.000 OA
ATOM     23  N   UNL     1      -4.745  13.502  20.252  0.00  0.00    +0.000 N 
BRANCH  23  24
ATOM     24  C   UNL     1      -5.632  12.391  20.010  0.00  0.00    +0.000 A 
ATOM     25  C   UNL     1      -6.511  11.921  21.004  0.00  0.00    +0.000 A 
ATOM     26  C   UNL     1      -7.396  10.861  20.767  0.00  0.00    +0.000 A 
ATOM     27  C   UNL     1      -7.435  10.246  19.522  0.00  0.00    +0.000 A 
ATOM     28  C   UNL     1      -6.599  10.706  18.510  0.00  0.00    +0.000 A 
ATOM     29  C   UNL     1      -5.720  11.766  18.752  0.00  0.00    +0.000 A 
ATOM     30  F   UNL     1      -4.963  12.183  17.724  0.00  0.00    +0.000 F 
ENDBRANCH  23  24
BRANCH  21  32
ATOM     31  C   UNL     1      -5.081  17.041  20.221  0.00  0.00    +0.000 C 
ATOM     32  O   UNL     1      -4.387  15.800  20.365  0.00  0.00    +0.000 OA
ENDBRANCH  21  32
ENDBRANCH  17  23
ENDBRANCH   1  18
BRANCH   2  33
ATOM     33  O   UNL     1      -1.520  10.416  19.442  0.00  0.00    +0.000 OA
ATOM     34  C   UNL     1      -1.964  10.536  18.093  0.00  0.00    +0.000 C 
ENDBRANCH   2  33
TORSDOF 6
ENDMDL
MODEL 5
REMARK VINA RESULT:      -6.4      2.765      8.043
REMARK  Name = 
REMARK  8 active torsions:
REMARK  status: ('A' for Active; 'I' for Inactive)
REMARK    1  A    between atoms: C_1  and  O_2
REMARK    2  A    between atoms: O_2  and  C_3
REMARK    3  A    between atoms: N_5  and  N_6
REMARK    4  A    between atoms: N_5  and  C_27
REMARK    5  A    between atoms: C_7  and  C_9
REMARK    6  A    between atoms: C_10  and  O_11
REMARK    7  A    between atoms: O_11  and  C_12
REMARK    8  A    between atoms: C_13  and  C_14
REMARK                            x       y       z     vdW  Elec       q    Type
REMARK                         _______ _______ _______ _____ _____    ______ ____
ROOT
ATOM      1  C   UNL     1      -1.138  12.707  20.572  0.00  0.00    +0.000 A 
ATOM      2  C   UNL     1      -0.735  11.507  19.943  0.00  0.00    +0.000 A 
ATOM      3  C   UNL     1       0.641  11.226  19.914  0.00  0.00    +0.000 A 
ATOM      4  N   UNL     1       1.561  12.131  20.352  0.00  0.00    +0.000 NA
ATOM      5  C   UNL     1       1.174  13.294  20.890  0.00  0.00    +0.000 A 
ATOM      6  C   UNL     1       2.172  14.157  21.330  0.00  0.00    +0.000 A 
ATOM      7  C   UNL     1       1.886  15.386  21.924  0.00  0.00    +0.000 A 
ATOM      8  C   UNL     1       0.568  15.756  22.112  0.00  0.00    +0.000 A 
ATOM      9  C   UNL     1      -0.447  14.888  21.712  0.00  0.00    +0.000 A 
ATOM     10  C   UNL     1      -0.175  13.649  21.056  0.00  0.00    +0.000 A 
ENDROOT
BRANCH   3  11
ATOM     11  C   UNL     1       1.257   9.953  19.427  0.00  0.00    +0.000 A 
ATOM     12  C   UNL     1       1.374   8.836  20.282  0.00  0.00    +0.000 A 
ATOM     13  C   UNL     1       1.954   7.633  19.859  0.00  0.00    +0.000 A 
ATOM     14  C   UNL     1       2.430   7.509  18.559  0.00  0.00    +0.000 A 
ATOM     15  C   UNL     1       2.294   8.576  17.678  0.00  0.00    +0.000 A 
ATOM     16  C   UNL     1       1.703   9.773  18.104  0.00  0.00    +0.000 A 
ENDBRANCH   3  11
BRANCH   1  18
ATOM     17  N   UNL     1      -3.364  13.561  20.003  0.00  0.00    +0.000 N 
ATOM     18  C   UNL     1      -2.576  12.879  20.921  0.00  0.00    +0.000 C 
ATOM     19  O   UNL     1      -2.970  12.410  21.981  0.00  0.00    +0.000 OA
ATOM     20  H   UNL     1      -3.021  13.733  19.063  0.00  0.00    +0.000 HD
BRANCH  17  23
ATOM     21  C   UNL     1      -5.221  15.026  20.669  0.00  0.00    +0.000 C 
ATOM     22  O   UNL     1      -6.291  15.219  21.244  0.00  0.00    +0.000 OA
ATOM     23  N   UNL     1      -4.765  13.777  20.205  0.00  0.00    +0.000 N 
BRANCH  23  24
ATOM     24  C   UNL     1      -5.670  12.694  19.904  0.00  0.00    +0.000 A 
ATOM     25  C   UNL     1      -5.856  12.238  18.586  0.00  0.00    +0.000 A 
ATOM     26  C   UNL     1      -6.711  11.168  18.289  0.00  0.00    +0.000 A 
ATOM     27  C   UNL     1      -7.397  10.516  19.305  0.00  0.00    +0.000 A 
ATOM     28  C   UNL     1      -7.211  10.925  20.622  0.00  0.00    +0.000 A 
ATOM     29  C   UNL     1      -6.355  11.991  20.912  0.00  0.00    +0.000 A 
ATOM     30  F   UNL     1      -6.196  12.316  22.205  0.00  0.00    +0.000 F 
ENDBRANCH  23  24
BRANCH  21  32
ATOM     31  C   UNL     1      -4.974  17.119  19.659  0.00  0.00    +0.000 C 
ATOM     32  O   UNL     1      -4.361  16.061  20.401  0.00  0.00    +0.000 OA
ENDBRANCH  21  32
ENDBRANCH  17  23
ENDBRANCH   1  18
BRANCH   2  33
ATOM     33  O   UNL     1      -1.577  10.565  19.406  0.00  0.00    +0.000 OA
ATOM     34  C   UNL     1      -1.979  10.698  18.045  0.00  0.00    +0.000 C 
ENDBRANCH   2  33
TORSDOF 6
ENDMDL
MODEL 6
REMARK VINA RESULT:      -6.3      7.375     11.857
REMARK  Name = 
REMARK  8 active torsions:
REMARK  status: ('A' for Active; 'I' for Inactive)
REMARK    1  A    between atoms: C_1  and  O_2
REMARK    2  A    between atoms: O_2  and  C_3
REMARK    3  A    between atoms: N_5  and  N_6
REMARK    4  A    between atoms: N_5  and  C_27
REMARK    5  A    between atoms: C_7  and  C_9
REMARK    6  A    between atoms: C_10  and  O_11
REMARK    7  A    between atoms: O_11  and  C_12
REMARK    8  A    between atoms: C_13  and  C_14
REMARK                            x       y       z     vdW  Elec       q    Type
REMARK                         _______ _______ _______ _____ _____    ______ ____
ROOT
ATOM      1  C   UNL     1       6.858  14.141  22.024  0.00  0.00    +0.000 A 
ATOM      2  C   UNL     1       7.842  14.004  21.018  0.00  0.00    +0.000 A 
ATOM      3  C   UNL     1       8.749  12.939  21.144  0.00  0.00    +0.000 A 
ATOM      4  N   UNL     1       8.768  12.149  22.255  0.00  0.00    +0.000 NA
ATOM      5  C   UNL     1       7.872  12.324  23.233  0.00  0.00    +0.000 A 
ATOM      6  C   UNL     1       7.945  11.466  24.326  0.00  0.00    +0.000 A 
ATOM      7  C   UNL     1       7.052  11.543  25.395  0.00  0.00    +0.000 A 
ATOM      8  C   UNL     1       6.038  12.480  25.363  0.00  0.00    +0.000 A 
ATOM      9  C   UNL     1       5.926  13.324  24.259  0.00  0.00    +0.000 A 
ATOM     10  C   UNL     1       6.859  13.296  23.180  0.00  0.00    +0.000 A 
ENDROOT
BRANCH   3  11
ATOM     11  C   UNL     1       9.766  12.539  20.123  0.00  0.00    +0.000 A 
ATOM     12  C   UNL     1       9.376  11.883  18.936  0.00  0.00    +0.000 A 
ATOM     13  C   UNL     1      10.305  11.488  17.965  0.00  0.00    +0.000 A 
ATOM     14  C   UNL     1      11.658  11.745  18.151  0.00  0.00    +0.000 A 
ATOM     15  C   UNL     1      12.073  12.426  19.289  0.00  0.00    +0.000 A 
ATOM     16  C   UNL     1      11.138  12.828  20.252  0.00  0.00    +0.000 A 
ENDBRANCH   3  11
BRANCH   1  18
ATOM     17  N   UNL     1       5.134  14.967  20.491  0.00  0.00    +0.000 N 
ATOM     18  C   UNL     1       5.691  15.028  21.762  0.00  0.00    +0.000 C 
ATOM     19  O   UNL     1       5.297  15.744  22.674  0.00  0.00    +0.000 OA
ATOM     20  H   UNL     1       5.376  14.208  19.863  0.00  0.00    +0.000 HD
BRANCH  17  23
ATOM     21  C   UNL     1       4.155  17.121  19.824  0.00  0.00    +0.000 C 
ATOM     22  O   UNL     1       3.260  17.963  19.878  0.00  0.00    +0.000 OA
ATOM     23  N   UNL     1       3.996  15.752  20.114  0.00  0.00    +0.000 N 
BRANCH  23  24
ATOM     24  C   UNL     1       2.715  15.092  20.028  0.00  0.00    +0.000 A 
ATOM     25  C   UNL     1       1.924  14.873  21.171  0.00  0.00    +0.000 A 
ATOM     26  C   UNL     1       0.667  14.259  21.093  0.00  0.00    +0.000 A 
ATOM     27  C   UNL     1       0.160  13.856  19.864  0.00  0.00    +0.000 A 
ATOM     28  C   UNL     1       0.906  14.085  18.713  0.00  0.00    +0.000 A 
ATOM     29  C   UNL     1       2.158  14.700  18.798  0.00  0.00    +0.000 A 
ATOM     30  F   UNL     1       2.814  14.921  17.646  0.00  0.00    +0.000 F 
ENDBRANCH  23  24
BRANCH  21  32
ATOM     31  C   UNL     1       6.065  18.365  20.337  0.00  0.00    +0.000 C 
ATOM     32  O   UNL     1       5.426  17.458  19.435  0.00  0.00    +0.000 OA
ENDBRANCH  21  32
ENDBRANCH  17  23
ENDBRANCH   1  18
BRANCH   2  33
ATOM     33  O   UNL     1       7.954  14.791  19.899  0.00  0.00    +0.000 OA
ATOM     34  C   UNL     1       8.781  15.951  19.953  0.00  0.00    +0.000 C 
ENDBRANCH   2  33
TORSDOF 6
ENDMDL
MODEL 7
REMARK VINA RESULT:      -6.3      3.351      7.562
REMARK  Name = 
REMARK  8 active torsions:
REMARK  status: ('A' for Active; 'I' for Inactive)
REMARK    1  A    between atoms: C_1  and  O_2
REMARK    2  A    between atoms: O_2  and  C_3
REMARK    3  A    between atoms: N_5  and  N_6
REMARK    4  A    between atoms: N_5  and  C_27
REMARK    5  A    between atoms: C_7  and  C_9
REMARK    6  A    between atoms: C_10  and  O_11
REMARK    7  A    between atoms: O_11  and  C_12
REMARK    8  A    between atoms: C_13  and  C_14
REMARK                            x       y       z     vdW  Elec       q    Type
REMARK                         _______ _______ _______ _____ _____    ______ ____
ROOT
ATOM      1  C   UNL     1      -3.470  12.461  20.913  0.00  0.00    +0.000 A 
ATOM      2  C   UNL     1      -2.121  12.101  20.693  0.00  0.00    +0.000 A 
ATOM      3  C   UNL     1      -1.754  11.742  19.386  0.00  0.00    +0.000 A 
ATOM      4  N   UNL     1      -2.683  11.615  18.396  0.00  0.00    +0.000 NA
ATOM      5  C   UNL     1      -3.970  11.898  18.627  0.00  0.00    +0.000 A 
ATOM      6  C   UNL     1      -4.854  11.761  17.561  0.00  0.00    +0.000 A 
ATOM      7  C   UNL     1      -6.215  12.046  17.681  0.00  0.00    +0.000 A 
ATOM      8  C   UNL     1      -6.706  12.509  18.886  0.00  0.00    +0.000 A 
ATOM      9  C   UNL     1      -5.829  12.688  19.955  0.00  0.00    +0.000 A 
ATOM     10  C   UNL     1      -4.444  12.354  19.869  0.00  0.00    +0.000 A 
ENDROOT
BRANCH   3  11
ATOM     11  C   UNL     1      -0.360  11.468  18.919  0.00  0.00    +0.000 A 
ATOM     12  C   UNL     1       0.036  10.163  18.557  0.00  0.00    +0.000 A 
ATOM     13  C   UNL     1       1.337   9.872  18.125  0.00  0.00    +0.000 A 
ATOM     14  C   UNL     1       2.282  10.887  18.034  0.00  0.00    +0.000 A 
ATOM     15  C   UNL     1       1.915  12.192  18.343  0.00  0.00    +0.000 A 
ATOM     16  C   UNL     1       0.610  12.477  18.765  0.00  0.00    +0.000 A 
ENDBRANCH   3  11
BRANCH   1  18
ATOM     17  N   UNL     1      -3.830  14.549  22.143  0.00  0.00    +0.000 N 
ATOM     18  C   UNL     1      -3.823  13.161  22.179  0.00  0.00    +0.000 C 
ATOM     19  O   UNL     1      -4.086  12.477  23.160  0.00  0.00    +0.000 OA
ATOM     20  H   UNL     1      -3.809  15.038  21.254  0.00  0.00    +0.000 HD
BRANCH  17  23
ATOM     21  C   UNL     1      -5.523  15.625  23.565  0.00  0.00    +0.000 C 
ATOM     22  O   UNL     1      -5.924  16.574  24.235  0.00  0.00    +0.000 OA
ATOM     23  N   UNL     1      -4.171  15.345  23.285  0.00  0.00    +0.000 N 
BRANCH  23  24
ATOM     24  C   UNL     1      -3.099  15.820  24.126  0.00  0.00    +0.000 A 
ATOM     25  C   UNL     1      -2.447  17.039  23.866  0.00  0.00    +0.000 A 
ATOM     26  C   UNL     1      -1.425  17.522  24.694  0.00  0.00    +0.000 A 
ATOM     27  C   UNL     1      -1.033  16.801  25.815  0.00  0.00    +0.000 A 
ATOM     28  C   UNL     1      -1.678  15.606  26.114  0.00  0.00    +0.000 A 
ATOM     29  C   UNL     1      -2.698  15.131  25.285  0.00  0.00    +0.000 A 
ATOM     30  F   UNL     1      -3.302  13.987  25.647  0.00  0.00    +0.000 F 
ENDBRANCH  23  24
BRANCH  21  32
ATOM     31  C   UNL     1      -7.381  14.267  23.971  0.00  0.00    +0.000 C 
ATOM     32  O   UNL     1      -6.397  14.710  23.034  0.00  0.00    +0.000 OA
ENDBRANCH  21  32
ENDBRANCH  17  23
ENDBRANCH   1  18
BRANCH   2  33
ATOM     33  O   UNL     1      -1.125  12.124  21.638  0.00  0.00    +0.000 OA
ATOM     34  C   UNL     1      -0.911  10.967  22.442  0.00  0.00    +0.000 C 
ENDBRANCH   2  33
TORSDOF 6
ENDMDL
MODEL 8
REMARK VINA RESULT:      -6.3      2.860      8.059
REMARK  Name = 
REMARK  8 active torsions:
REMARK  status: ('A' for Active; 'I' for Inactive)
REMARK    1  A    between atoms: C_1  and  O_2
REMARK    2  A    between atoms: O_2  and  C_3
REMARK    3  A    between atoms: N_5  and  N_6
REMARK    4  A    between atoms: N_5  and  C_27
REMARK    5  A    between atoms: C_7  and  C_9
REMARK    6  A    between atoms: C_10  and  O_11
REMARK    7  A    between atoms: O_11  and  C_12
REMARK    8  A    between atoms: C_13  and  C_14
REMARK                            x       y       z     vdW  Elec       q    Type
REMARK                         _______ _______ _______ _____ _____    ______ ____
ROOT
ATOM      1  C   UNL     1      -1.293  12.467  19.276  0.00  0.00    +0.000 A 
ATOM      2  C   UNL     1      -0.808  11.160  19.046  0.00  0.00    +0.000 A 
ATOM      3  C   UNL     1       0.584  10.976  19.066  0.00  0.00    +0.000 A 
ATOM      4  N   UNL     1       1.439  12.033  19.170  0.00  0.00    +0.000 NA
ATOM      5  C   UNL     1       0.972  13.277  19.325  0.00  0.00    +0.000 A 
ATOM      6  C   UNL     1       1.909  14.300  19.440  0.00  0.00    +0.000 A 
ATOM      7  C   UNL     1       1.538  15.632  19.624  0.00  0.00    +0.000 A 
ATOM      8  C   UNL     1       0.198  15.954  19.725  0.00  0.00    +0.000 A 
ATOM      9  C   UNL     1      -0.754  14.938  19.649  0.00  0.00    +0.000 A 
ATOM     10  C   UNL     1      -0.398  13.577  19.410  0.00  0.00    +0.000 A 
ENDROOT
BRANCH   3  11
ATOM     11  C   UNL     1       1.288   9.659  18.988  0.00  0.00    +0.000 A 
ATOM     12  C   UNL     1       1.966   9.272  17.813  0.00  0.00    +0.000 A 
ATOM     13  C   UNL     1       2.626   8.041  17.705  0.00  0.00    +0.000 A 
ATOM     14  C   UNL     1       2.634   7.160  18.779  0.00  0.00    +0.000 A 
ATOM     15  C   UNL     1       2.011   7.526  19.967  0.00  0.00    +0.000 A 
ATOM     16  C   UNL     1       1.362   8.763  20.072  0.00  0.00    +0.000 A 
ENDBRANCH   3  11
BRANCH   1  18
ATOM     17  N   UNL     1      -3.040  13.186  20.837  0.00  0.00    +0.000 N 
ATOM     18  C   UNL     1      -2.737  12.645  19.595  0.00  0.00    +0.000 C 
ATOM     19  O   UNL     1      -3.558  12.311  18.749  0.00  0.00    +0.000 OA
ATOM     20  H   UNL     1      -2.315  13.629  21.392  0.00  0.00    +0.000 HD
BRANCH  17  23
ATOM     21  C   UNL     1      -4.907  12.735  22.371  0.00  0.00    +0.000 C 
ATOM     22  O   UNL     1      -6.103  12.548  22.590  0.00  0.00    +0.000 OA
ATOM     23  N   UNL     1      -4.386  13.429  21.261  0.00  0.00    +0.000 N 
BRANCH  23  24
ATOM     24  C   UNL     1      -5.162  14.403  20.533  0.00  0.00    +0.000 A 
ATOM     25  C   UNL     1      -4.858  15.776  20.589  0.00  0.00    +0.000 A 
ATOM     26  C   UNL     1      -5.589  16.725  19.863  0.00  0.00    +0.000 A 
ATOM     27  C   UNL     1      -6.640  16.326  19.048  0.00  0.00    +0.000 A 
ATOM     28  C   UNL     1      -6.947  14.973  18.948  0.00  0.00    +0.000 A 
ATOM     29  C   UNL     1      -6.213  14.031  19.674  0.00  0.00    +0.000 A 
ATOM     30  F   UNL     1      -6.539  12.738  19.509  0.00  0.00    +0.000 F 
ENDBRANCH  23  24
BRANCH  21  32
ATOM     31  C   UNL     1      -4.330  12.406  24.611  0.00  0.00    +0.000 C 
ATOM     32  O   UNL     1      -3.946  12.285  23.240  0.00  0.00    +0.000 OA
ENDBRANCH  21  32
ENDBRANCH  17  23
ENDBRANCH   1  18
BRANCH   2  33
ATOM     33  O   UNL     1      -1.583  10.042  18.858  0.00  0.00    +0.000 OA
ATOM     34  C   UNL     1      -2.034   9.730  17.543  0.00  0.00    +0.000 C 
ENDBRANCH   2  33
TORSDOF 6
ENDMDL
MODEL 9
REMARK VINA RESULT:      -6.2      3.668      7.804
REMARK  Name = 
REMARK  8 active torsions:
REMARK  status: ('A' for Active; 'I' for Inactive)
REMARK    1  A    between atoms: C_1  and  O_2
REMARK    2  A    between atoms: O_2  and  C_3
REMARK    3  A    between atoms: N_5  and  N_6
REMARK    4  A    between atoms: N_5  and  C_27
REMARK    5  A    between atoms: C_7  and  C_9
REMARK    6  A    between atoms: C_10  and  O_11
REMARK    7  A    between atoms: O_11  and  C_12
REMARK    8  A    between atoms: C_13  and  C_14
REMARK                            x       y       z     vdW  Elec       q    Type
REMARK                         _______ _______ _______ _____ _____    ______ ____
ROOT
ATOM      1  C   UNL     1      -3.639  12.552  21.014  0.00  0.00    +0.000 A 
ATOM      2  C   UNL     1      -2.273  12.262  20.797  0.00  0.00    +0.000 A 
ATOM      3  C   UNL     1      -1.887  11.914  19.492  0.00  0.00    +0.000 A 
ATOM      4  N   UNL     1      -2.807  11.733  18.503  0.00  0.00    +0.000 NA
ATOM      5  C   UNL     1      -4.108  11.950  18.731  0.00  0.00    +0.000 A 
ATOM      6  C   UNL     1      -4.982  11.760  17.666  0.00  0.00    +0.000 A 
ATOM      7  C   UNL     1      -6.356  11.975  17.783  0.00  0.00    +0.000 A 
ATOM      8  C   UNL     1      -6.872  12.419  18.985  0.00  0.00    +0.000 A 
ATOM      9  C   UNL     1      -6.006  12.650  20.053  0.00  0.00    +0.000 A 
ATOM     10  C   UNL     1      -4.606  12.388  19.970  0.00  0.00    +0.000 A 
ENDROOT
BRANCH   3  11
ATOM     11  C   UNL     1      -0.480  11.711  19.028  0.00  0.00    +0.000 A 
ATOM     12  C   UNL     1       0.381  12.812  18.833  0.00  0.00    +0.000 A 
ATOM     13  C   UNL     1       1.701  12.655  18.391  0.00  0.00    +0.000 A 
ATOM     14  C   UNL     1       2.203  11.385  18.136  0.00  0.00    +0.000 A 
ATOM     15  C   UNL     1       1.396  10.275  18.357  0.00  0.00    +0.000 A 
ATOM     16  C   UNL     1       0.080  10.438  18.810  0.00  0.00    +0.000 A 
ENDBRANCH   3  11
BRANCH   1  18
ATOM     17  N   UNL     1      -4.045  14.629  22.250  0.00  0.00    +0.000 N 
ATOM     18  C   UNL     1      -4.029  13.241  22.275  0.00  0.00    +0.000 C 
ATOM     19  O   UNL     1      -4.313  12.548  23.244  0.00  0.00    +0.000 OA
ATOM     20  H   UNL     1      -4.005  15.124  21.365  0.00  0.00    +0.000 HD
BRANCH  17  23
ATOM     21  C   UNL     1      -5.779  15.710  23.616  0.00  0.00    +0.000 C 
ATOM     22  O   UNL     1      -6.193  16.656  24.284  0.00  0.00    +0.000 OA
ATOM     23  N   UNL     1      -4.421  15.413  23.388  0.00  0.00    +0.000 N 
BRANCH  23  24
ATOM     24  C   UNL     1      -3.378  15.861  24.278  0.00  0.00    +0.000 A 
ATOM     25  C   UNL     1      -2.808  15.000  25.234  0.00  0.00    +0.000 A 
ATOM     26  C   UNL     1      -1.774  15.418  26.083  0.00  0.00    +0.000 A 
ATOM     27  C   UNL     1      -1.274  16.710  25.992  0.00  0.00    +0.000 A 
ATOM     28  C   UNL     1      -1.797  17.577  25.039  0.00  0.00    +0.000 A 
ATOM     29  C   UNL     1      -2.826  17.152  24.193  0.00  0.00    +0.000 A 
ATOM     30  F   UNL     1      -3.265  18.027  23.273  0.00  0.00    +0.000 F 
ENDBRANCH  23  24
BRANCH  21  32
ATOM     31  C   UNL     1      -7.430  14.100  23.993  0.00  0.00    +0.000 C 
ATOM     32  O   UNL     1      -6.643  14.816  23.037  0.00  0.00    +0.000 OA
ENDBRANCH  21  32
ENDBRANCH  17  23
ENDBRANCH   1  18
BRANCH   2  33
ATOM     33  O   UNL     1      -1.280  12.343  21.742  0.00  0.00    +0.000 OA
ATOM     34  C   UNL     1      -1.041  11.221  22.587  0.00  0.00    +0.000 C 
ENDBRANCH   2  33
TORSDOF 6
ENDMDL
