MODEL 1
REMARK VINA RESULT:      -7.0      0.000      0.000
REMARK  Name = 
REMARK  4 active torsions:
REMARK  status: ('A' for Active; 'I' for Inactive)
REMARK    1  A    between atoms: C_1  and  C_2
REMARK    2  A    between atoms: C_4  and  C_5
REMARK    3  A    between atoms: C_6  and  C_7
REMARK    4  A    between atoms: C_23  and  C_24
REMARK                            x       y       z     vdW  Elec       q    Type
REMARK                         _______ _______ _______ _____ _____    ______ ____
ROOT
ATOM      1  C   UNL     1       3.930   4.577  18.923  0.00  0.00    +0.000 C 
ATOM      2  O   UNL     1       4.102   3.613  19.675  0.00  0.00    +0.000 OA
ATOM      3  N   UNL     1       2.919   5.502  19.191  0.00  0.00    +0.000 N 
ATOM      4  C   UNL     1       2.163   5.352  20.426  0.00  0.00    +0.000 C 
ATOM      5  C   UNL     1       2.109   6.691  21.148  0.00  0.00    +0.000 C 
ATOM      6  N   UNL     1       1.582   7.761  20.299  0.00  0.00    +0.000 N 
ATOM      7  C   UNL     1       0.929   8.833  20.960  0.00  0.00    +0.000 A 
ATOM      8  N   UNL     1       0.223   9.730  20.248  0.00  0.00    +0.000 NA
ATOM      9  C   UNL     1      -0.451  10.686  20.928  0.00  0.00    +0.000 A 
ATOM     10  C   UNL     1      -0.449  10.784  22.292  0.00  0.00    +0.000 A 
ATOM     11  F   UNL     1      -1.130  11.735  22.939  0.00  0.00    +0.000 F 
ATOM     12  C   UNL     1       0.287   9.838  22.950  0.00  0.00    +0.000 A 
ATOM     13  N   UNL     1       0.973   8.857  22.314  0.00  0.00    +0.000 NA
ATOM     14  C   UNL     1       1.881   7.810  18.933  0.00  0.00    +0.000 C 
ATOM     15  O   UNL     1       1.709   8.787  18.201  0.00  0.00    +0.000 OA
ATOM     16  C   UNL     1       2.333   6.478  18.276  0.00  0.00    +0.000 C 
ENDROOT
BRANCH   1  22
ATOM     17  C   UNL     1       7.606   4.782  14.384  0.00  0.00    +0.000 C 
ATOM     18  C   UNL     1       6.652   4.747  15.541  0.00  0.00    +0.000 A 
ATOM     19  C   UNL     1       5.384   4.186  15.416  0.00  0.00    +0.000 A 
ATOM     20  C   UNL     1       4.490   4.155  16.507  0.00  0.00    +0.000 A 
ATOM     21  C   UNL     1       3.167   3.458  16.270  0.00  0.00    +0.000 C 
ATOM     22  C   UNL     1       4.869   4.711  17.757  0.00  0.00    +0.000 A 
ATOM     23  C   UNL     1       6.186   5.209  17.904  0.00  0.00    +0.000 A 
ATOM     24  C   UNL     1       6.797   5.666  19.203  0.00  0.00    +0.000 C 
ATOM     25  C   UNL     1       7.036   5.262  16.779  0.00  0.00    +0.000 A 
ENDBRANCH   1  22
TORSDOF 1
ENDMDL
MODEL 2
REMARK VINA RESULT:      -6.9      0.255      1.768
REMARK  Name = 
REMARK  4 active torsions:
REMARK  status: ('A' for Active; 'I' for Inactive)
REMARK    1  A    between atoms: C_1  and  C_2
REMARK    2  A    between atoms: C_4  and  C_5
REMARK    3  A    between atoms: C_6  and  C_7
REMARK    4  A    between atoms: C_23  and  C_24
REMARK                            x       y       z     vdW  Elec       q    Type
REMARK                         _______ _______ _______ _____ _____    ______ ____
ROOT
ATOM      1  C   UNL     1       3.886   4.263  19.021  0.00  0.00    +0.000 C 
ATOM      2  O   UNL     1       4.003   3.316  19.805  0.00  0.00    +0.000 OA
ATOM      3  N   UNL     1       2.915   5.240  19.244  0.00  0.00    +0.000 N 
ATOM      4  C   UNL     1       2.136   5.164  20.471  0.00  0.00    +0.000 C 
ATOM      5  C   UNL     1       2.132   6.527  21.150  0.00  0.00    +0.000 C 
ATOM      6  N   UNL     1       1.667   7.592  20.260  0.00  0.00    +0.000 N 
ATOM      7  C   UNL     1       1.055   8.713  20.878  0.00  0.00    +0.000 A 
ATOM      8  N   UNL     1       0.401   9.618  20.127  0.00  0.00    +0.000 NA
ATOM      9  C   UNL     1      -0.238  10.624  20.767  0.00  0.00    +0.000 A 
ATOM     10  C   UNL     1      -0.251  10.766  22.128  0.00  0.00    +0.000 A 
ATOM     11  F   UNL     1      -0.897  11.767  22.734  0.00  0.00    +0.000 F 
ATOM     12  C   UNL     1       0.432   9.809  22.825  0.00  0.00    +0.000 A 
ATOM     13  N   UNL     1       1.080   8.777  22.231  0.00  0.00    +0.000 NA
ATOM     14  C   UNL     1       1.987   7.584  18.898  0.00  0.00    +0.000 C 
ATOM     15  O   UNL     1       1.871   8.544  18.134  0.00  0.00    +0.000 OA
ATOM     16  C   UNL     1       2.387   6.213  18.290  0.00  0.00    +0.000 C 
ENDROOT
BRANCH   1  22
ATOM     17  C   UNL     1       7.592   4.787  14.532  0.00  0.00    +0.000 C 
ATOM     18  C   UNL     1       6.652   4.635  15.691  0.00  0.00    +0.000 A 
ATOM     19  C   UNL     1       6.974   5.129  16.952  0.00  0.00    +0.000 A 
ATOM     20  C   UNL     1       6.087   4.984  18.040  0.00  0.00    +0.000 A 
ATOM     21  C   UNL     1       6.516   5.622  19.344  0.00  0.00    +0.000 C 
ATOM     22  C   UNL     1       4.847   4.317  17.866  0.00  0.00    +0.000 A 
ATOM     23  C   UNL     1       4.487   3.885  16.567  0.00  0.00    +0.000 A 
ATOM     24  C   UNL     1       3.142   3.325  16.183  0.00  0.00    +0.000 C 
ATOM     25  C   UNL     1       5.418   4.009  15.513  0.00  0.00    +0.000 A 
ENDBRANCH   1  22
TORSDOF 1
ENDMDL
MODEL 3
REMARK VINA RESULT:      -6.7      3.424      9.100
REMARK  Name = 
REMARK  4 active torsions:
REMARK  status: ('A' for Active; 'I' for Inactive)
REMARK    1  A    between atoms: C_1  and  C_2
REMARK    2  A    between atoms: C_4  and  C_5
REMARK    3  A    between atoms: C_6  and  C_7
REMARK    4  A    between atoms: C_23  and  C_24
REMARK                            x       y       z     vdW  Elec       q    Type
REMARK                         _______ _______ _______ _____ _____    ______ ____
ROOT
ATOM      1  C   UNL     1      -0.523  11.988  19.272  0.00  0.00    +0.000 C 
ATOM      2  O   UNL     1      -0.799  12.541  18.203  0.00  0.00    +0.000 OA
ATOM      3  N   UNL     1      -0.079  10.665  19.282  0.00  0.00    +0.000 N 
ATOM      4  C   UNL     1       0.147  10.009  18.002  0.00  0.00    +0.000 C 
ATOM      5  C   UNL     1       1.517   9.344  18.014  0.00  0.00    +0.000 C 
ATOM      6  N   UNL     1       1.684   8.431  19.146  0.00  0.00    +0.000 N 
ATOM      7  C   UNL     1       2.584   7.349  18.961  0.00  0.00    +0.000 A 
ATOM      8  N   UNL     1       2.619   6.346  19.857  0.00  0.00    +0.000 NA
ATOM      9  C   UNL     1       3.432   5.297  19.597  0.00  0.00    +0.000 A 
ATOM     10  C   UNL     1       4.213   5.207  18.477  0.00  0.00    +0.000 A 
ATOM     11  F   UNL     1       5.002   4.153  18.242  0.00  0.00    +0.000 F 
ATOM     12  C   UNL     1       4.123   6.260  17.611  0.00  0.00    +0.000 A 
ATOM     13  N   UNL     1       3.318   7.330  17.823  0.00  0.00    +0.000 NA
ATOM     14  C   UNL     1       1.133   8.726  20.397  0.00  0.00    +0.000 C 
ATOM     15  O   UNL     1       1.430   8.168  21.455  0.00  0.00    +0.000 OA
ATOM     16  C   UNL     1      -0.041   9.742  20.413  0.00  0.00    +0.000 C 
ENDROOT
BRANCH   1  22
ATOM     17  C   UNL     1      -1.193  15.412  23.962  0.00  0.00    +0.000 C 
ATOM     18  C   UNL     1      -1.022  14.516  22.771  0.00  0.00    +0.000 A 
ATOM     19  C   UNL     1      -2.116  13.906  22.163  0.00  0.00    +0.000 A 
ATOM     20  C   UNL     1      -1.950  13.063  21.042  0.00  0.00    +0.000 A 
ATOM     21  C   UNL     1      -3.218  12.513  20.425  0.00  0.00    +0.000 C 
ATOM     22  C   UNL     1      -0.654  12.814  20.522  0.00  0.00    +0.000 A 
ATOM     23  C   UNL     1       0.447  13.497  21.092  0.00  0.00    +0.000 A 
ATOM     24  C   UNL     1       1.851  13.480  20.546  0.00  0.00    +0.000 C 
ATOM     25  C   UNL     1       0.248  14.297  22.237  0.00  0.00    +0.000 A 
ENDBRANCH   1  22
TORSDOF 1
ENDMDL
MODEL 4
REMARK VINA RESULT:      -6.7      3.428      9.227
REMARK  Name = 
REMARK  4 active torsions:
REMARK  status: ('A' for Active; 'I' for Inactive)
REMARK    1  A    between atoms: C_1  and  C_2
REMARK    2  A    between atoms: C_4  and  C_5
REMARK    3  A    between atoms: C_6  and  C_7
REMARK    4  A    between atoms: C_23  and  C_24
REMARK                            x       y       z     vdW  Elec       q    Type
REMARK                         _______ _______ _______ _____ _____    ______ ____
ROOT
ATOM      1  C   UNL     1      -0.645  12.155  19.165  0.00  0.00    +0.000 C 
ATOM      2  O   UNL     1      -0.916  12.681  18.081  0.00  0.00    +0.000 OA
ATOM      3  N   UNL     1      -0.201  10.832  19.211  0.00  0.00    +0.000 N 
ATOM      4  C   UNL     1       0.033  10.144  17.950  0.00  0.00    +0.000 C 
ATOM      5  C   UNL     1       1.403   9.481  17.986  0.00  0.00    +0.000 C 
ATOM      6  N   UNL     1       1.564   8.596  19.141  0.00  0.00    +0.000 N 
ATOM      7  C   UNL     1       2.465   7.511  18.989  0.00  0.00    +0.000 A 
ATOM      8  N   UNL     1       2.496   6.531  19.910  0.00  0.00    +0.000 NA
ATOM      9  C   UNL     1       3.310   5.475  19.681  0.00  0.00    +0.000 A 
ATOM     10  C   UNL     1       4.097   5.357  18.569  0.00  0.00    +0.000 A 
ATOM     11  F   UNL     1       4.888   4.299  18.364  0.00  0.00    +0.000 F 
ATOM     12  C   UNL     1       4.012   6.389  17.676  0.00  0.00    +0.000 A 
ATOM     13  N   UNL     1       3.206   7.463  17.856  0.00  0.00    +0.000 NA
ATOM     14  C   UNL     1       1.006   8.923  20.382  0.00  0.00    +0.000 C 
ATOM     15  O   UNL     1       1.297   8.392  21.455  0.00  0.00    +0.000 OA
ATOM     16  C   UNL     1      -0.168   9.938  20.366  0.00  0.00    +0.000 C 
ENDROOT
BRANCH   1  22
ATOM     17  C   UNL     1      -1.024  15.266  24.099  0.00  0.00    +0.000 C 
ATOM     18  C   UNL     1      -0.925  14.486  22.821  0.00  0.00    +0.000 A 
ATOM     19  C   UNL     1       0.303  14.255  22.209  0.00  0.00    +0.000 A 
ATOM     20  C   UNL     1       0.391  13.520  21.006  0.00  0.00    +0.000 A 
ATOM     21  C   UNL     1       1.787  13.275  20.472  0.00  0.00    +0.000 C 
ATOM     22  C   UNL     1      -0.783  13.012  20.393  0.00  0.00    +0.000 A 
ATOM     23  C   UNL     1      -2.021  13.181  21.057  0.00  0.00    +0.000 A 
ATOM     24  C   UNL     1      -3.323  12.553  20.632  0.00  0.00    +0.000 C 
ATOM     25  C   UNL     1      -2.075  13.957  22.234  0.00  0.00    +0.000 A 
ENDBRANCH   1  22
TORSDOF 1
ENDMDL
MODEL 5
REMARK VINA RESULT:      -6.5      4.175     10.574
REMARK  Name = 
REMARK  4 active torsions:
REMARK  status: ('A' for Active; 'I' for Inactive)
REMARK    1  A    between atoms: C_1  and  C_2
REMARK    2  A    between atoms: C_4  and  C_5
REMARK    3  A    between atoms: C_6  and  C_7
REMARK    4  A    between atoms: C_23  and  C_24
REMARK                            x       y       z     vdW  Elec       q    Type
REMARK                         _______ _______ _______ _____ _____    ______ ____
ROOT
ATOM      1  C   UNL     1      -2.382  13.546  21.536  0.00  0.00    +0.000 C 
ATOM      2  O   UNL     1      -3.126  14.079  20.707  0.00  0.00    +0.000 OA
ATOM      3  N   UNL     1      -1.801  12.307  21.261  0.00  0.00    +0.000 N 
ATOM      4  C   UNL     1      -2.013  11.729  19.942  0.00  0.00    +0.000 C 
ATOM      5  C   UNL     1      -0.675  11.283  19.368  0.00  0.00    +0.000 C 
ATOM      6  N   UNL     1       0.042  10.375  20.266  0.00  0.00    +0.000 N 
ATOM      7  C   UNL     1       0.929   9.450  19.657  0.00  0.00    +0.000 A 
ATOM      8  N   UNL     1       1.445   8.440  20.382  0.00  0.00    +0.000 NA
ATOM      9  C   UNL     1       2.219   7.536  19.739  0.00  0.00    +0.000 A 
ATOM     10  C   UNL     1       2.501   7.597  18.402  0.00  0.00    +0.000 A 
ATOM     11  F   UNL     1       3.264   6.685  17.792  0.00  0.00    +0.000 F 
ATOM     12  C   UNL     1       1.941   8.648  17.731  0.00  0.00    +0.000 A 
ATOM     13  N   UNL     1       1.152   9.575  18.327  0.00  0.00    +0.000 NA
ATOM     14  C   UNL     1      -0.006  10.548  21.654  0.00  0.00    +0.000 C 
ATOM     15  O   UNL     1       0.754  10.013  22.464  0.00  0.00    +0.000 OA
ATOM     16  C   UNL     1      -1.200  11.370  22.207  0.00  0.00    +0.000 C 
ENDROOT
BRANCH   1  22
ATOM     17  C   UNL     1      -1.090  16.334  26.508  0.00  0.00    +0.000 C 
ATOM     18  C   UNL     1      -1.430  15.637  25.224  0.00  0.00    +0.000 A 
ATOM     19  C   UNL     1      -0.626  15.769  24.095  0.00  0.00    +0.000 A 
ATOM     20  C   UNL     1      -0.950  15.111  22.889  0.00  0.00    +0.000 A 
ATOM     21  C   UNL     1       0.035  15.274  21.751  0.00  0.00    +0.000 C 
ATOM     22  C   UNL     1      -2.117  14.307  22.805  0.00  0.00    +0.000 A 
ATOM     23  C   UNL     1      -2.889  14.112  23.975  0.00  0.00    +0.000 A 
ATOM     24  C   UNL     1      -4.046  13.154  24.097  0.00  0.00    +0.000 C 
ATOM     25  C   UNL     1      -2.558  14.820  25.150  0.00  0.00    +0.000 A 
ENDBRANCH   1  22
TORSDOF 1
ENDMDL
MODEL 6
REMARK VINA RESULT:      -6.4      1.113      1.202
REMARK  Name = 
REMARK  4 active torsions:
REMARK  status: ('A' for Active; 'I' for Inactive)
REMARK    1  A    between atoms: C_1  and  C_2
REMARK    2  A    between atoms: C_4  and  C_5
REMARK    3  A    between atoms: C_6  and  C_7
REMARK    4  A    between atoms: C_23  and  C_24
REMARK                            x       y       z     vdW  Elec       q    Type
REMARK                         _______ _______ _______ _____ _____    ______ ____
ROOT
ATOM      1  C   UNL     1       3.506   5.217  19.187  0.00  0.00    +0.000 C 
ATOM      2  O   UNL     1       3.608   4.437  20.140  0.00  0.00    +0.000 OA
ATOM      3  N   UNL     1       2.569   6.250  19.224  0.00  0.00    +0.000 N 
ATOM      4  C   UNL     1       1.807   6.440  20.449  0.00  0.00    +0.000 C 
ATOM      5  C   UNL     1       1.855   7.909  20.848  0.00  0.00    +0.000 C 
ATOM      6  N   UNL     1       1.409   8.794  19.771  0.00  0.00    +0.000 N 
ATOM      7  C   UNL     1       0.840  10.034  20.163  0.00  0.00    +0.000 A 
ATOM      8  N   UNL     1       0.201  10.795  19.256  0.00  0.00    +0.000 NA
ATOM      9  C   UNL     1      -0.397  11.927  19.693  0.00  0.00    +0.000 A 
ATOM     10  C   UNL     1      -0.383  12.332  20.999  0.00  0.00    +0.000 A 
ATOM     11  F   UNL     1      -0.989  13.453  21.404  0.00  0.00    +0.000 F 
ATOM     12  C   UNL     1       0.281  11.508  21.864  0.00  0.00    +0.000 A 
ATOM     13  N   UNL     1       0.889  10.360  21.477  0.00  0.00    +0.000 NA
ATOM     14  C   UNL     1       1.707   8.510  18.434  0.00  0.00    +0.000 C 
ATOM     15  O   UNL     1       1.607   9.305  17.498  0.00  0.00    +0.000 OA
ATOM     16  C   UNL     1       2.055   7.034  18.103  0.00  0.00    +0.000 C 
ENDROOT
BRANCH   1  22
ATOM     17  C   UNL     1       7.166   4.112  14.765  0.00  0.00    +0.000 C 
ATOM     18  C   UNL     1       6.218   4.412  15.889  0.00  0.00    +0.000 A 
ATOM     19  C   UNL     1       4.899   3.969  15.859  0.00  0.00    +0.000 A 
ATOM     20  C   UNL     1       4.011   4.254  16.918  0.00  0.00    +0.000 A 
ATOM     21  C   UNL     1       2.622   3.661  16.805  0.00  0.00    +0.000 C 
ATOM     22  C   UNL     1       4.450   5.012  18.034  0.00  0.00    +0.000 A 
ATOM     23  C   UNL     1       5.811   5.394  18.100  0.00  0.00    +0.000 A 
ATOM     24  C   UNL     1       6.471   6.042  19.289  0.00  0.00    +0.000 C 
ATOM     25  C   UNL     1       6.658   5.128  17.002  0.00  0.00    +0.000 A 
ENDBRANCH   1  22
TORSDOF 1
ENDMDL
MODEL 7
REMARK VINA RESULT:      -6.4      2.482      3.836
REMARK  Name = 
REMARK  4 active torsions:
REMARK  status: ('A' for Active; 'I' for Inactive)
REMARK    1  A    between atoms: C_1  and  C_2
REMARK    2  A    between atoms: C_4  and  C_5
REMARK    3  A    between atoms: C_6  and  C_7
REMARK    4  A    between atoms: C_23  and  C_24
REMARK                            x       y       z     vdW  Elec       q    Type
REMARK                         _______ _______ _______ _____ _____    ______ ____
ROOT
ATOM      1  C   UNL     1       3.475   6.613  17.802  0.00  0.00    +0.000 C 
ATOM      2  O   UNL     1       4.023   6.863  16.724  0.00  0.00    +0.000 OA
ATOM      3  N   UNL     1       2.834   7.629  18.514  0.00  0.00    +0.000 N 
ATOM      4  C   UNL     1       2.742   8.944  17.897  0.00  0.00    +0.000 C 
ATOM      5  C   UNL     1       1.305   9.440  17.986  0.00  0.00    +0.000 C 
ATOM      6  N   UNL     1       0.796   9.431  19.358  0.00  0.00    +0.000 N 
ATOM      7  C   UNL     1      -0.215  10.378  19.667  0.00  0.00    +0.000 A 
ATOM      8  N   UNL     1      -0.568  10.589  20.948  0.00  0.00    +0.000 NA
ATOM      9  C   UNL     1      -1.476  11.560  21.200  0.00  0.00    +0.000 A 
ATOM     10  C   UNL     1      -2.047  12.331  20.225  0.00  0.00    +0.000 A 
ATOM     11  F   UNL     1      -2.936  13.289  20.504  0.00  0.00    +0.000 F 
ATOM     12  C   UNL     1      -1.638  12.063  18.948  0.00  0.00    +0.000 A 
ATOM     13  N   UNL     1      -0.726  11.107  18.645  0.00  0.00    +0.000 NA
ATOM     14  C   UNL     1       1.152   8.415  20.252  0.00  0.00    +0.000 C 
ATOM     15  O   UNL     1       0.586   8.177  21.321  0.00  0.00    +0.000 OA
ATOM     16  C   UNL     1       2.448   7.628  19.923  0.00  0.00    +0.000 C 
ENDROOT
BRANCH   1  22
ATOM     17  C   UNL     1       3.819   1.001  19.399  0.00  0.00    +0.000 C 
ATOM     18  C   UNL     1       3.727   2.447  19.010  0.00  0.00    +0.000 A 
ATOM     19  C   UNL     1       4.804   3.312  19.183  0.00  0.00    +0.000 A 
ATOM     20  C   UNL     1       4.713   4.672  18.815  0.00  0.00    +0.000 A 
ATOM     21  C   UNL     1       5.971   5.497  18.985  0.00  0.00    +0.000 C 
ATOM     22  C   UNL     1       3.507   5.184  18.270  0.00  0.00    +0.000 A 
ATOM     23  C   UNL     1       2.441   4.287  18.022  0.00  0.00    +0.000 A 
ATOM     24  C   UNL     1       1.171   4.635  17.291  0.00  0.00    +0.000 C 
ATOM     25  C   UNL     1       2.554   2.945  18.443  0.00  0.00    +0.000 A 
ENDBRANCH   1  22
TORSDOF 1
ENDMDL
MODEL 8
REMARK VINA RESULT:      -6.3      3.673      9.804
REMARK  Name = 
REMARK  4 active torsions:
REMARK  status: ('A' for Active; 'I' for Inactive)
REMARK    1  A    between atoms: C_1  and  C_2
REMARK    2  A    between atoms: C_4  and  C_5
REMARK    3  A    between atoms: C_6  and  C_7
REMARK    4  A    between atoms: C_23  and  C_24
REMARK                            x       y       z     vdW  Elec       q    Type
REMARK                         _______ _______ _______ _____ _____    ______ ____
ROOT
ATOM      1  C   UNL     1      -1.397  12.761  20.577  0.00  0.00    +0.000 C 
ATOM      2  O   UNL     1      -1.851  13.408  19.628  0.00  0.00    +0.000 OA
ATOM      3  N   UNL     1      -0.897  11.474  20.372  0.00  0.00    +0.000 N 
ATOM      4  C   UNL     1      -0.830  10.975  19.007  0.00  0.00    +0.000 C 
ATOM      5  C   UNL     1       0.556  10.398  18.750  0.00  0.00    +0.000 C 
ATOM      6  N   UNL     1       0.927   9.380  19.734  0.00  0.00    +0.000 N 
ATOM      7  C   UNL     1       1.839   8.382  19.302  0.00  0.00    +0.000 A 
ATOM      8  N   UNL     1       2.050   7.292  20.063  0.00  0.00    +0.000 NA
ATOM      9  C   UNL     1       2.863   6.329  19.572  0.00  0.00    +0.000 A 
ATOM     10  C   UNL     1       3.476   6.408  18.352  0.00  0.00    +0.000 A 
ATOM     11  F   UNL     1       4.269   5.437  17.889  0.00  0.00    +0.000 F 
ATOM     12  C   UNL     1       3.214   7.542  17.634  0.00  0.00    +0.000 A 
ATOM     13  N   UNL     1       2.400   8.531  18.079  0.00  0.00    +0.000 NA
ATOM     14  C   UNL     1       0.551   9.504  21.076  0.00  0.00    +0.000 C 
ATOM     15  O   UNL     1       1.024   8.854  22.011  0.00  0.00    +0.000 OA
ATOM     16  C   UNL     1      -0.653  10.438  21.373  0.00  0.00    +0.000 C 
ENDROOT
BRANCH   1  22
ATOM     17  C   UNL     1      -1.577  15.575  25.697  0.00  0.00    +0.000 C 
ATOM     18  C   UNL     1      -1.525  14.834  24.393  0.00  0.00    +0.000 A 
ATOM     19  C   UNL     1      -2.589  14.043  23.969  0.00  0.00    +0.000 A 
ATOM     20  C   UNL     1      -2.536  13.348  22.742  0.00  0.00    +0.000 A 
ATOM     21  C   UNL     1      -3.780  12.577  22.355  0.00  0.00    +0.000 C 
ATOM     22  C   UNL     1      -1.383  13.437  21.920  0.00  0.00    +0.000 A 
ATOM     23  C   UNL     1      -0.335  14.303  22.315  0.00  0.00    +0.000 A 
ATOM     24  C   UNL     1       0.868  14.643  21.476  0.00  0.00    +0.000 C 
ATOM     25  C   UNL     1      -0.405  14.948  23.569  0.00  0.00    +0.000 A 
ENDBRANCH   1  22
TORSDOF 1
ENDMDL
MODEL 9
REMARK VINA RESULT:      -6.2      6.149      8.480
REMARK  Name = 
REMARK  4 active torsions:
REMARK  status: ('A' for Active; 'I' for Inactive)
REMARK    1  A    between atoms: C_1  and  C_2
REMARK    2  A    between atoms: C_4  and  C_5
REMARK    3  A    between atoms: C_6  and  C_7
REMARK    4  A    between atoms: C_23  and  C_24
REMARK                            x       y       z     vdW  Elec       q    Type
REMARK                         _______ _______ _______ _____ _____    ______ ____
ROOT
ATOM      1  C   UNL     1       0.865  11.785  20.971  0.00  0.00    +0.000 C 
ATOM      2  O   UNL     1       1.541  10.972  21.608  0.00  0.00    +0.000 OA
ATOM      3  N   UNL     1      -0.521  11.820  21.128  0.00  0.00    +0.000 N 
ATOM      4  C   UNL     1      -1.118  10.955  22.134  0.00  0.00    +0.000 C 
ATOM      5  C   UNL     1      -2.073  11.770  22.996  0.00  0.00    +0.000 C 
ATOM      6  N   UNL     1      -3.079  12.475  22.200  0.00  0.00    +0.000 N 
ATOM      7  C   UNL     1      -4.319  12.742  22.836  0.00  0.00    +0.000 A 
ATOM      8  N   UNL     1      -5.366  13.174  22.109  0.00  0.00    +0.000 NA
ATOM      9  C   UNL     1      -6.550  13.335  22.743  0.00  0.00    +0.000 A 
ATOM     10  C   UNL     1      -6.733  13.083  24.075  0.00  0.00    +0.000 A 
ATOM     11  F   UNL     1      -7.917  13.244  24.675  0.00  0.00    +0.000 F 
ATOM     12  C   UNL     1      -5.627  12.645  24.749  0.00  0.00    +0.000 A 
ATOM     13  N   UNL     1      -4.421  12.460  24.157  0.00  0.00    +0.000 NA
ATOM     14  C   UNL     1      -2.758  13.021  20.952  0.00  0.00    +0.000 C 
ATOM     15  O   UNL     1      -3.442  13.839  20.335  0.00  0.00    +0.000 OA
ATOM     16  C   UNL     1      -1.508  12.434  20.242  0.00  0.00    +0.000 C 
ENDROOT
BRANCH   1  22
ATOM     17  C   UNL     1       3.483  15.626  17.427  0.00  0.00    +0.000 C 
ATOM     18  C   UNL     1       2.830  14.638  18.348  0.00  0.00    +0.000 A 
ATOM     19  C   UNL     1       2.342  15.024  19.593  0.00  0.00    +0.000 A 
ATOM     20  C   UNL     1       1.728  14.091  20.457  0.00  0.00    +0.000 A 
ATOM     21  C   UNL     1       1.176  14.642  21.754  0.00  0.00    +0.000 C 
ATOM     22  C   UNL     1       1.608  12.731  20.068  0.00  0.00    +0.000 A 
ATOM     23  C   UNL     1       2.032  12.358  18.771  0.00  0.00    +0.000 A 
ATOM     24  C   UNL     1       1.813  11.005  18.146  0.00  0.00    +0.000 C 
ATOM     25  C   UNL     1       2.680  13.308  17.954  0.00  0.00    +0.000 A 
ENDBRANCH   1  22
TORSDOF 1
ENDMDL
