MODEL 1
REMARK VINA RESULT:      -8.4      0.000      0.000
REMARK  Name = 
REMARK  14 active torsions:
REMARK  status: ('A' for Active; 'I' for Inactive)
REMARK    1  A    between atoms: C_1  and  O_2
REMARK    2  A    between atoms: O_2  and  C_3
REMARK    3  A    between atoms: C_3  and  C_4
REMARK    4  A    between atoms: C_4  and  C_5
REMARK    5  A    between atoms: C_5  and  O_6
REMARK    6  A    between atoms: O_6  and  C_7
REMARK    7  A    between atoms: C_12  and  O_13
REMARK    8  A    between atoms: O_13  and  C_14
REMARK    9  A    between atoms: C_19  and  C_20
REMARK   10  A    between atoms: C_20  and  O_22
REMARK   11  A    between atoms: C_25  and  C_26
REMARK   12  A    between atoms: C_26  and  C_27
REMARK   13  A    between atoms: C_26  and  C_28
REMARK   14  A    between atoms: C_26  and  C_29
REMARK                            x       y       z     vdW  Elec       q    Type
REMARK                         _______ _______ _______ _____ _____    ______ ____
ROOT
ATOM      1  C   UNL     1       0.762   9.388  20.210  0.00  0.00    +0.000 A 
ATOM      2  C   UNL     1       1.013   8.068  20.623  0.00  0.00    +0.000 A 
ATOM      3  C   UNL     1       1.917   7.211  19.957  0.00  0.00    +0.000 A 
ATOM      4  C   UNL     1       2.510   7.618  18.769  0.00  0.00    +0.000 A 
ATOM      5  C   UNL     1       2.171   8.895  18.312  0.00  0.00    +0.000 A 
ATOM      6  C   UNL     1       1.329   9.792  19.001  0.00  0.00    +0.000 A 
ATOM      7  C   UNL     1       3.496   6.732  18.085  0.00  0.00    +0.000 A 
ATOM      8  C   UNL     1       4.024   7.116  16.914  0.00  0.00    +0.000 A 
ATOM      9  C   UNL     1       5.042   6.301  16.241  0.00  0.00    +0.000 A 
ATOM     10  O   UNL     1       5.488   6.605  15.148  0.00  0.00    +0.000 OA
ATOM     11  C   UNL     1       5.569   5.129  16.967  0.00  0.00    +0.000 A 
ATOM     12  C   UNL     1       5.010   4.870  18.158  0.00  0.00    +0.000 A 
ATOM     13  N   UNL     1       3.909   5.537  18.712  0.00  0.00    +0.000 N 
ATOM     14  C   UNL     1       3.132   4.896  19.846  0.00  0.00    +0.000 C 
ATOM     15  C   UNL     1       2.242   5.909  20.612  0.00  0.00    +0.000 C 
ENDROOT
BRANCH  14  16
ATOM     16  C   UNL     1       2.311   3.602  19.391  0.00  0.00    +0.000 C 
ATOM     17  C   UNL     1       3.192   2.334  19.418  0.00  0.00    +0.000 C 
ATOM     18  C   UNL     1       1.136   3.284  20.367  0.00  0.00    +0.000 C 
ATOM     19  C   UNL     1       1.710   3.781  17.994  0.00  0.00    +0.000 C 
ENDBRANCH  14  16
BRANCH   6  20
ATOM     20  O   UNL     1       1.279  10.963  18.305  0.00  0.00    +0.000 OA
ATOM     21  C   UNL     1       1.976  12.119  18.703  0.00  0.00    +0.000 C 
ENDBRANCH   6  20
BRANCH  11  22
ATOM     22  C   UNL     1       6.600   4.231  16.394  0.00  0.00    +0.000 C 
ATOM     23  O   UNL     1       7.796   4.395  16.563  0.00  0.00    +0.000 OA
BRANCH  22  24
ATOM     24  O   UNL     1       6.111   3.182  15.694  0.00  0.00    +0.000 OA
ATOM     25  H   UNL     1       5.135   3.213  15.524  0.00  0.00    +0.000 HD
ENDBRANCH  22  24
ENDBRANCH  11  22
BRANCH   1  26
ATOM     26  O   UNL     1       0.029  10.242  21.010  0.00  0.00    +0.000 OA
BRANCH  26  27
ATOM     27  C   UNL     1       0.044   9.853  22.406  0.00  0.00    +0.000 C 
BRANCH  27  28
ATOM     28  C   UNL     1      -1.060  10.527  23.213  0.00  0.00    +0.000 C 
BRANCH  28  29
ATOM     29  C   UNL     1      -1.300  11.956  22.710  0.00  0.00    +0.000 C 
BRANCH  29  31
ATOM     30  C   UNL     1      -3.368  12.376  23.773  0.00  0.00    +0.000 C 
ATOM     31  O   UNL     1      -2.698  12.189  22.530  0.00  0.00    +0.000 OA
ENDBRANCH  29  31
ENDBRANCH  28  29
ENDBRANCH  27  28
ENDBRANCH  26  27
ENDBRANCH   1  26
TORSDOF 9
ENDMDL
MODEL 2
REMARK VINA RESULT:      -8.2      0.655      1.247
REMARK  Name = 
REMARK  14 active torsions:
REMARK  status: ('A' for Active; 'I' for Inactive)
REMARK    1  A    between atoms: C_1  and  O_2
REMARK    2  A    between atoms: O_2  and  C_3
REMARK    3  A    between atoms: C_3  and  C_4
REMARK    4  A    between atoms: C_4  and  C_5
REMARK    5  A    between atoms: C_5  and  O_6
REMARK    6  A    between atoms: O_6  and  C_7
REMARK    7  A    between atoms: C_12  and  O_13
REMARK    8  A    between atoms: O_13  and  C_14
REMARK    9  A    between atoms: C_19  and  C_20
REMARK   10  A    between atoms: C_20  and  O_22
REMARK   11  A    between atoms: C_25  and  C_26
REMARK   12  A    between atoms: C_26  and  C_27
REMARK   13  A    between atoms: C_26  and  C_28
REMARK   14  A    between atoms: C_26  and  C_29
REMARK                            x       y       z     vdW  Elec       q    Type
REMARK                         _______ _______ _______ _____ _____    ______ ____
ROOT
ATOM      1  C   UNL     1       0.811   9.356  20.228  0.00  0.00    +0.000 A 
ATOM      2  C   UNL     1       1.067   8.030  20.619  0.00  0.00    +0.000 A 
ATOM      3  C   UNL     1       1.962   7.182  19.929  0.00  0.00    +0.000 A 
ATOM      4  C   UNL     1       2.539   7.606  18.739  0.00  0.00    +0.000 A 
ATOM      5  C   UNL     1       2.194   8.889  18.305  0.00  0.00    +0.000 A 
ATOM      6  C   UNL     1       1.361   9.777  19.017  0.00  0.00    +0.000 A 
ATOM      7  C   UNL     1       3.516   6.729  18.029  0.00  0.00    +0.000 A 
ATOM      8  C   UNL     1       4.028   7.130  16.857  0.00  0.00    +0.000 A 
ATOM      9  C   UNL     1       5.037   6.324  16.160  0.00  0.00    +0.000 A 
ATOM     10  O   UNL     1       5.468   6.644  15.066  0.00  0.00    +0.000 OA
ATOM     11  C   UNL     1       5.573   5.143  16.862  0.00  0.00    +0.000 A 
ATOM     12  C   UNL     1       5.030   4.867  18.057  0.00  0.00    +0.000 A 
ATOM     13  N   UNL     1       3.936   5.526  18.635  0.00  0.00    +0.000 N 
ATOM     14  C   UNL     1       3.175   4.869  19.770  0.00  0.00    +0.000 C 
ATOM     15  C   UNL     1       2.295   5.872  20.561  0.00  0.00    +0.000 C 
ENDROOT
BRANCH  14  16
ATOM     16  C   UNL     1       2.347   3.582  19.308  0.00  0.00    +0.000 C 
ATOM     17  C   UNL     1       1.121   3.343  20.216  0.00  0.00    +0.000 C 
ATOM     18  C   UNL     1       1.749   3.755  17.878  0.00  0.00    +0.000 C 
ATOM     19  C   UNL     1       3.225   2.326  19.289  0.00  0.00    +0.000 C 
ENDBRANCH  14  16
BRANCH   6  20
ATOM     20  O   UNL     1       1.303  10.957  18.339  0.00  0.00    +0.000 OA
ATOM     21  C   UNL     1       1.869  12.149  18.828  0.00  0.00    +0.000 C 
ENDBRANCH   6  20
BRANCH  11  22
ATOM     22  C   UNL     1       6.596   4.253  16.263  0.00  0.00    +0.000 C 
ATOM     23  O   UNL     1       6.352   3.467  15.363  0.00  0.00    +0.000 OA
BRANCH  22  24
ATOM     24  O   UNL     1       7.843   4.405  16.764  0.00  0.00    +0.000 OA
ATOM     25  H   UNL     1       7.926   5.095  17.471  0.00  0.00    +0.000 HD
ENDBRANCH  22  24
ENDBRANCH  11  22
BRANCH   1  26
ATOM     26  O   UNL     1       0.089  10.199  21.050  0.00  0.00    +0.000 OA
BRANCH  26  27
ATOM     27  C   UNL     1      -0.445   9.523  22.216  0.00  0.00    +0.000 C 
BRANCH  27  28
ATOM     28  C   UNL     1      -0.997  10.494  23.252  0.00  0.00    +0.000 C 
BRANCH  28  29
ATOM     29  C   UNL     1      -1.280  11.861  22.616  0.00  0.00    +0.000 C 
BRANCH  29  31
ATOM     30  C   UNL     1      -0.737  14.159  22.690  0.00  0.00    +0.000 C 
ATOM     31  O   UNL     1      -0.445  12.862  23.201  0.00  0.00    +0.000 OA
ENDBRANCH  29  31
ENDBRANCH  28  29
ENDBRANCH  27  28
ENDBRANCH  26  27
ENDBRANCH   1  26
TORSDOF 9
ENDMDL
MODEL 3
REMARK VINA RESULT:      -8.1      0.907      1.256
REMARK  Name = 
REMARK  14 active torsions:
REMARK  status: ('A' for Active; 'I' for Inactive)
REMARK    1  A    between atoms: C_1  and  O_2
REMARK    2  A    between atoms: O_2  and  C_3
REMARK    3  A    between atoms: C_3  and  C_4
REMARK    4  A    between atoms: C_4  and  C_5
REMARK    5  A    between atoms: C_5  and  O_6
REMARK    6  A    between atoms: O_6  and  C_7
REMARK    7  A    between atoms: C_12  and  O_13
REMARK    8  A    between atoms: O_13  and  C_14
REMARK    9  A    between atoms: C_19  and  C_20
REMARK   10  A    between atoms: C_20  and  O_22
REMARK   11  A    between atoms: C_25  and  C_26
REMARK   12  A    between atoms: C_26  and  C_27
REMARK   13  A    between atoms: C_26  and  C_28
REMARK   14  A    between atoms: C_26  and  C_29
REMARK                            x       y       z     vdW  Elec       q    Type
REMARK                         _______ _______ _______ _____ _____    ______ ____
ROOT
ATOM      1  C   UNL     1       0.637   8.249  20.875  0.00  0.00    +0.000 A 
ATOM      2  C   UNL     1       1.010   6.904  21.043  0.00  0.00    +0.000 A 
ATOM      3  C   UNL     1       1.986   6.269  20.244  0.00  0.00    +0.000 A 
ATOM      4  C   UNL     1       2.536   6.939  19.159  0.00  0.00    +0.000 A 
ATOM      5  C   UNL     1       2.079   8.242  18.938  0.00  0.00    +0.000 A 
ATOM      6  C   UNL     1       1.160   8.918  19.768  0.00  0.00    +0.000 A 
ATOM      7  C   UNL     1       3.597   6.287  18.338  0.00  0.00    +0.000 A 
ATOM      8  C   UNL     1       4.083   6.925  17.264  0.00  0.00    +0.000 A 
ATOM      9  C   UNL     1       5.170   6.343  16.468  0.00  0.00    +0.000 A 
ATOM     10  O   UNL     1       5.582   6.882  15.455  0.00  0.00    +0.000 OA
ATOM     11  C   UNL     1       5.804   5.111  16.975  0.00  0.00    +0.000 A 
ATOM     12  C   UNL     1       5.275   4.589  18.091  0.00  0.00    +0.000 A 
ATOM     13  N   UNL     1       4.119   5.040  18.743  0.00  0.00    +0.000 N 
ATOM     14  C   UNL     1       3.409   4.134  19.729  0.00  0.00    +0.000 C 
ATOM     15  C   UNL     1       2.431   4.905  20.655  0.00  0.00    +0.000 C 
ENDROOT
BRANCH  14  16
ATOM     16  C   UNL     1       2.708   2.876  19.035  0.00  0.00    +0.000 C 
ATOM     17  C   UNL     1       1.460   2.419  19.821  0.00  0.00    +0.000 C 
ATOM     18  C   UNL     1       2.171   3.219  17.611  0.00  0.00    +0.000 C 
ATOM     19  C   UNL     1       3.680   1.702  18.886  0.00  0.00    +0.000 C 
ENDBRANCH  14  16
BRANCH   6  20
ATOM     20  O   UNL     1       1.001  10.187  19.297  0.00  0.00    +0.000 OA
ATOM     21  C   UNL     1      -0.095  10.577  18.504  0.00  0.00    +0.000 C 
ENDBRANCH   6  20
BRANCH  11  22
ATOM     22  C   UNL     1       6.911   4.431  16.261  0.00  0.00    +0.000 C 
ATOM     23  O   UNL     1       8.000   4.219  16.766  0.00  0.00    +0.000 OA
BRANCH  22  24
ATOM     24  O   UNL     1       6.610   4.021  15.008  0.00  0.00    +0.000 OA
ATOM     25  H   UNL     1       5.702   4.267  14.697  0.00  0.00    +0.000 HD
ENDBRANCH  22  24
ENDBRANCH  11  22
BRANCH   1  26
ATOM     26  O   UNL     1      -0.169   8.872  21.808  0.00  0.00    +0.000 OA
BRANCH  26  27
ATOM     27  C   UNL     1       0.458  10.036  22.402  0.00  0.00    +0.000 C 
BRANCH  27  28
ATOM     28  C   UNL     1      -0.388  11.295  22.256  0.00  0.00    +0.000 C 
BRANCH  28  29
ATOM     29  C   UNL     1      -1.596  11.246  23.201  0.00  0.00    +0.000 C 
BRANCH  29  31
ATOM     30  C   UNL     1      -3.546  12.425  23.823  0.00  0.00    +0.000 C 
ATOM     31  O   UNL     1      -2.575  12.208  22.804  0.00  0.00    +0.000 OA
ENDBRANCH  29  31
ENDBRANCH  28  29
ENDBRANCH  27  28
ENDBRANCH  26  27
ENDBRANCH   1  26
TORSDOF 9
ENDMDL
MODEL 4
REMARK VINA RESULT:      -8.0      1.276      1.730
REMARK  Name = 
REMARK  14 active torsions:
REMARK  status: ('A' for Active; 'I' for Inactive)
REMARK    1  A    between atoms: C_1  and  O_2
REMARK    2  A    between atoms: O_2  and  C_3
REMARK    3  A    between atoms: C_3  and  C_4
REMARK    4  A    between atoms: C_4  and  C_5
REMARK    5  A    between atoms: C_5  and  O_6
REMARK    6  A    between atoms: O_6  and  C_7
REMARK    7  A    between atoms: C_12  and  O_13
REMARK    8  A    between atoms: O_13  and  C_14
REMARK    9  A    between atoms: C_19  and  C_20
REMARK   10  A    between atoms: C_20  and  O_22
REMARK   11  A    between atoms: C_25  and  C_26
REMARK   12  A    between atoms: C_26  and  C_27
REMARK   13  A    between atoms: C_26  and  C_28
REMARK   14  A    between atoms: C_26  and  C_29
REMARK                            x       y       z     vdW  Elec       q    Type
REMARK                         _______ _______ _______ _____ _____    ______ ____
ROOT
ATOM      1  C   UNL     1       0.563   8.010  21.006  0.00  0.00    +0.000 A 
ATOM      2  C   UNL     1       0.943   6.660  21.110  0.00  0.00    +0.000 A 
ATOM      3  C   UNL     1       1.953   6.079  20.313  0.00  0.00    +0.000 A 
ATOM      4  C   UNL     1       2.535   6.814  19.288  0.00  0.00    +0.000 A 
ATOM      5  C   UNL     1       2.074   8.124  19.126  0.00  0.00    +0.000 A 
ATOM      6  C   UNL     1       1.120   8.744  19.958  0.00  0.00    +0.000 A 
ATOM      7  C   UNL     1       3.631   6.217  18.470  0.00  0.00    +0.000 A 
ATOM      8  C   UNL     1       4.149   6.919  17.453  0.00  0.00    +0.000 A 
ATOM      9  C   UNL     1       5.270   6.391  16.665  0.00  0.00    +0.000 A 
ATOM     10  O   UNL     1       5.713   6.990  15.701  0.00  0.00    +0.000 OA
ATOM     11  C   UNL     1       5.897   5.137  17.124  0.00  0.00    +0.000 A 
ATOM     12  C   UNL     1       5.333   4.548  18.189  0.00  0.00    +0.000 A 
ATOM     13  N   UNL     1       4.150   4.953  18.822  0.00  0.00    +0.000 N 
ATOM     14  C   UNL     1       3.413   3.987  19.730  0.00  0.00    +0.000 C 
ATOM     15  C   UNL     1       2.396   4.697  20.661  0.00  0.00    +0.000 C 
ENDROOT
BRANCH  14  16
ATOM     16  C   UNL     1       2.749   2.766  18.940  0.00  0.00    +0.000 C 
ATOM     17  C   UNL     1       2.387   3.160  17.491  0.00  0.00    +0.000 C 
ATOM     18  C   UNL     1       3.734   1.566  18.785  0.00  0.00    +0.000 C 
ATOM     19  C   UNL     1       1.501   2.244  19.658  0.00  0.00    +0.000 C 
ENDBRANCH  14  16
BRANCH   6  20
ATOM     20  O   UNL     1       0.966  10.037  19.555  0.00  0.00    +0.000 OA
ATOM     21  C   UNL     1       0.158  10.406  18.463  0.00  0.00    +0.000 C 
ENDBRANCH   6  20
BRANCH  11  22
ATOM     22  C   UNL     1       7.035   4.507  16.414  0.00  0.00    +0.000 C 
ATOM     23  O   UNL     1       8.072   4.186  16.968  0.00  0.00    +0.000 OA
BRANCH  22  24
ATOM     24  O   UNL     1       6.823   4.275  15.099  0.00  0.00    +0.000 OA
ATOM     25  H   UNL     1       7.591   3.873  14.617  0.00  0.00    +0.000 HD
ENDBRANCH  22  24
ENDBRANCH  11  22
BRANCH   1  26
ATOM     26  O   UNL     1      -0.281   8.573  21.942  0.00  0.00    +0.000 OA
BRANCH  26  27
ATOM     27  C   UNL     1       0.314   9.705  22.625  0.00  0.00    +0.000 C 
BRANCH  27  28
ATOM     28  C   UNL     1      -0.717  10.754  23.023  0.00  0.00    +0.000 C 
BRANCH  28  29
ATOM     29  C   UNL     1      -0.817  11.847  21.951  0.00  0.00    +0.000 C 
BRANCH  29  31
ATOM     30  C   UNL     1       0.602  13.361  20.821  0.00  0.00    +0.000 C 
ATOM     31  O   UNL     1       0.275  12.760  22.070  0.00  0.00    +0.000 OA
ENDBRANCH  29  31
ENDBRANCH  28  29
ENDBRANCH  27  28
ENDBRANCH  26  27
ENDBRANCH   1  26
TORSDOF 9
ENDMDL
MODEL 5
REMARK VINA RESULT:      -7.9      1.169      1.770
REMARK  Name = 
REMARK  14 active torsions:
REMARK  status: ('A' for Active; 'I' for Inactive)
REMARK    1  A    between atoms: C_1  and  O_2
REMARK    2  A    between atoms: O_2  and  C_3
REMARK    3  A    between atoms: C_3  and  C_4
REMARK    4  A    between atoms: C_4  and  C_5
REMARK    5  A    between atoms: C_5  and  O_6
REMARK    6  A    between atoms: O_6  and  C_7
REMARK    7  A    between atoms: C_12  and  O_13
REMARK    8  A    between atoms: O_13  and  C_14
REMARK    9  A    between atoms: C_19  and  C_20
REMARK   10  A    between atoms: C_20  and  O_22
REMARK   11  A    between atoms: C_25  and  C_26
REMARK   12  A    between atoms: C_26  and  C_27
REMARK   13  A    between atoms: C_26  and  C_28
REMARK   14  A    between atoms: C_26  and  C_29
REMARK                            x       y       z     vdW  Elec       q    Type
REMARK                         _______ _______ _______ _____ _____    ______ ____
ROOT
ATOM      1  C   UNL     1       0.532   8.924  20.541  0.00  0.00    +0.000 A 
ATOM      2  C   UNL     1       0.893   7.609  20.880  0.00  0.00    +0.000 A 
ATOM      3  C   UNL     1       1.858   6.865  20.166  0.00  0.00    +0.000 A 
ATOM      4  C   UNL     1       2.407   7.382  19.000  0.00  0.00    +0.000 A 
ATOM      5  C   UNL     1       1.962   8.650  18.614  0.00  0.00    +0.000 A 
ATOM      6  C   UNL     1       1.055   9.437  19.353  0.00  0.00    +0.000 A 
ATOM      7  C   UNL     1       3.456   6.616  18.265  0.00  0.00    +0.000 A 
ATOM      8  C   UNL     1       3.942   7.105  17.115  0.00  0.00    +0.000 A 
ATOM      9  C   UNL     1       5.018   6.412  16.396  0.00  0.00    +0.000 A 
ATOM     10  O   UNL     1       5.429   6.810  15.320  0.00  0.00    +0.000 OA
ATOM     11  C   UNL     1       5.643   5.250  17.056  0.00  0.00    +0.000 A 
ATOM     12  C   UNL     1       5.116   4.883  18.233  0.00  0.00    +0.000 A 
ATOM     13  N   UNL     1       3.969   5.427  18.827  0.00  0.00    +0.000 N 
ATOM     14  C   UNL     1       3.256   4.665  19.927  0.00  0.00    +0.000 C 
ATOM     15  C   UNL     1       2.292   5.561  20.749  0.00  0.00    +0.000 C 
ENDROOT
BRANCH  14  16
ATOM     16  C   UNL     1       2.538   3.335  19.406  0.00  0.00    +0.000 C 
ATOM     17  C   UNL     1       3.538   2.166  19.280  0.00  0.00    +0.000 C 
ATOM     18  C   UNL     1       1.459   2.823  20.408  0.00  0.00    +0.000 C 
ATOM     19  C   UNL     1       1.842   3.563  18.060  0.00  0.00    +0.000 C 
ENDBRANCH  14  16
BRANCH   6  20
ATOM     20  O   UNL     1       0.905  10.636  18.722  0.00  0.00    +0.000 OA
ATOM     21  C   UNL     1      -0.352  11.168  18.380  0.00  0.00    +0.000 C 
ENDBRANCH   6  20
BRANCH  11  22
ATOM     22  C   UNL     1       6.739   4.471  16.431  0.00  0.00    +0.000 C 
ATOM     23  O   UNL     1       7.850   4.372  16.921  0.00  0.00    +0.000 OA
BRANCH  22  24
ATOM     24  O   UNL     1       6.401   3.837  15.285  0.00  0.00    +0.000 OA
ATOM     25  H   UNL     1       6.963   4.066  14.502  0.00  0.00    +0.000 HD
ENDBRANCH  22  24
ENDBRANCH  11  22
BRANCH   1  26
ATOM     26  O   UNL     1      -0.261   9.672  21.388  0.00  0.00    +0.000 OA
BRANCH  26  27
ATOM     27  C   UNL     1       0.449  10.788  21.981  0.00  0.00    +0.000 C 
BRANCH  27  28
ATOM     28  C   UNL     1      -0.358  12.080  21.945  0.00  0.00    +0.000 C 
BRANCH  28  29
ATOM     29  C   UNL     1       0.521  13.252  21.491  0.00  0.00    +0.000 C 
BRANCH  29  31
ATOM     30  C   UNL     1       2.368  13.490  20.037  0.00  0.00    +0.000 C 
ATOM     31  O   UNL     1       1.830  12.789  21.154  0.00  0.00    +0.000 OA
ENDBRANCH  29  31
ENDBRANCH  28  29
ENDBRANCH  27  28
ENDBRANCH  26  27
ENDBRANCH   1  26
TORSDOF 9
ENDMDL
MODEL 6
REMARK VINA RESULT:      -7.8      1.210      1.556
REMARK  Name = 
REMARK  14 active torsions:
REMARK  status: ('A' for Active; 'I' for Inactive)
REMARK    1  A    between atoms: C_1  and  O_2
REMARK    2  A    between atoms: O_2  and  C_3
REMARK    3  A    between atoms: C_3  and  C_4
REMARK    4  A    between atoms: C_4  and  C_5
REMARK    5  A    between atoms: C_5  and  O_6
REMARK    6  A    between atoms: O_6  and  C_7
REMARK    7  A    between atoms: C_12  and  O_13
REMARK    8  A    between atoms: O_13  and  C_14
REMARK    9  A    between atoms: C_19  and  C_20
REMARK   10  A    between atoms: C_20  and  O_22
REMARK   11  A    between atoms: C_25  and  C_26
REMARK   12  A    between atoms: C_26  and  C_27
REMARK   13  A    between atoms: C_26  and  C_28
REMARK   14  A    between atoms: C_26  and  C_29
REMARK                            x       y       z     vdW  Elec       q    Type
REMARK                         _______ _______ _______ _____ _____    ______ ____
ROOT
ATOM      1  C   UNL     1       0.624   8.499  20.826  0.00  0.00    +0.000 A 
ATOM      2  C   UNL     1       1.012   7.166  21.052  0.00  0.00    +0.000 A 
ATOM      3  C   UNL     1       1.968   6.496  20.257  0.00  0.00    +0.000 A 
ATOM      4  C   UNL     1       2.480   7.112  19.122  0.00  0.00    +0.000 A 
ATOM      5  C   UNL     1       2.007   8.399  18.849  0.00  0.00    +0.000 A 
ATOM      6  C   UNL     1       1.109   9.111  19.670  0.00  0.00    +0.000 A 
ATOM      7  C   UNL     1       3.520   6.424  18.304  0.00  0.00    +0.000 A 
ATOM      8  C   UNL     1       3.969   7.009  17.184  0.00  0.00    +0.000 A 
ATOM      9  C   UNL     1       5.036   6.392  16.387  0.00  0.00    +0.000 A 
ATOM     10  O   UNL     1       5.413   6.880  15.335  0.00  0.00    +0.000 OA
ATOM     11  C   UNL     1       5.694   5.192  16.937  0.00  0.00    +0.000 A 
ATOM     12  C   UNL     1       5.203   4.725  18.095  0.00  0.00    +0.000 A 
ATOM     13  N   UNL     1       4.064   5.203  18.757  0.00  0.00    +0.000 N 
ATOM     14  C   UNL     1       3.391   4.345  19.811  0.00  0.00    +0.000 C 
ATOM     15  C   UNL     1       2.436   5.158  20.724  0.00  0.00    +0.000 C 
ENDROOT
BRANCH  14  16
ATOM     16  C   UNL     1       2.678   3.049  19.204  0.00  0.00    +0.000 C 
ATOM     17  C   UNL     1       1.532   2.557  20.113  0.00  0.00    +0.000 C 
ATOM     18  C   UNL     1       1.994   3.346  17.835  0.00  0.00    +0.000 C 
ATOM     19  C   UNL     1       3.679   1.912  18.978  0.00  0.00    +0.000 C 
ENDBRANCH  14  16
BRANCH   6  20
ATOM     20  O   UNL     1       0.926  10.353  19.139  0.00  0.00    +0.000 OA
ATOM     21  C   UNL     1      -0.247  10.728  18.457  0.00  0.00    +0.000 C 
ENDBRANCH   6  20
BRANCH  11  22
ATOM     22  C   UNL     1       6.784   4.482  16.226  0.00  0.00    +0.000 C 
ATOM     23  O   UNL     1       7.917   4.388  16.666  0.00  0.00    +0.000 OA
BRANCH  22  24
ATOM     24  O   UNL     1       6.417   3.905  15.060  0.00  0.00    +0.000 OA
ATOM     25  H   UNL     1       5.633   3.303  15.121  0.00  0.00    +0.000 HD
ENDBRANCH  22  24
ENDBRANCH  11  22
BRANCH   1  26
ATOM     26  O   UNL     1      -0.158   9.165  21.749  0.00  0.00    +0.000 OA
BRANCH  26  27
ATOM     27  C   UNL     1       0.398  10.447  22.133  0.00  0.00    +0.000 C 
BRANCH  27  28
ATOM     28  C   UNL     1      -0.650  11.552  22.169  0.00  0.00    +0.000 C 
BRANCH  28  29
ATOM     29  C   UNL     1      -0.089  12.848  21.572  0.00  0.00    +0.000 C 
BRANCH  29  31
ATOM     30  C   UNL     1      -0.290  15.027  22.465  0.00  0.00    +0.000 C 
ATOM     31  O   UNL     1       0.307  13.742  22.614  0.00  0.00    +0.000 OA
ENDBRANCH  29  31
ENDBRANCH  28  29
ENDBRANCH  27  28
ENDBRANCH  26  27
ENDBRANCH   1  26
TORSDOF 9
ENDMDL
MODEL 7
REMARK VINA RESULT:      -7.7      1.108      1.470
REMARK  Name = 
REMARK  14 active torsions:
REMARK  status: ('A' for Active; 'I' for Inactive)
REMARK    1  A    between atoms: C_1  and  O_2
REMARK    2  A    between atoms: O_2  and  C_3
REMARK    3  A    between atoms: C_3  and  C_4
REMARK    4  A    between atoms: C_4  and  C_5
REMARK    5  A    between atoms: C_5  and  O_6
REMARK    6  A    between atoms: O_6  and  C_7
REMARK    7  A    between atoms: C_12  and  O_13
REMARK    8  A    between atoms: O_13  and  C_14
REMARK    9  A    between atoms: C_19  and  C_20
REMARK   10  A    between atoms: C_20  and  O_22
REMARK   11  A    between atoms: C_25  and  C_26
REMARK   12  A    between atoms: C_26  and  C_27
REMARK   13  A    between atoms: C_26  and  C_28
REMARK   14  A    between atoms: C_26  and  C_29
REMARK                            x       y       z     vdW  Elec       q    Type
REMARK                         _______ _______ _______ _____ _____    ______ ____
ROOT
ATOM      1  C   UNL     1       0.649   9.130  20.390  0.00  0.00    +0.000 A 
ATOM      2  C   UNL     1       0.954   7.807  20.754  0.00  0.00    +0.000 A 
ATOM      3  C   UNL     1       1.883   7.008  20.051  0.00  0.00    +0.000 A 
ATOM      4  C   UNL     1       2.449   7.479  18.873  0.00  0.00    +0.000 A 
ATOM      5  C   UNL     1       2.057   8.757  18.464  0.00  0.00    +0.000 A 
ATOM      6  C   UNL     1       1.188   9.596  19.190  0.00  0.00    +0.000 A 
ATOM      7  C   UNL     1       3.461   6.655  18.149  0.00  0.00    +0.000 A 
ATOM      8  C   UNL     1       3.962   7.099  16.988  0.00  0.00    +0.000 A 
ATOM      9  C   UNL     1       5.004   6.347  16.279  0.00  0.00    +0.000 A 
ATOM     10  O   UNL     1       5.427   6.707  15.194  0.00  0.00    +0.000 OA
ATOM     11  C   UNL     1       5.582   5.173  16.959  0.00  0.00    +0.000 A 
ATOM     12  C   UNL     1       5.045   4.852  18.145  0.00  0.00    +0.000 A 
ATOM     13  N   UNL     1       3.925   5.456  18.732  0.00  0.00    +0.000 N 
ATOM     14  C   UNL     1       3.185   4.747  19.849  0.00  0.00    +0.000 C 
ATOM     15  C   UNL     1       2.264   5.698  20.657  0.00  0.00    +0.000 C 
ENDROOT
BRANCH  14  16
ATOM     16  C   UNL     1       2.408   3.439  19.357  0.00  0.00    +0.000 C 
ATOM     17  C   UNL     1       3.345   2.213  19.300  0.00  0.00    +0.000 C 
ATOM     18  C   UNL     1       1.278   3.023  20.348  0.00  0.00    +0.000 C 
ATOM     19  C   UNL     1       1.760   3.653  17.986  0.00  0.00    +0.000 C 
ENDBRANCH  14  16
BRANCH   6  20
ATOM     20  O   UNL     1       1.087  10.788  18.536  0.00  0.00    +0.000 OA
ATOM     21  C   UNL     1       2.198  11.608  18.266  0.00  0.00    +0.000 C 
ENDBRANCH   6  20
BRANCH  11  22
ATOM     22  C   UNL     1       6.640   4.335  16.346  0.00  0.00    +0.000 C 
ATOM     23  O   UNL     1       6.441   3.596  15.398  0.00  0.00    +0.000 OA
BRANCH  22  24
ATOM     24  O   UNL     1       7.867   4.482  16.895  0.00  0.00    +0.000 OA
ATOM     25  H   UNL     1       8.489   3.726  16.735  0.00  0.00    +0.000 HD
ENDBRANCH  22  24
ENDBRANCH  11  22
BRANCH   1  26
ATOM     26  O   UNL     1      -0.108   9.927  21.225  0.00  0.00    +0.000 OA
BRANCH  26  27
ATOM     27  C   UNL     1       0.603  11.110  21.667  0.00  0.00    +0.000 C 
BRANCH  27  28
ATOM     28  C   UNL     1      -0.220  12.382  21.505  0.00  0.00    +0.000 C 
BRANCH  28  29
ATOM     29  C   UNL     1      -1.511  12.094  20.730  0.00  0.00    +0.000 C 
BRANCH  29  31
ATOM     30  C   UNL     1      -0.626  13.874  19.453  0.00  0.00    +0.000 C 
ATOM     31  O   UNL     1      -1.474  12.730  19.451  0.00  0.00    +0.000 OA
ENDBRANCH  29  31
ENDBRANCH  28  29
ENDBRANCH  27  28
ENDBRANCH  26  27
ENDBRANCH   1  26
TORSDOF 9
ENDMDL
MODEL 8
REMARK VINA RESULT:      -7.7      1.435      2.004
REMARK  Name = 
REMARK  14 active torsions:
REMARK  status: ('A' for Active; 'I' for Inactive)
REMARK    1  A    between atoms: C_1  and  O_2
REMARK    2  A    between atoms: O_2  and  C_3
REMARK    3  A    between atoms: C_3  and  C_4
REMARK    4  A    between atoms: C_4  and  C_5
REMARK    5  A    between atoms: C_5  and  O_6
REMARK    6  A    between atoms: O_6  and  C_7
REMARK    7  A    between atoms: C_12  and  O_13
REMARK    8  A    between atoms: O_13  and  C_14
REMARK    9  A    between atoms: C_19  and  C_20
REMARK   10  A    between atoms: C_20  and  O_22
REMARK   11  A    between atoms: C_25  and  C_26
REMARK   12  A    between atoms: C_26  and  C_27
REMARK   13  A    between atoms: C_26  and  C_28
REMARK   14  A    between atoms: C_26  and  C_29
REMARK                            x       y       z     vdW  Elec       q    Type
REMARK                         _______ _______ _______ _____ _____    ______ ____
ROOT
ATOM      1  C   UNL     1       0.937   9.520  20.068  0.00  0.00    +0.000 A 
ATOM      2  C   UNL     1       1.151   8.199  20.499  0.00  0.00    +0.000 A 
ATOM      3  C   UNL     1       2.020   7.304  19.838  0.00  0.00    +0.000 A 
ATOM      4  C   UNL     1       2.613   7.673  18.638  0.00  0.00    +0.000 A 
ATOM      5  C   UNL     1       2.310   8.953  18.165  0.00  0.00    +0.000 A 
ATOM      6  C   UNL     1       1.503   9.887  18.847  0.00  0.00    +0.000 A 
ATOM      7  C   UNL     1       3.563   6.746  17.958  0.00  0.00    +0.000 A 
ATOM      8  C   UNL     1       4.091   7.095  16.776  0.00  0.00    +0.000 A 
ATOM      9  C   UNL     1       5.076   6.237  16.107  0.00  0.00    +0.000 A 
ATOM     10  O   UNL     1       5.520   6.511  15.005  0.00  0.00    +0.000 OA
ATOM     11  C   UNL     1       5.573   5.061  16.846  0.00  0.00    +0.000 A 
ATOM     12  C   UNL     1       5.019   4.839  18.046  0.00  0.00    +0.000 A 
ATOM     13  N   UNL     1       3.945   5.548  18.601  0.00  0.00    +0.000 N 
ATOM     14  C   UNL     1       3.161   4.950  19.752  0.00  0.00    +0.000 C 
ATOM     15  C   UNL     1       2.310   6.003  20.510  0.00  0.00    +0.000 C 
ENDROOT
BRANCH  14  16
ATOM     16  C   UNL     1       2.294   3.676  19.326  0.00  0.00    +0.000 C 
ATOM     17  C   UNL     1       3.149   2.391  19.309  0.00  0.00    +0.000 C 
ATOM     18  C   UNL     1       1.155   3.376  20.349  0.00  0.00    +0.000 C 
ATOM     19  C   UNL     1       1.638   3.875  17.956  0.00  0.00    +0.000 C 
ENDBRANCH  14  16
BRANCH   6  20
ATOM     20  O   UNL     1       1.483  11.048  18.133  0.00  0.00    +0.000 OA
ATOM     21  C   UNL     1       2.127  12.222  18.566  0.00  0.00    +0.000 C 
ENDBRANCH   6  20
BRANCH  11  22
ATOM     22  C   UNL     1       6.569   4.122  16.276  0.00  0.00    +0.000 C 
ATOM     23  O   UNL     1       6.341   3.411  15.313  0.00  0.00    +0.000 OA
BRANCH  22  24
ATOM     24  O   UNL     1       7.776   4.139  16.886  0.00  0.00    +0.000 OA
ATOM     25  H   UNL     1       7.750   4.338  17.857  0.00  0.00    +0.000 HD
ENDBRANCH  22  24
ENDBRANCH  11  22
BRANCH   1  26
ATOM     26  O   UNL     1       0.240  10.409  20.862  0.00  0.00    +0.000 OA
BRANCH  26  27
ATOM     27  C   UNL     1      -1.115  10.632  20.398  0.00  0.00    +0.000 C 
BRANCH  27  28
ATOM     28  C   UNL     1      -1.357  12.074  19.968  0.00  0.00    +0.000 C 
BRANCH  28  29
ATOM     29  C   UNL     1      -2.222  12.123  18.703  0.00  0.00    +0.000 C 
BRANCH  29  31
ATOM     30  C   UNL     1      -2.801  10.561  17.027  0.00  0.00    +0.000 C 
ATOM     31  O   UNL     1      -1.737  11.191  17.735  0.00  0.00    +0.000 OA
ENDBRANCH  29  31
ENDBRANCH  28  29
ENDBRANCH  27  28
ENDBRANCH  26  27
ENDBRANCH   1  26
TORSDOF 9
ENDMDL
MODEL 9
REMARK VINA RESULT:      -7.7      0.906      1.291
REMARK  Name = 
REMARK  14 active torsions:
REMARK  status: ('A' for Active; 'I' for Inactive)
REMARK    1  A    between atoms: C_1  and  O_2
REMARK    2  A    between atoms: O_2  and  C_3
REMARK    3  A    between atoms: C_3  and  C_4
REMARK    4  A    between atoms: C_4  and  C_5
REMARK    5  A    between atoms: C_5  and  O_6
REMARK    6  A    between atoms: O_6  and  C_7
REMARK    7  A    between atoms: C_12  and  O_13
REMARK    8  A    between atoms: O_13  and  C_14
REMARK    9  A    between atoms: C_19  and  C_20
REMARK   10  A    between atoms: C_20  and  O_22
REMARK   11  A    between atoms: C_25  and  C_26
REMARK   12  A    between atoms: C_26  and  C_27
REMARK   13  A    between atoms: C_26  and  C_28
REMARK   14  A    between atoms: C_26  and  C_29
REMARK                            x       y       z     vdW  Elec       q    Type
REMARK                         _______ _______ _______ _____ _____    ______ ____
ROOT
ATOM      1  C   UNL     1       0.782   9.427  20.176  0.00  0.00    +0.000 A 
ATOM      2  C   UNL     1       1.036   8.113  20.605  0.00  0.00    +0.000 A 
ATOM      3  C   UNL     1       1.936   7.247  19.945  0.00  0.00    +0.000 A 
ATOM      4  C   UNL     1       2.522   7.638  18.749  0.00  0.00    +0.000 A 
ATOM      5  C   UNL     1       2.180   8.909  18.277  0.00  0.00    +0.000 A 
ATOM      6  C   UNL     1       1.341   9.815  18.958  0.00  0.00    +0.000 A 
ATOM      7  C   UNL     1       3.505   6.743  18.071  0.00  0.00    +0.000 A 
ATOM      8  C   UNL     1       4.026   7.111  16.892  0.00  0.00    +0.000 A 
ATOM      9  C   UNL     1       5.041   6.287  16.225  0.00  0.00    +0.000 A 
ATOM     10  O   UNL     1       5.480   6.577  15.126  0.00  0.00    +0.000 OA
ATOM     11  C   UNL     1       5.572   5.126  16.964  0.00  0.00    +0.000 A 
ATOM     12  C   UNL     1       5.020   4.883  18.162  0.00  0.00    +0.000 A 
ATOM     13  N   UNL     1       3.921   5.557  18.713  0.00  0.00    +0.000 N 
ATOM     14  C   UNL     1       3.151   4.931  19.860  0.00  0.00    +0.000 C 
ATOM     15  C   UNL     1       2.265   5.954  20.616  0.00  0.00    +0.000 C 
ENDROOT
BRANCH  14  16
ATOM     16  C   UNL     1       2.328   3.631  19.427  0.00  0.00    +0.000 C 
ATOM     17  C   UNL     1       1.112   3.399  20.350  0.00  0.00    +0.000 C 
ATOM     18  C   UNL     1       1.714   3.776  18.000  0.00  0.00    +0.000 C 
ATOM     19  C   UNL     1       3.213   2.381  19.419  0.00  0.00    +0.000 C 
ENDBRANCH  14  16
BRANCH   6  20
ATOM     20  O   UNL     1       1.287  10.976  18.247  0.00  0.00    +0.000 OA
ATOM     21  C   UNL     1       2.218  12.019  18.413  0.00  0.00    +0.000 C 
ENDBRANCH   6  20
BRANCH  11  22
ATOM     22  C   UNL     1       6.600   4.221  16.397  0.00  0.00    +0.000 C 
ATOM     23  O   UNL     1       7.795   4.368  16.585  0.00  0.00    +0.000 OA
BRANCH  22  24
ATOM     24  O   UNL     1       6.108   3.184  15.681  0.00  0.00    +0.000 OA
ATOM     25  H   UNL     1       5.891   3.396  14.737  0.00  0.00    +0.000 HD
ENDBRANCH  22  24
ENDBRANCH  11  22
BRANCH   1  26
ATOM     26  O   UNL     1       0.053  10.292  20.968  0.00  0.00    +0.000 OA
BRANCH  26  27
ATOM     27  C   UNL     1      -1.112  10.826  20.291  0.00  0.00    +0.000 C 
BRANCH  27  28
ATOM     28  C   UNL     1      -1.236  12.337  20.445  0.00  0.00    +0.000 C 
BRANCH  28  29
ATOM     29  C   UNL     1      -2.697  12.777  20.291  0.00  0.00    +0.000 C 
BRANCH  29  31
ATOM     30  C   UNL     1      -3.509  12.663  22.507  0.00  0.00    +0.000 C 
ATOM     31  O   UNL     1      -3.115  13.518  21.438  0.00  0.00    +0.000 OA
ENDBRANCH  29  31
ENDBRANCH  28  29
ENDBRANCH  27  28
ENDBRANCH  26  27
ENDBRANCH   1  26
TORSDOF 9
ENDMDL
