MODEL 1
REMARK VINA RESULT:      -7.3      0.000      0.000
REMARK  Name = 
REMARK  5 active torsions:
REMARK  status: ('A' for Active; 'I' for Inactive)
REMARK    1  A    between atoms: C_1  and  N_2
REMARK    2  A    between atoms: N_2  and  C_18
REMARK    3  A    between atoms: C_3  and  C_5
REMARK    4  A    between atoms: C_8  and  C_9
REMARK    5  A    between atoms: C_9  and  N_10
REMARK                            x       y       z     vdW  Elec       q    Type
REMARK                         _______ _______ _______ _____ _____    ______ ____
ROOT
ATOM      1  C   UNL     1       1.461   8.619  19.394  0.00  0.00    +0.000 A 
ATOM      2  C   UNL     1       2.003   8.788  18.098  0.00  0.00    +0.000 A 
ATOM      3  C   UNL     1       2.893   7.835  17.558  0.00  0.00    +0.000 A 
ATOM      4  C   UNL     1       3.282   6.702  18.299  0.00  0.00    +0.000 A 
ATOM      5  C   UNL     1       2.750   6.547  19.586  0.00  0.00    +0.000 A 
ATOM      6  C   UNL     1       1.872   7.485  20.121  0.00  0.00    +0.000 A 
ENDROOT
BRANCH   1   9
ATOM      7  C   UNL     1       1.324  11.749  19.127  0.00  0.00    +0.000 C 
ATOM      8  N   UNL     1       0.501  10.945  20.020  0.00  0.00    +0.000 N 
ATOM      9  C   UNL     1       0.506   9.566  20.088  0.00  0.00    +0.000 C 
ATOM     10  O   UNL     1      -0.372   9.032  20.757  0.00  0.00    +0.000 OA
BRANCH   8  11
ATOM     11  C   UNL     1      -0.476  11.661  20.778  0.00  0.00    +0.000 A 
ATOM     12  C   UNL     1      -0.324  11.807  22.165  0.00  0.00    +0.000 A 
ATOM     13  C   UNL     1      -1.298  12.475  22.914  0.00  0.00    +0.000 A 
ATOM     14  C   UNL     1      -2.433  12.999  22.282  0.00  0.00    +0.000 A 
ATOM     15  I   UNL     1      -3.905  14.001  23.413  0.00  0.00    +0.000 I 
ATOM     16  C   UNL     1      -2.590  12.854  20.899  0.00  0.00    +0.000 A 
ATOM     17  C   UNL     1      -1.617  12.186  20.148  0.00  0.00    +0.000 A 
ENDBRANCH   8  11
ENDBRANCH   1   9
BRANCH   4  18
ATOM     18  C   UNL     1       4.184   5.596  17.749  0.00  0.00    +0.000 C 
BRANCH  18  19
ATOM     19  N   UNL     1       5.485   5.985  17.153  0.00  0.00    +0.000 NA
ATOM     20  C   UNL     1       5.770   5.688  15.744  0.00  0.00    +0.000 C 
ATOM     21  C   UNL     1       6.623   4.418  15.642  0.00  0.00    +0.000 C 
ATOM     22  O   UNL     1       7.820   4.554  16.393  0.00  0.00    +0.000 OA
ATOM     23  C   UNL     1       7.525   4.739  17.768  0.00  0.00    +0.000 C 
ATOM     24  C   UNL     1       6.693   6.007  17.987  0.00  0.00    +0.000 C 
ENDBRANCH  18  19
ENDBRANCH   4  18
TORSDOF 4
ENDMDL
MODEL 2
REMARK VINA RESULT:      -7.2      0.963      1.859
REMARK  Name = 
REMARK  5 active torsions:
REMARK  status: ('A' for Active; 'I' for Inactive)
REMARK    1  A    between atoms: C_1  and  N_2
REMARK    2  A    between atoms: N_2  and  C_18
REMARK    3  A    between atoms: C_3  and  C_5
REMARK    4  A    between atoms: C_8  and  C_9
REMARK    5  A    between atoms: C_9  and  N_10
REMARK                            x       y       z     vdW  Elec       q    Type
REMARK                         _______ _______ _______ _____ _____    ______ ____
ROOT
ATOM      1  C   UNL     1       1.722   8.618  19.396  0.00  0.00    +0.000 A 
ATOM      2  C   UNL     1       1.958   7.416  20.103  0.00  0.00    +0.000 A 
ATOM      3  C   UNL     1       2.716   6.375  19.524  0.00  0.00    +0.000 A 
ATOM      4  C   UNL     1       3.242   6.496  18.223  0.00  0.00    +0.000 A 
ATOM      5  C   UNL     1       2.994   7.686  17.524  0.00  0.00    +0.000 A 
ATOM      6  C   UNL     1       2.246   8.713  18.092  0.00  0.00    +0.000 A 
ENDROOT
BRANCH   1   9
ATOM      7  C   UNL     1      -0.494   8.635  21.627  0.00  0.00    +0.000 C 
ATOM      8  N   UNL     1      -0.099   9.786  20.827  0.00  0.00    +0.000 N 
ATOM      9  C   UNL     1       0.923   9.802  19.898  0.00  0.00    +0.000 C 
ATOM     10  O   UNL     1       1.252  10.891  19.442  0.00  0.00    +0.000 OA
BRANCH   8  11
ATOM     11  C   UNL     1      -0.748  11.017  21.147  0.00  0.00    +0.000 A 
ATOM     12  C   UNL     1      -1.472  11.710  20.164  0.00  0.00    +0.000 A 
ATOM     13  C   UNL     1      -2.076  12.934  20.466  0.00  0.00    +0.000 A 
ATOM     14  C   UNL     1      -1.958  13.477  21.751  0.00  0.00    +0.000 A 
ATOM     15  I   UNL     1      -2.866  15.328  22.204  0.00  0.00    +0.000 I 
ATOM     16  C   UNL     1      -1.237  12.792  22.735  0.00  0.00    +0.000 A 
ATOM     17  C   UNL     1      -0.632  11.567  22.435  0.00  0.00    +0.000 A 
ENDBRANCH   8  11
ENDBRANCH   1   9
BRANCH   4  18
ATOM     18  C   UNL     1       4.131   5.440  17.564  0.00  0.00    +0.000 C 
BRANCH  18  19
ATOM     19  N   UNL     1       5.429   5.874  16.993  0.00  0.00    +0.000 NA
ATOM     20  C   UNL     1       5.743   5.607  15.585  0.00  0.00    +0.000 C 
ATOM     21  C   UNL     1       6.632   4.363  15.477  0.00  0.00    +0.000 C 
ATOM     22  O   UNL     1       7.814   4.520  16.247  0.00  0.00    +0.000 OA
ATOM     23  C   UNL     1       7.494   4.675  17.620  0.00  0.00    +0.000 C 
ATOM     24  C   UNL     1       6.624   5.917  17.846  0.00  0.00    +0.000 C 
ENDBRANCH  18  19
ENDBRANCH   4  18
TORSDOF 4
ENDMDL
MODEL 3
REMARK VINA RESULT:      -7.2      1.069      1.657
REMARK  Name = 
REMARK  5 active torsions:
REMARK  status: ('A' for Active; 'I' for Inactive)
REMARK    1  A    between atoms: C_1  and  N_2
REMARK    2  A    between atoms: N_2  and  C_18
REMARK    3  A    between atoms: C_3  and  C_5
REMARK    4  A    between atoms: C_8  and  C_9
REMARK    5  A    between atoms: C_9  and  N_10
REMARK                            x       y       z     vdW  Elec       q    Type
REMARK                         _______ _______ _______ _____ _____    ______ ____
ROOT
ATOM      1  C   UNL     1       1.628   8.282  19.640  0.00  0.00    +0.000 A 
ATOM      2  C   UNL     1       1.863   7.015  20.222  0.00  0.00    +0.000 A 
ATOM      3  C   UNL     1       2.632   6.042  19.548  0.00  0.00    +0.000 A 
ATOM      4  C   UNL     1       3.169   6.298  18.270  0.00  0.00    +0.000 A 
ATOM      5  C   UNL     1       2.921   7.552  17.695  0.00  0.00    +0.000 A 
ATOM      6  C   UNL     1       2.163   8.512  18.358  0.00  0.00    +0.000 A 
ENDROOT
BRANCH   1   9
ATOM      7  C   UNL     1       1.719   9.320  22.607  0.00  0.00    +0.000 C 
ATOM      8  N   UNL     1       0.812   9.805  21.575  0.00  0.00    +0.000 N 
ATOM      9  C   UNL     1       0.818   9.405  20.254  0.00  0.00    +0.000 C 
ATOM     10  O   UNL     1       0.117  10.037  19.471  0.00  0.00    +0.000 OA
BRANCH   8  11
ATOM     11  C   UNL     1      -0.050  10.877  21.959  0.00  0.00    +0.000 A 
ATOM     12  C   UNL     1      -1.119  10.643  22.837  0.00  0.00    +0.000 A 
ATOM     13  C   UNL     1      -1.986  11.684  23.184  0.00  0.00    +0.000 A 
ATOM     14  C   UNL     1      -1.793  12.965  22.652  0.00  0.00    +0.000 A 
ATOM     15  I   UNL     1      -3.106  14.533  23.171  0.00  0.00    +0.000 I 
ATOM     16  C   UNL     1      -0.730  13.204  21.775  0.00  0.00    +0.000 A 
ATOM     17  C   UNL     1       0.139  12.164  21.426  0.00  0.00    +0.000 A 
ENDBRANCH   8  11
ENDBRANCH   1   9
BRANCH   4  18
ATOM     18  C   UNL     1       4.069   5.319  17.515  0.00  0.00    +0.000 C 
BRANCH  18  19
ATOM     19  N   UNL     1       5.369   5.815  17.002  0.00  0.00    +0.000 NA
ATOM     20  C   UNL     1       5.746   5.587  15.602  0.00  0.00    +0.000 C 
ATOM     21  C   UNL     1       6.688   4.382  15.506  0.00  0.00    +0.000 C 
ATOM     22  O   UNL     1       7.833   4.571  16.325  0.00  0.00    +0.000 OA
ATOM     23  C   UNL     1       7.455   4.687  17.686  0.00  0.00    +0.000 C 
ATOM     24  C   UNL     1       6.528   5.888  17.901  0.00  0.00    +0.000 C 
ENDBRANCH  18  19
ENDBRANCH   4  18
TORSDOF 4
ENDMDL
MODEL 4
REMARK VINA RESULT:      -7.2      0.202      1.009
REMARK  Name = 
REMARK  5 active torsions:
REMARK  status: ('A' for Active; 'I' for Inactive)
REMARK    1  A    between atoms: C_1  and  N_2
REMARK    2  A    between atoms: N_2  and  C_18
REMARK    3  A    between atoms: C_3  and  C_5
REMARK    4  A    between atoms: C_8  and  C_9
REMARK    5  A    between atoms: C_9  and  N_10
REMARK                            x       y       z     vdW  Elec       q    Type
REMARK                         _______ _______ _______ _____ _____    ______ ____
ROOT
ATOM      1  C   UNL     1       1.467   8.707  19.334  0.00  0.00    +0.000 A 
ATOM      2  C   UNL     1       2.016   8.845  18.038  0.00  0.00    +0.000 A 
ATOM      3  C   UNL     1       2.901   7.875  17.521  0.00  0.00    +0.000 A 
ATOM      4  C   UNL     1       3.278   6.754  18.288  0.00  0.00    +0.000 A 
ATOM      5  C   UNL     1       2.738   6.630  19.575  0.00  0.00    +0.000 A 
ATOM      6  C   UNL     1       1.866   7.586  20.087  0.00  0.00    +0.000 A 
ENDROOT
BRANCH   1   9
ATOM      7  C   UNL     1       1.402  11.839  19.057  0.00  0.00    +0.000 C 
ATOM      8  N   UNL     1       0.542  11.055  19.933  0.00  0.00    +0.000 N 
ATOM      9  C   UNL     1       0.516   9.676  20.004  0.00  0.00    +0.000 C 
ATOM     10  O   UNL     1      -0.388   9.163  20.653  0.00  0.00    +0.000 OA
BRANCH   8  11
ATOM     11  C   UNL     1      -0.436  11.793  20.667  0.00  0.00    +0.000 A 
ATOM     12  C   UNL     1      -1.580  12.287  20.020  0.00  0.00    +0.000 A 
ATOM     13  C   UNL     1      -2.519  13.041  20.728  0.00  0.00    +0.000 A 
ATOM     14  C   UNL     1      -2.322  13.311  22.088  0.00  0.00    +0.000 A 
ATOM     15  I   UNL     1      -3.738  14.455  23.156  0.00  0.00    +0.000 I 
ATOM     16  C   UNL     1      -1.183  12.823  22.738  0.00  0.00    +0.000 A 
ATOM     17  C   UNL     1      -0.241  12.068  22.031  0.00  0.00    +0.000 A 
ENDBRANCH   8  11
ENDBRANCH   1   9
BRANCH   4  18
ATOM     18  C   UNL     1       4.174   5.630  17.765  0.00  0.00    +0.000 C 
BRANCH  18  19
ATOM     19  N   UNL     1       5.471   5.997  17.148  0.00  0.00    +0.000 NA
ATOM     20  C   UNL     1       5.748   5.651  15.749  0.00  0.00    +0.000 C 
ATOM     21  C   UNL     1       6.601   4.378  15.688  0.00  0.00    +0.000 C 
ATOM     22  O   UNL     1       7.802   4.540  16.427  0.00  0.00    +0.000 OA
ATOM     23  C   UNL     1       7.515   4.773  17.795  0.00  0.00    +0.000 C 
ATOM     24  C   UNL     1       6.684   6.048  17.974  0.00  0.00    +0.000 C 
ENDBRANCH  18  19
ENDBRANCH   4  18
TORSDOF 4
ENDMDL
MODEL 5
REMARK VINA RESULT:      -7.2      1.234      1.597
REMARK  Name = 
REMARK  5 active torsions:
REMARK  status: ('A' for Active; 'I' for Inactive)
REMARK    1  A    between atoms: C_1  and  N_2
REMARK    2  A    between atoms: N_2  and  C_18
REMARK    3  A    between atoms: C_3  and  C_5
REMARK    4  A    between atoms: C_8  and  C_9
REMARK    5  A    between atoms: C_9  and  N_10
REMARK                            x       y       z     vdW  Elec       q    Type
REMARK                         _______ _______ _______ _____ _____    ______ ____
ROOT
ATOM      1  C   UNL     1       1.718   8.348  20.031  0.00  0.00    +0.000 A 
ATOM      2  C   UNL     1       1.797   6.993  20.431  0.00  0.00    +0.000 A 
ATOM      3  C   UNL     1       2.403   6.029  19.598  0.00  0.00    +0.000 A 
ATOM      4  C   UNL     1       2.927   6.382  18.339  0.00  0.00    +0.000 A 
ATOM      5  C   UNL     1       2.834   7.724  17.944  0.00  0.00    +0.000 A 
ATOM      6  C   UNL     1       2.237   8.677  18.764  0.00  0.00    +0.000 A 
ENDROOT
BRANCH   1   9
ATOM      7  C   UNL     1      -0.642  10.234  19.159  0.00  0.00    +0.000 C 
ATOM      8  N   UNL     1       0.104  10.343  20.406  0.00  0.00    +0.000 N 
ATOM      9  C   UNL     1       1.091   9.473  20.826  0.00  0.00    +0.000 C 
ATOM     10  O   UNL     1       1.494   9.594  21.977  0.00  0.00    +0.000 OA
BRANCH   8  11
ATOM     11  C   UNL     1      -0.336  11.361  21.306  0.00  0.00    +0.000 A 
ATOM     12  C   UNL     1      -1.291  11.068  22.291  0.00  0.00    +0.000 A 
ATOM     13  C   UNL     1      -1.749  12.072  23.149  0.00  0.00    +0.000 A 
ATOM     14  C   UNL     1      -1.258  13.378  23.026  0.00  0.00    +0.000 A 
ATOM     15  I   UNL     1      -1.956  14.895  24.318  0.00  0.00    +0.000 I 
ATOM     16  C   UNL     1      -0.307  13.677  22.045  0.00  0.00    +0.000 A 
ATOM     17  C   UNL     1       0.153  12.673  21.186  0.00  0.00    +0.000 A 
ENDBRANCH   8  11
ENDBRANCH   1   9
BRANCH   4  18
ATOM     18  C   UNL     1       3.659   5.405  17.418  0.00  0.00    +0.000 C 
BRANCH  18  19
ATOM     19  N   UNL     1       4.969   5.817  16.858  0.00  0.00    +0.000 NA
ATOM     20  C   UNL     1       5.400   5.321  15.546  0.00  0.00    +0.000 C 
ATOM     21  C   UNL     1       6.364   4.142  15.726  0.00  0.00    +0.000 C 
ATOM     22  O   UNL     1       7.475   4.518  16.526  0.00  0.00    +0.000 OA
ATOM     23  C   UNL     1       7.046   4.897  17.823  0.00  0.00    +0.000 C 
ATOM     24  C   UNL     1       6.093   6.095  17.760  0.00  0.00    +0.000 C 
ENDBRANCH  18  19
ENDBRANCH   4  18
TORSDOF 4
ENDMDL
MODEL 6
REMARK VINA RESULT:      -7.1      1.532      1.825
REMARK  Name = 
REMARK  5 active torsions:
REMARK  status: ('A' for Active; 'I' for Inactive)
REMARK    1  A    between atoms: C_1  and  N_2
REMARK    2  A    between atoms: N_2  and  C_18
REMARK    3  A    between atoms: C_3  and  C_5
REMARK    4  A    between atoms: C_8  and  C_9
REMARK    5  A    between atoms: C_9  and  N_10
REMARK                            x       y       z     vdW  Elec       q    Type
REMARK                         _______ _______ _______ _____ _____    ______ ____
ROOT
ATOM      1  C   UNL     1       1.211   9.199  20.112  0.00  0.00    +0.000 A 
ATOM      2  C   UNL     1       1.504   9.311  18.732  0.00  0.00    +0.000 A 
ATOM      3  C   UNL     1       2.066   8.228  18.023  0.00  0.00    +0.000 A 
ATOM      4  C   UNL     1       2.369   7.015  18.671  0.00  0.00    +0.000 A 
ATOM      5  C   UNL     1       2.087   6.914  20.040  0.00  0.00    +0.000 A 
ATOM      6  C   UNL     1       1.533   7.981  20.742  0.00  0.00    +0.000 A 
ENDROOT
BRANCH   1   9
ATOM      7  C   UNL     1      -1.208  11.094  19.444  0.00  0.00    +0.000 C 
ATOM      8  N   UNL     1      -0.399  11.159  20.654  0.00  0.00    +0.000 N 
ATOM      9  C   UNL     1       0.616  10.283  20.985  0.00  0.00    +0.000 C 
ATOM     10  O   UNL     1       1.079  10.359  22.118  0.00  0.00    +0.000 OA
BRANCH   8  11
ATOM     11  C   UNL     1      -0.799  12.133  21.619  0.00  0.00    +0.000 A 
ATOM     12  C   UNL     1      -0.097  13.342  21.734  0.00  0.00    +0.000 A 
ATOM     13  C   UNL     1      -0.464  14.281  22.703  0.00  0.00    +0.000 A 
ATOM     14  C   UNL     1      -1.535  14.016  23.566  0.00  0.00    +0.000 A 
ATOM     15  I   UNL     1      -2.085  15.431  25.032  0.00  0.00    +0.000 I 
ATOM     16  C   UNL     1      -2.238  12.812  23.457  0.00  0.00    +0.000 A 
ATOM     17  C   UNL     1      -1.872  11.871  22.488  0.00  0.00    +0.000 A 
ENDBRANCH   8  11
ENDBRANCH   1   9
BRANCH   4  18
ATOM     18  C   UNL     1       2.912   5.779  17.950  0.00  0.00    +0.000 C 
BRANCH  18  19
ATOM     19  N   UNL     1       4.381   5.647  17.795  0.00  0.00    +0.000 NA
ATOM     20  C   UNL     1       5.133   6.633  17.011  0.00  0.00    +0.000 C 
ATOM     21  C   UNL     1       5.396   6.086  15.603  0.00  0.00    +0.000 C 
ATOM     22  O   UNL     1       6.082   4.844  15.665  0.00  0.00    +0.000 OA
ATOM     23  C   UNL     1       5.295   3.876  16.339  0.00  0.00    +0.000 C 
ATOM     24  C   UNL     1       4.996   4.314  17.777  0.00  0.00    +0.000 C 
ENDBRANCH  18  19
ENDBRANCH   4  18
TORSDOF 4
ENDMDL
MODEL 7
REMARK VINA RESULT:      -7.1      1.513      1.804
REMARK  Name = 
REMARK  5 active torsions:
REMARK  status: ('A' for Active; 'I' for Inactive)
REMARK    1  A    between atoms: C_1  and  N_2
REMARK    2  A    between atoms: N_2  and  C_18
REMARK    3  A    between atoms: C_3  and  C_5
REMARK    4  A    between atoms: C_8  and  C_9
REMARK    5  A    between atoms: C_9  and  N_10
REMARK                            x       y       z     vdW  Elec       q    Type
REMARK                         _______ _______ _______ _____ _____    ______ ____
ROOT
ATOM      1  C   UNL     1       1.199   9.282  20.098  0.00  0.00    +0.000 A 
ATOM      2  C   UNL     1       1.470   9.438  18.718  0.00  0.00    +0.000 A 
ATOM      3  C   UNL     1       2.043   8.385  17.973  0.00  0.00    +0.000 A 
ATOM      4  C   UNL     1       2.380   7.161  18.583  0.00  0.00    +0.000 A 
ATOM      5  C   UNL     1       2.119   7.019  19.953  0.00  0.00    +0.000 A 
ATOM      6  C   UNL     1       1.554   8.055  20.691  0.00  0.00    +0.000 A 
ENDROOT
BRANCH   1   9
ATOM      7  C   UNL     1      -1.257  11.156  19.510  0.00  0.00    +0.000 C 
ATOM      8  N   UNL     1      -0.437  11.199  20.713  0.00  0.00    +0.000 N 
ATOM      9  C   UNL     1       0.596  10.331  21.008  0.00  0.00    +0.000 C 
ATOM     10  O   UNL     1       1.068  10.382  22.138  0.00  0.00    +0.000 OA
BRANCH   8  11
ATOM     11  C   UNL     1      -0.843  12.139  21.709  0.00  0.00    +0.000 A 
ATOM     12  C   UNL     1      -1.937  11.856  22.541  0.00  0.00    +0.000 A 
ATOM     13  C   UNL     1      -2.359  12.791  23.492  0.00  0.00    +0.000 A 
ATOM     14  C   UNL     1      -1.692  14.016  23.615  0.00  0.00    +0.000 A 
ATOM     15  I   UNL     1      -2.334  15.428  25.046  0.00  0.00    +0.000 I 
ATOM     16  C   UNL     1      -0.602  14.304  22.788  0.00  0.00    +0.000 A 
ATOM     17  C   UNL     1      -0.178  13.370  21.836  0.00  0.00    +0.000 A 
ENDBRANCH   8  11
ENDBRANCH   1   9
BRANCH   4  18
ATOM     18  C   UNL     1       2.936   5.956  17.823  0.00  0.00    +0.000 C 
BRANCH  18  19
ATOM     19  N   UNL     1       4.408   5.828  17.692  0.00  0.00    +0.000 NA
ATOM     20  C   UNL     1       5.142   6.677  16.747  0.00  0.00    +0.000 C 
ATOM     21  C   UNL     1       5.420   5.899  15.456  0.00  0.00    +0.000 C 
ATOM     22  O   UNL     1       6.130   4.701  15.733  0.00  0.00    +0.000 OA
ATOM     23  C   UNL     1       5.361   3.850  16.566  0.00  0.00    +0.000 C 
ATOM     24  C   UNL     1       5.049   4.525  17.906  0.00  0.00    +0.000 C 
ENDBRANCH  18  19
ENDBRANCH   4  18
TORSDOF 4
ENDMDL
MODEL 8
REMARK VINA RESULT:      -7.1      1.500      1.885
REMARK  Name = 
REMARK  5 active torsions:
REMARK  status: ('A' for Active; 'I' for Inactive)
REMARK    1  A    between atoms: C_1  and  N_2
REMARK    2  A    between atoms: N_2  and  C_18
REMARK    3  A    between atoms: C_3  and  C_5
REMARK    4  A    between atoms: C_8  and  C_9
REMARK    5  A    between atoms: C_9  and  N_10
REMARK                            x       y       z     vdW  Elec       q    Type
REMARK                         _______ _______ _______ _____ _____    ______ ____
ROOT
ATOM      1  C   UNL     1       1.679   8.207  19.918  0.00  0.00    +0.000 A 
ATOM      2  C   UNL     1       2.149   8.275  18.586  0.00  0.00    +0.000 A 
ATOM      3  C   UNL     1       2.665   7.129  17.943  0.00  0.00    +0.000 A 
ATOM      4  C   UNL     1       2.744   5.893  18.615  0.00  0.00    +0.000 A 
ATOM      5  C   UNL     1       2.287   5.836  19.939  0.00  0.00    +0.000 A 
ATOM      6  C   UNL     1       1.778   6.965  20.575  0.00  0.00    +0.000 A 
ENDROOT
BRANCH   1   9
ATOM      7  C   UNL     1      -0.548  10.247  19.041  0.00  0.00    +0.000 C 
ATOM      8  N   UNL     1       0.186  10.294  20.298  0.00  0.00    +0.000 N 
ATOM      9  C   UNL     1       1.111   9.359  20.720  0.00  0.00    +0.000 C 
ATOM     10  O   UNL     1       1.505   9.440  21.878  0.00  0.00    +0.000 OA
BRANCH   8  11
ATOM     11  C   UNL     1      -0.202  11.325  21.207  0.00  0.00    +0.000 A 
ATOM     12  C   UNL     1      -1.168  11.071  22.192  0.00  0.00    +0.000 A 
ATOM     13  C   UNL     1      -1.576  12.091  23.058  0.00  0.00    +0.000 A 
ATOM     14  C   UNL     1      -1.024  13.372  22.942  0.00  0.00    +0.000 A 
ATOM     15  I   UNL     1      -1.645  14.912  24.246  0.00  0.00    +0.000 I 
ATOM     16  C   UNL     1      -0.061  13.632  21.961  0.00  0.00    +0.000 A 
ATOM     17  C   UNL     1       0.348  12.613  21.094  0.00  0.00    +0.000 A 
ENDBRANCH   8  11
ENDBRANCH   1   9
BRANCH   4  18
ATOM     18  C   UNL     1       3.224   4.598  17.958  0.00  0.00    +0.000 C 
BRANCH  18  19
ATOM     19  N   UNL     1       4.647   4.505  17.548  0.00  0.00    +0.000 NA
ATOM     20  C   UNL     1       5.687   5.179  18.334  0.00  0.00    +0.000 C 
ATOM     21  C   UNL     1       6.058   6.511  17.671  0.00  0.00    +0.000 C 
ATOM     22  O   UNL     1       6.476   6.307  16.330  0.00  0.00    +0.000 OA
ATOM     23  C   UNL     1       5.423   5.748  15.562  0.00  0.00    +0.000 C 
ATOM     24  C   UNL     1       4.990   4.390  16.125  0.00  0.00    +0.000 C 
ENDBRANCH  18  19
ENDBRANCH   4  18
TORSDOF 4
ENDMDL
MODEL 9
REMARK VINA RESULT:      -7.1      2.575      3.027
REMARK  Name = 
REMARK  5 active torsions:
REMARK  status: ('A' for Active; 'I' for Inactive)
REMARK    1  A    between atoms: C_1  and  N_2
REMARK    2  A    between atoms: N_2  and  C_18
REMARK    3  A    between atoms: C_3  and  C_5
REMARK    4  A    between atoms: C_8  and  C_9
REMARK    5  A    between atoms: C_9  and  N_10
REMARK                            x       y       z     vdW  Elec       q    Type
REMARK                         _______ _______ _______ _____ _____    ______ ____
ROOT
ATOM      1  C   UNL     1       1.223   9.094  20.259  0.00  0.00    +0.000 A 
ATOM      2  C   UNL     1       1.621   9.158  18.903  0.00  0.00    +0.000 A 
ATOM      3  C   UNL     1       2.139   8.020  18.249  0.00  0.00    +0.000 A 
ATOM      4  C   UNL     1       2.292   6.797  18.931  0.00  0.00    +0.000 A 
ATOM      5  C   UNL     1       1.906   6.744  20.277  0.00  0.00    +0.000 A 
ATOM      6  C   UNL     1       1.395   7.865  20.925  0.00  0.00    +0.000 A 
ENDROOT
BRANCH   1   9
ATOM      7  C   UNL     1      -1.142  11.022  19.494  0.00  0.00    +0.000 C 
ATOM      8  N   UNL     1      -0.329  11.126  20.699  0.00  0.00    +0.000 N 
ATOM      9  C   UNL     1       0.661  10.240  21.075  0.00  0.00    +0.000 C 
ATOM     10  O   UNL     1       1.127  10.361  22.202  0.00  0.00    +0.000 OA
BRANCH   8  11
ATOM     11  C   UNL     1      -0.699  12.161  21.611  0.00  0.00    +0.000 A 
ATOM     12  C   UNL     1       0.009  13.372  21.631  0.00  0.00    +0.000 A 
ATOM     13  C   UNL     1      -0.329  14.370  22.549  0.00  0.00    +0.000 A 
ATOM     14  C   UNL     1      -1.375  14.165  23.457  0.00  0.00    +0.000 A 
ATOM     15  I   UNL     1      -1.879  15.671  24.847  0.00  0.00    +0.000 I 
ATOM     16  C   UNL     1      -2.084  12.959  23.443  0.00  0.00    +0.000 A 
ATOM     17  C   UNL     1      -1.747  11.958  22.525  0.00  0.00    +0.000 A 
ENDBRANCH   8  11
ENDBRANCH   1   9
BRANCH   4  18
ATOM     18  C   UNL     1       2.778   5.508  18.266  0.00  0.00    +0.000 C 
BRANCH  18  19
ATOM     19  N   UNL     1       2.475   4.218  18.931  0.00  0.00    +0.000 NA
ATOM     20  C   UNL     1       3.439   3.624  19.864  0.00  0.00    +0.000 C 
ATOM     21  C   UNL     1       4.253   2.539  19.150  0.00  0.00    +0.000 C 
ATOM     22  O   UNL     1       3.399   1.552  18.593  0.00  0.00    +0.000 OA
ATOM     23  C   UNL     1       2.543   2.128  17.620  0.00  0.00    +0.000 C 
ATOM     24  C   UNL     1       1.657   3.214  18.239  0.00  0.00    +0.000 C 
ENDBRANCH  18  19
ENDBRANCH   4  18
TORSDOF 4
ENDMDL
