MODEL 1
REMARK VINA RESULT:      -6.5      0.000      0.000
REMARK  Name = 
REMARK  6 active torsions:
REMARK  status: ('A' for Active; 'I' for Inactive)
REMARK    1  A    between atoms: C_1  and  C_2
REMARK    2  A    between atoms: C_2  and  C_3
REMARK    3  A    between atoms: C_2  and  S_4
REMARK    4  A    between atoms: S_4  and  N_7
REMARK    5  A    between atoms: N_7  and  C_8
REMARK    6  A    between atoms: C_12  and  O_13
REMARK                            x       y       z     vdW  Elec       q    Type
REMARK                         _______ _______ _______ _____ _____    ______ ____
ROOT
ATOM      1  N   UNL     1       5.250   3.284  19.488  0.00  0.00    +0.000 N 
ATOM      2  H   UNL     1       5.558   3.143  20.454  0.00  0.00    +0.000 HD
ENDROOT
BRANCH   1   3
ATOM      3  C   UNL     1       3.860   2.938  19.349  0.00  0.00    +0.000 A 
ATOM      4  C   UNL     1       3.369   2.581  18.094  0.00  0.00    +0.000 A 
ATOM      5  C   UNL     1       2.016   2.266  17.934  0.00  0.00    +0.000 A 
ATOM      6  C   UNL     1       1.150   2.320  19.027  0.00  0.00    +0.000 A 
ATOM      7  C   UNL     1       1.647   2.698  20.272  0.00  0.00    +0.000 A 
ATOM      8  C   UNL     1       2.995   3.017  20.441  0.00  0.00    +0.000 A 
BRANCH   7   9
ATOM      9  O   UNL     1       0.831   2.767  21.364  0.00  0.00    +0.000 OA
ATOM     10  H   UNL     1       0.437   1.890  21.514  0.00  0.00    +0.000 HD
ENDBRANCH   7   9
ENDBRANCH   1   3
BRANCH   1  11
ATOM     11  S   UNL     1       5.634   4.891  19.071  0.00  0.00    +0.000 S 
ATOM     12  O   UNL     1       6.841   5.206  19.801  0.00  0.00    +0.000 OA
ATOM     13  O   UNL     1       4.445   5.709  19.173  0.00  0.00    +0.000 OA
BRANCH  11  15
ATOM     14  C   UNL     1       5.514   5.970  16.564  0.00  0.00    +0.000 C 
ATOM     15  C   UNL     1       6.043   4.745  17.312  0.00  0.00    +0.000 C 
ATOM     16  C   UNL     1       7.541   4.594  17.072  0.00  0.00    +0.000 C 
ENDBRANCH  11  15
ENDBRANCH   1  11
TORSDOF 4
ENDMDL
MODEL 2
REMARK VINA RESULT:      -6.4      2.166      2.478
REMARK  Name = 
REMARK  6 active torsions:
REMARK  status: ('A' for Active; 'I' for Inactive)
REMARK    1  A    between atoms: C_1  and  C_2
REMARK    2  A    between atoms: C_2  and  C_3
REMARK    3  A    between atoms: C_2  and  S_4
REMARK    4  A    between atoms: S_4  and  N_7
REMARK    5  A    between atoms: N_7  and  C_8
REMARK    6  A    between atoms: C_12  and  O_13
REMARK                            x       y       z     vdW  Elec       q    Type
REMARK                         _______ _______ _______ _____ _____    ______ ____
ROOT
ATOM      1  N   UNL     1       6.074   4.011  18.635  0.00  0.00    +0.000 N 
ATOM      2  H   UNL     1       6.361   4.364  19.552  0.00  0.00    +0.000 HD
ENDROOT
BRANCH   1   3
ATOM      3  C   UNL     1       4.640   4.026  18.518  0.00  0.00    +0.000 A 
ATOM      4  C   UNL     1       3.936   5.162  18.916  0.00  0.00    +0.000 A 
ATOM      5  C   UNL     1       2.540   5.186  18.834  0.00  0.00    +0.000 A 
ATOM      6  C   UNL     1       1.847   4.069  18.364  0.00  0.00    +0.000 A 
ATOM      7  C   UNL     1       2.558   2.934  17.988  0.00  0.00    +0.000 A 
ATOM      8  C   UNL     1       3.951   2.898  18.069  0.00  0.00    +0.000 A 
BRANCH   7   9
ATOM      9  O   UNL     1       1.916   1.820  17.527  0.00  0.00    +0.000 OA
ATOM     10  H   UNL     1       2.533   1.069  17.562  0.00  0.00    +0.000 HD
ENDBRANCH   7   9
ENDBRANCH   1   3
BRANCH   1  11
ATOM     11  S   UNL     1       6.898   4.935  17.464  0.00  0.00    +0.000 S 
ATOM     12  O   UNL     1       8.116   4.210  17.179  0.00  0.00    +0.000 OA
ATOM     13  O   UNL     1       6.916   6.323  17.875  0.00  0.00    +0.000 OA
BRANCH  11  15
ATOM     14  C   UNL     1       5.289   6.201  15.656  0.00  0.00    +0.000 C 
ATOM     15  C   UNL     1       5.800   4.808  16.029  0.00  0.00    +0.000 C 
ATOM     16  C   UNL     1       6.481   4.162  14.828  0.00  0.00    +0.000 C 
ENDBRANCH  11  15
ENDBRANCH   1  11
TORSDOF 4
ENDMDL
MODEL 3
REMARK VINA RESULT:      -6.4      0.782      1.181
REMARK  Name = 
REMARK  6 active torsions:
REMARK  status: ('A' for Active; 'I' for Inactive)
REMARK    1  A    between atoms: C_1  and  C_2
REMARK    2  A    between atoms: C_2  and  C_3
REMARK    3  A    between atoms: C_2  and  S_4
REMARK    4  A    between atoms: S_4  and  N_7
REMARK    5  A    between atoms: N_7  and  C_8
REMARK    6  A    between atoms: C_12  and  O_13
REMARK                            x       y       z     vdW  Elec       q    Type
REMARK                         _______ _______ _______ _____ _____    ______ ____
ROOT
ATOM      1  N   UNL     1       5.106   3.435  18.964  0.00  0.00    +0.000 N 
ATOM      2  H   UNL     1       5.692   2.917  19.624  0.00  0.00    +0.000 HD
ENDROOT
BRANCH   1   3
ATOM      3  C   UNL     1       3.714   3.187  19.227  0.00  0.00    +0.000 A 
ATOM      4  C   UNL     1       2.798   3.268  18.179  0.00  0.00    +0.000 A 
ATOM      5  C   UNL     1       1.437   3.055  18.420  0.00  0.00    +0.000 A 
ATOM      6  C   UNL     1       0.989   2.772  19.711  0.00  0.00    +0.000 A 
ATOM      7  C   UNL     1       1.910   2.713  20.753  0.00  0.00    +0.000 A 
ATOM      8  C   UNL     1       3.270   2.927  20.524  0.00  0.00    +0.000 A 
BRANCH   7   9
ATOM      9  O   UNL     1       1.511   2.442  22.031  0.00  0.00    +0.000 OA
ATOM     10  H   UNL     1       1.188   3.265  22.436  0.00  0.00    +0.000 HD
ENDBRANCH   7   9
ENDBRANCH   1   3
BRANCH   1  11
ATOM     11  S   UNL     1       5.573   5.071  19.060  0.00  0.00    +0.000 S 
ATOM     12  O   UNL     1       6.830   5.078  19.773  0.00  0.00    +0.000 OA
ATOM     13  O   UNL     1       4.445   5.866  19.496  0.00  0.00    +0.000 OA
BRANCH  11  15
ATOM     14  C   UNL     1       6.077   4.196  16.522  0.00  0.00    +0.000 C 
ATOM     15  C   UNL     1       5.890   5.485  17.325  0.00  0.00    +0.000 C 
ATOM     16  C   UNL     1       4.775   6.325  16.712  0.00  0.00    +0.000 C 
ENDBRANCH  11  15
ENDBRANCH   1  11
TORSDOF 4
ENDMDL
MODEL 4
REMARK VINA RESULT:      -6.3      2.138      2.413
REMARK  Name = 
REMARK  6 active torsions:
REMARK  status: ('A' for Active; 'I' for Inactive)
REMARK    1  A    between atoms: C_1  and  C_2
REMARK    2  A    between atoms: C_2  and  C_3
REMARK    3  A    between atoms: C_2  and  S_4
REMARK    4  A    between atoms: S_4  and  N_7
REMARK    5  A    between atoms: N_7  and  C_8
REMARK    6  A    between atoms: C_12  and  O_13
REMARK                            x       y       z     vdW  Elec       q    Type
REMARK                         _______ _______ _______ _____ _____    ______ ____
ROOT
ATOM      1  N   UNL     1       6.119   3.902  18.537  0.00  0.00    +0.000 N 
ATOM      2  H   UNL     1       6.581   4.011  19.445  0.00  0.00    +0.000 HD
ENDROOT
BRANCH   1   3
ATOM      3  C   UNL     1       4.711   4.171  18.655  0.00  0.00    +0.000 A 
ATOM      4  C   UNL     1       3.805   3.380  17.949  0.00  0.00    +0.000 A 
ATOM      5  C   UNL     1       2.434   3.641  18.031  0.00  0.00    +0.000 A 
ATOM      6  C   UNL     1       1.968   4.701  18.810  0.00  0.00    +0.000 A 
ATOM      7  C   UNL     1       2.882   5.497  19.494  0.00  0.00    +0.000 A 
ATOM      8  C   UNL     1       4.253   5.246  19.417  0.00  0.00    +0.000 A 
BRANCH   7   9
ATOM      9  O   UNL     1       2.466   6.546  20.263  0.00  0.00    +0.000 OA
ATOM     10  H   UNL     1       1.721   6.983  19.816  0.00  0.00    +0.000 HD
ENDBRANCH   7   9
ENDBRANCH   1   3
BRANCH   1  11
ATOM     11  S   UNL     1       6.949   4.900  17.432  0.00  0.00    +0.000 S 
ATOM     12  O   UNL     1       8.172   4.198  17.114  0.00  0.00    +0.000 OA
ATOM     13  O   UNL     1       6.958   6.259  17.928  0.00  0.00    +0.000 OA
BRANCH  11  15
ATOM     14  C   UNL     1       5.288   6.254  15.739  0.00  0.00    +0.000 C 
ATOM     15  C   UNL     1       5.863   4.858  15.983  0.00  0.00    +0.000 C 
ATOM     16  C   UNL     1       6.578   4.361  14.732  0.00  0.00    +0.000 C 
ENDBRANCH  11  15
ENDBRANCH   1  11
TORSDOF 4
ENDMDL
MODEL 5
REMARK VINA RESULT:      -6.3      0.957      1.002
REMARK  Name = 
REMARK  6 active torsions:
REMARK  status: ('A' for Active; 'I' for Inactive)
REMARK    1  A    between atoms: C_1  and  C_2
REMARK    2  A    between atoms: C_2  and  C_3
REMARK    3  A    between atoms: C_2  and  S_4
REMARK    4  A    between atoms: S_4  and  N_7
REMARK    5  A    between atoms: N_7  and  C_8
REMARK    6  A    between atoms: C_12  and  O_13
REMARK                            x       y       z     vdW  Elec       q    Type
REMARK                         _______ _______ _______ _____ _____    ______ ____
ROOT
ATOM      1  N   UNL     1       4.905   3.017  18.478  0.00  0.00    +0.000 N 
ATOM      2  H   UNL     1       5.509   2.463  19.092  0.00  0.00    +0.000 HD
ENDROOT
BRANCH   1   3
ATOM      3  C   UNL     1       3.551   3.005  18.964  0.00  0.00    +0.000 A 
ATOM      4  C   UNL     1       2.505   3.236  18.071  0.00  0.00    +0.000 A 
ATOM      5  C   UNL     1       1.184   3.254  18.529  0.00  0.00    +0.000 A 
ATOM      6  C   UNL     1       0.908   3.053  19.882  0.00  0.00    +0.000 A 
ATOM      7  C   UNL     1       1.961   2.844  20.768  0.00  0.00    +0.000 A 
ATOM      8  C   UNL     1       3.284   2.827  20.322  0.00  0.00    +0.000 A 
BRANCH   7   9
ATOM      9  O   UNL     1       1.733   2.647  22.100  0.00  0.00    +0.000 OA
ATOM     10  H   UNL     1       2.272   1.895  22.400  0.00  0.00    +0.000 HD
ENDBRANCH   7   9
ENDBRANCH   1   3
BRANCH   1  11
ATOM     11  S   UNL     1       5.607   4.564  18.350  0.00  0.00    +0.000 S 
ATOM     12  O   UNL     1       7.004   4.388  18.679  0.00  0.00    +0.000 OA
ATOM     13  O   UNL     1       4.776   5.526  19.041  0.00  0.00    +0.000 OA
BRANCH  11  15
ATOM     14  C   UNL     1       5.017   6.350  16.369  0.00  0.00    +0.000 C 
ATOM     15  C   UNL     1       5.469   4.904  16.575  0.00  0.00    +0.000 C 
ATOM     16  C   UNL     1       6.775   4.654  15.830  0.00  0.00    +0.000 C 
ENDBRANCH  11  15
ENDBRANCH   1  11
TORSDOF 4
ENDMDL
MODEL 6
REMARK VINA RESULT:      -6.2      2.315      2.759
REMARK  Name = 
REMARK  6 active torsions:
REMARK  status: ('A' for Active; 'I' for Inactive)
REMARK    1  A    between atoms: C_1  and  C_2
REMARK    2  A    between atoms: C_2  and  C_3
REMARK    3  A    between atoms: C_2  and  S_4
REMARK    4  A    between atoms: S_4  and  N_7
REMARK    5  A    between atoms: N_7  and  C_8
REMARK    6  A    between atoms: C_12  and  O_13
REMARK                            x       y       z     vdW  Elec       q    Type
REMARK                         _______ _______ _______ _____ _____    ______ ____
ROOT
ATOM      1  N   UNL     1       5.935   3.816  18.202  0.00  0.00    +0.000 N 
ATOM      2  H   UNL     1       6.434   3.851  19.095  0.00  0.00    +0.000 HD
ENDROOT
BRANCH   1   3
ATOM      3  C   UNL     1       4.528   4.040  18.406  0.00  0.00    +0.000 A 
ATOM      4  C   UNL     1       3.609   3.406  17.570  0.00  0.00    +0.000 A 
ATOM      5  C   UNL     1       2.239   3.631  17.737  0.00  0.00    +0.000 A 
ATOM      6  C   UNL     1       1.787   4.500  18.731  0.00  0.00    +0.000 A 
ATOM      7  C   UNL     1       2.714   5.144  19.545  0.00  0.00    +0.000 A 
ATOM      8  C   UNL     1       4.084   4.928  19.386  0.00  0.00    +0.000 A 
BRANCH   7   9
ATOM      9  O   UNL     1       2.312   6.004  20.526  0.00  0.00    +0.000 OA
ATOM     10  H   UNL     1       1.860   5.495  21.221  0.00  0.00    +0.000 HD
ENDBRANCH   7   9
ENDBRANCH   1   3
BRANCH   1  11
ATOM     11  S   UNL     1       6.695   4.931  17.161  0.00  0.00    +0.000 S 
ATOM     12  O   UNL     1       5.673   5.355  16.230  0.00  0.00    +0.000 OA
ATOM     13  O   UNL     1       7.956   4.382  16.711  0.00  0.00    +0.000 OA
BRANCH  11  15
ATOM     14  C   UNL     1       8.027   5.830  19.369  0.00  0.00    +0.000 C 
ATOM     15  C   UNL     1       7.069   6.308  18.276  0.00  0.00    +0.000 C 
ATOM     16  C   UNL     1       7.666   7.505  17.545  0.00  0.00    +0.000 C 
ENDBRANCH  11  15
ENDBRANCH   1  11
TORSDOF 4
ENDMDL
MODEL 7
REMARK VINA RESULT:      -6.2      1.607      1.927
REMARK  Name = 
REMARK  6 active torsions:
REMARK  status: ('A' for Active; 'I' for Inactive)
REMARK    1  A    between atoms: C_1  and  C_2
REMARK    2  A    between atoms: C_2  and  C_3
REMARK    3  A    between atoms: C_2  and  S_4
REMARK    4  A    between atoms: S_4  and  N_7
REMARK    5  A    between atoms: N_7  and  C_8
REMARK    6  A    between atoms: C_12  and  O_13
REMARK                            x       y       z     vdW  Elec       q    Type
REMARK                         _______ _______ _______ _____ _____    ______ ____
ROOT
ATOM      1  N   UNL     1       5.334   3.742  17.950  0.00  0.00    +0.000 N 
ATOM      2  H   UNL     1       5.764   2.815  17.995  0.00  0.00    +0.000 HD
ENDROOT
BRANCH   1   3
ATOM      3  C   UNL     1       4.131   3.776  18.738  0.00  0.00    +0.000 A 
ATOM      4  C   UNL     1       3.059   4.560  18.312  0.00  0.00    +0.000 A 
ATOM      5  C   UNL     1       1.891   4.625  19.078  0.00  0.00    +0.000 A 
ATOM      6  C   UNL     1       1.798   3.916  20.276  0.00  0.00    +0.000 A 
ATOM      7  C   UNL     1       2.881   3.152  20.702  0.00  0.00    +0.000 A 
ATOM      8  C   UNL     1       4.053   3.082  19.946  0.00  0.00    +0.000 A 
BRANCH   7   9
ATOM      9  O   UNL     1       2.830   2.447  21.870  0.00  0.00    +0.000 OA
ATOM     10  H   UNL     1       2.074   2.765  22.392  0.00  0.00    +0.000 HD
ENDBRANCH   7   9
ENDBRANCH   1   3
BRANCH   1  11
ATOM     11  S   UNL     1       6.526   4.869  18.413  0.00  0.00    +0.000 S 
ATOM     12  O   UNL     1       7.778   4.337  17.923  0.00  0.00    +0.000 OA
ATOM     13  O   UNL     1       6.338   5.220  19.804  0.00  0.00    +0.000 OA
BRANCH  11  15
ATOM     14  C   UNL     1       7.279   7.282  17.376  0.00  0.00    +0.000 C 
ATOM     15  C   UNL     1       6.089   6.322  17.424  0.00  0.00    +0.000 C 
ATOM     16  C   UNL     1       5.656   5.956  16.009  0.00  0.00    +0.000 C 
ENDBRANCH  11  15
ENDBRANCH   1  11
TORSDOF 4
ENDMDL
MODEL 8
REMARK VINA RESULT:      -6.2      2.216      5.223
REMARK  Name = 
REMARK  6 active torsions:
REMARK  status: ('A' for Active; 'I' for Inactive)
REMARK    1  A    between atoms: C_1  and  C_2
REMARK    2  A    between atoms: C_2  and  C_3
REMARK    3  A    between atoms: C_2  and  S_4
REMARK    4  A    between atoms: S_4  and  N_7
REMARK    5  A    between atoms: N_7  and  C_8
REMARK    6  A    between atoms: C_12  and  O_13
REMARK                            x       y       z     vdW  Elec       q    Type
REMARK                         _______ _______ _______ _____ _____    ______ ____
ROOT
ATOM      1  N   UNL     1       3.814   3.840  17.729  0.00  0.00    +0.000 N 
ATOM      2  H   UNL     1       3.699   3.464  16.784  0.00  0.00    +0.000 HD
ENDROOT
BRANCH   1   3
ATOM      3  C   UNL     1       5.008   4.638  17.810  0.00  0.00    +0.000 A 
ATOM      4  C   UNL     1       5.480   5.276  16.663  0.00  0.00    +0.000 A 
ATOM      5  C   UNL     1       6.653   6.035  16.716  0.00  0.00    +0.000 A 
ATOM      6  C   UNL     1       7.361   6.148  17.914  0.00  0.00    +0.000 A 
ATOM      7  C   UNL     1       6.892   5.491  19.047  0.00  0.00    +0.000 A 
ATOM      8  C   UNL     1       5.724   4.728  19.005  0.00  0.00    +0.000 A 
BRANCH   7   9
ATOM      9  O   UNL     1       7.559   5.574  20.236  0.00  0.00    +0.000 OA
ATOM     10  H   UNL     1       7.960   6.457  20.307  0.00  0.00    +0.000 HD
ENDBRANCH   7   9
ENDBRANCH   1   3
BRANCH   1  11
ATOM     11  S   UNL     1       2.373   4.665  18.117  0.00  0.00    +0.000 S 
ATOM     12  O   UNL     1       1.343   4.054  17.306  0.00  0.00    +0.000 OA
ATOM     13  O   UNL     1       2.617   6.091  18.093  0.00  0.00    +0.000 OA
BRANCH  11  15
ATOM     14  C   UNL     1       1.856   5.442  20.684  0.00  0.00    +0.000 C 
ATOM     15  C   UNL     1       2.108   4.189  19.844  0.00  0.00    +0.000 C 
ATOM     16  C   UNL     1       0.953   3.209  20.009  0.00  0.00    +0.000 C 
ENDBRANCH  11  15
ENDBRANCH   1  11
TORSDOF 4
ENDMDL
MODEL 9
REMARK VINA RESULT:      -6.1      2.293      5.389
REMARK  Name = 
REMARK  6 active torsions:
REMARK  status: ('A' for Active; 'I' for Inactive)
REMARK    1  A    between atoms: C_1  and  C_2
REMARK    2  A    between atoms: C_2  and  C_3
REMARK    3  A    between atoms: C_2  and  S_4
REMARK    4  A    between atoms: S_4  and  N_7
REMARK    5  A    between atoms: N_7  and  C_8
REMARK    6  A    between atoms: C_12  and  O_13
REMARK                            x       y       z     vdW  Elec       q    Type
REMARK                         _______ _______ _______ _____ _____    ______ ____
ROOT
ATOM      1  N   UNL     1       4.040   4.537  19.542  0.00  0.00    +0.000 N 
ATOM      2  H   UNL     1       4.231   4.704  20.533  0.00  0.00    +0.000 HD
ENDROOT
BRANCH   1   3
ATOM      3  C   UNL     1       5.040   5.170  18.724  0.00  0.00    +0.000 A 
ATOM      4  C   UNL     1       6.339   5.300  19.214  0.00  0.00    +0.000 A 
ATOM      5  C   UNL     1       7.318   5.935  18.444  0.00  0.00    +0.000 A 
ATOM      6  C   UNL     1       6.997   6.451  17.188  0.00  0.00    +0.000 A 
ATOM      7  C   UNL     1       5.692   6.334  16.717  0.00  0.00    +0.000 A 
ATOM      8  C   UNL     1       4.706   5.705  17.479  0.00  0.00    +0.000 A 
BRANCH   7   9
ATOM      9  O   UNL     1       5.337   6.830  15.495  0.00  0.00    +0.000 OA
ATOM     10  H   UNL     1       4.369   6.793  15.415  0.00  0.00    +0.000 HD
ENDBRANCH   7   9
ENDBRANCH   1   3
BRANCH   1  11
ATOM     11  S   UNL     1       3.909   2.850  19.336  0.00  0.00    +0.000 S 
ATOM     12  O   UNL     1       4.922   2.272  20.189  0.00  0.00    +0.000 OA
ATOM     13  O   UNL     1       3.836   2.545  17.923  0.00  0.00    +0.000 OA
BRANCH  11  15
ATOM     14  C   UNL     1       2.273   2.915  21.523  0.00  0.00    +0.000 C 
ATOM     15  C   UNL     1       2.281   2.499  20.051  0.00  0.00    +0.000 C 
ATOM     16  C   UNL     1       1.152   3.200  19.304  0.00  0.00    +0.000 C 
ENDBRANCH  11  15
ENDBRANCH   1  11
TORSDOF 4
ENDMDL
