MODEL 1
REMARK VINA RESULT:      -8.2      0.000      0.000
REMARK  Name = 
REMARK  8 active torsions:
REMARK  status: ('A' for Active; 'I' for Inactive)
REMARK    1  A    between atoms: C_2  and  C_3
REMARK    2  A    between atoms: C_3  and  O_4
REMARK    3  A    between atoms: O_4  and  C_5
REMARK    4  A    between atoms: C_5  and  C_7
REMARK    5  A    between atoms: C_17  and  C_19
REMARK    6  A    between atoms: N_25  and  C_26
REMARK    7  A    between atoms: C_29  and  S_30
REMARK    8  A    between atoms: S_30  and  C_31
REMARK                            x       y       z     vdW  Elec       q    Type
REMARK                         _______ _______ _______ _____ _____    ______ ____
ROOT
ATOM      1  C   UNL     1       3.584   6.180  18.588  0.00  0.00    +0.000 C 
ATOM      2  O   UNL     1       3.918   6.476  19.733  0.00  0.00    +0.000 OA
ENDROOT
BRANCH   1   3
ATOM      3  C   UNL     1       4.253   5.057  17.776  0.00  0.00    +0.000 C 
ATOM      4  C   UNL     1       5.085   5.649  16.630  0.00  0.00    +0.000 C 
ATOM      5  C   UNL     1       6.266   6.352  17.226  0.00  0.00    +0.000 A 
ATOM      6  C   UNL     1       6.643   7.629  16.806  0.00  0.00    +0.000 A 
ATOM      7  C   UNL     1       7.672   8.290  17.468  0.00  0.00    +0.000 A 
ATOM      8  C   UNL     1       8.333   7.668  18.526  0.00  0.00    +0.000 A 
ATOM      9  C   UNL     1       7.975   6.376  18.926  0.00  0.00    +0.000 A 
ATOM     10  C   UNL     1       6.926   5.709  18.286  0.00  0.00    +0.000 A 
ATOM     11  C   UNL     1       6.486   4.319  18.696  0.00  0.00    +0.000 C 
ATOM     12  N   UNL     1       5.031   4.090  18.594  0.00  0.00    +0.000 N 
ATOM     13  C   UNL     1       4.489   3.079  19.404  0.00  0.00    +0.000 C 
ATOM     14  O   UNL     1       5.189   2.383  20.140  0.00  0.00    +0.000 OA
BRANCH  13  15
ATOM     15  C   UNL     1       3.013   2.841  19.460  0.00  0.00    +0.000 A 
ATOM     16  C   UNL     1       2.322   2.145  18.463  0.00  0.00    +0.000 A 
ATOM     17  C   UNL     1       0.928   2.065  18.485  0.00  0.00    +0.000 A 
ATOM     18  C   UNL     1       0.222   2.558  19.578  0.00  0.00    +0.000 A 
ATOM     19  C   UNL     1       0.911   3.129  20.647  0.00  0.00    +0.000 A 
ATOM     20  C   UNL     1       2.300   3.288  20.582  0.00  0.00    +0.000 A 
ENDBRANCH  13  15
ENDBRANCH   1   3
BRANCH   1  21
ATOM     21  O   UNL     1       2.629   6.846  17.881  0.00  0.00    +0.000 OA
BRANCH  21  22
ATOM     22  C   UNL     1       2.773   8.265  17.894  0.00  0.00    +0.000 C 
BRANCH  22  24
ATOM     23  O   UNL     1       1.413   8.487  19.855  0.00  0.00    +0.000 OA
ATOM     24  C   UNL     1       1.714   8.947  18.756  0.00  0.00    +0.000 C 
ATOM     25  N   UNL     1       1.156  10.082  18.174  0.00  0.00    +0.000 N 
ATOM     26  H   UNL     1       1.472  10.317  17.241  0.00  0.00    +0.000 HD
BRANCH  25  27
ATOM     27  C   UNL     1       0.228  10.969  18.757  0.00  0.00    +0.000 A 
ATOM     28  C   UNL     1      -1.154  10.848  18.619  0.00  0.00    +0.000 A 
ATOM     29  C   UNL     1      -2.021  11.752  19.246  0.00  0.00    +0.000 A 
ATOM     30  C   UNL     1      -1.521  12.780  20.044  0.00  0.00    +0.000 A 
ATOM     31  C   UNL     1      -0.139  12.916  20.178  0.00  0.00    +0.000 A 
ATOM     32  C   UNL     1       0.728  12.014  19.542  0.00  0.00    +0.000 A 
BRANCH  30  33
ATOM     33  S   UNL     1      -2.658  13.924  20.797  0.00  0.00    +0.000 S 
BRANCH  33  34
ATOM     34  C   UNL     1      -3.375  12.863  22.071  0.00  0.00    +0.000 C 
ATOM     35  F   UNL     1      -4.437  12.174  21.582  0.00  0.00    +0.000 F 
ATOM     36  F   UNL     1      -2.463  11.932  22.455  0.00  0.00    +0.000 F 
ENDBRANCH  33  34
ENDBRANCH  30  33
ENDBRANCH  25  27
ENDBRANCH  22  24
ENDBRANCH  21  22
ENDBRANCH   1  21
TORSDOF 8
ENDMDL
MODEL 2
REMARK VINA RESULT:      -8.1      1.655      1.872
REMARK  Name = 
REMARK  8 active torsions:
REMARK  status: ('A' for Active; 'I' for Inactive)
REMARK    1  A    between atoms: C_2  and  C_3
REMARK    2  A    between atoms: C_3  and  O_4
REMARK    3  A    between atoms: O_4  and  C_5
REMARK    4  A    between atoms: C_5  and  C_7
REMARK    5  A    between atoms: C_17  and  C_19
REMARK    6  A    between atoms: N_25  and  C_26
REMARK    7  A    between atoms: C_29  and  S_30
REMARK    8  A    between atoms: S_30  and  C_31
REMARK                            x       y       z     vdW  Elec       q    Type
REMARK                         _______ _______ _______ _____ _____    ______ ____
ROOT
ATOM      1  C   UNL     1       3.638   6.325  18.475  0.00  0.00    +0.000 C 
ATOM      2  O   UNL     1       3.774   6.504  19.682  0.00  0.00    +0.000 OA
ENDROOT
BRANCH   1   3
ATOM      3  C   UNL     1       4.329   5.186  17.705  0.00  0.00    +0.000 C 
ATOM      4  C   UNL     1       5.199   5.755  16.576  0.00  0.00    +0.000 C 
ATOM      5  C   UNL     1       6.363   6.466  17.196  0.00  0.00    +0.000 A 
ATOM      6  C   UNL     1       6.756   7.735  16.765  0.00  0.00    +0.000 A 
ATOM      7  C   UNL     1       7.764   8.406  17.448  0.00  0.00    +0.000 A 
ATOM      8  C   UNL     1       8.390   7.801  18.538  0.00  0.00    +0.000 A 
ATOM      9  C   UNL     1       8.016   6.518  18.949  0.00  0.00    +0.000 A 
ATOM     10  C   UNL     1       6.986   5.842  18.288  0.00  0.00    +0.000 A 
ATOM     11  C   UNL     1       6.530   4.460  18.710  0.00  0.00    +0.000 C 
ATOM     12  N   UNL     1       5.078   4.232  18.565  0.00  0.00    +0.000 N 
ATOM     13  C   UNL     1       4.507   3.237  19.375  0.00  0.00    +0.000 C 
ATOM     14  O   UNL     1       5.182   2.553  20.146  0.00  0.00    +0.000 OA
BRANCH  13  15
ATOM     15  C   UNL     1       3.030   3.003  19.388  0.00  0.00    +0.000 A 
ATOM     16  C   UNL     1       2.369   2.293  18.382  0.00  0.00    +0.000 A 
ATOM     17  C   UNL     1       0.975   2.216  18.361  0.00  0.00    +0.000 A 
ATOM     18  C   UNL     1       0.236   2.728  19.423  0.00  0.00    +0.000 A 
ATOM     19  C   UNL     1       0.893   3.315  20.503  0.00  0.00    +0.000 A 
ATOM     20  C   UNL     1       2.283   3.470  20.479  0.00  0.00    +0.000 A 
ENDBRANCH  13  15
ENDBRANCH   1   3
BRANCH   1  21
ATOM     21  O   UNL     1       2.911   7.145  17.664  0.00  0.00    +0.000 OA
BRANCH  21  22
ATOM     22  C   UNL     1       2.889   8.509  18.079  0.00  0.00    +0.000 C 
BRANCH  22  24
ATOM     23  O   UNL     1       1.213   8.590  19.789  0.00  0.00    +0.000 OA
ATOM     24  C   UNL     1       1.535   8.920  18.651  0.00  0.00    +0.000 C 
ATOM     25  N   UNL     1       0.752   9.661  17.771  0.00  0.00    +0.000 N 
ATOM     26  H   UNL     1       1.132   9.820  16.847  0.00  0.00    +0.000 HD
BRANCH  25  27
ATOM     27  C   UNL     1      -0.498  10.257  18.040  0.00  0.00    +0.000 A 
ATOM     28  C   UNL     1      -1.717   9.590  17.921  0.00  0.00    +0.000 A 
ATOM     29  C   UNL     1      -2.921  10.235  18.227  0.00  0.00    +0.000 A 
ATOM     30  C   UNL     1      -2.928  11.553  18.682  0.00  0.00    +0.000 A 
ATOM     31  C   UNL     1      -1.714  12.231  18.792  0.00  0.00    +0.000 A 
ATOM     32  C   UNL     1      -0.508  11.586  18.477  0.00  0.00    +0.000 A 
BRANCH  30  33
ATOM     33  S   UNL     1      -4.485  12.343  19.030  0.00  0.00    +0.000 S 
BRANCH  33  34
ATOM     34  C   UNL     1      -5.305  12.138  17.433  0.00  0.00    +0.000 C 
ATOM     35  F   UNL     1      -4.395  11.912  16.451  0.00  0.00    +0.000 F 
ATOM     36  F   UNL     1      -6.105  11.040  17.469  0.00  0.00    +0.000 F 
ENDBRANCH  33  34
ENDBRANCH  30  33
ENDBRANCH  25  27
ENDBRANCH  22  24
ENDBRANCH  21  22
ENDBRANCH   1  21
TORSDOF 8
ENDMDL
MODEL 3
REMARK VINA RESULT:      -8.0      0.832      1.142
REMARK  Name = 
REMARK  8 active torsions:
REMARK  status: ('A' for Active; 'I' for Inactive)
REMARK    1  A    between atoms: C_2  and  C_3
REMARK    2  A    between atoms: C_3  and  O_4
REMARK    3  A    between atoms: O_4  and  C_5
REMARK    4  A    between atoms: C_5  and  C_7
REMARK    5  A    between atoms: C_17  and  C_19
REMARK    6  A    between atoms: N_25  and  C_26
REMARK    7  A    between atoms: C_29  and  S_30
REMARK    8  A    between atoms: S_30  and  C_31
REMARK                            x       y       z     vdW  Elec       q    Type
REMARK                         _______ _______ _______ _____ _____    ______ ____
ROOT
ATOM      1  C   UNL     1       3.688   6.338  18.594  0.00  0.00    +0.000 C 
ATOM      2  O   UNL     1       3.507   6.276  19.807  0.00  0.00    +0.000 OA
ENDROOT
BRANCH   1   3
ATOM      3  C   UNL     1       4.356   5.216  17.780  0.00  0.00    +0.000 C 
ATOM      4  C   UNL     1       5.225   5.810  16.662  0.00  0.00    +0.000 C 
ATOM      5  C   UNL     1       6.404   6.482  17.296  0.00  0.00    +0.000 A 
ATOM      6  C   UNL     1       6.813   7.759  16.905  0.00  0.00    +0.000 A 
ATOM      7  C   UNL     1       7.836   8.392  17.601  0.00  0.00    +0.000 A 
ATOM      8  C   UNL     1       8.463   7.742  18.664  0.00  0.00    +0.000 A 
ATOM      9  C   UNL     1       8.072   6.451  19.035  0.00  0.00    +0.000 A 
ATOM     10  C   UNL     1       7.028   5.813  18.361  0.00  0.00    +0.000 A 
ATOM     11  C   UNL     1       6.554   4.424  18.740  0.00  0.00    +0.000 C 
ATOM     12  N   UNL     1       5.098   4.223  18.601  0.00  0.00    +0.000 N 
ATOM     13  C   UNL     1       4.520   3.209  19.382  0.00  0.00    +0.000 C 
ATOM     14  O   UNL     1       5.190   2.490  20.123  0.00  0.00    +0.000 OA
BRANCH  13  15
ATOM     15  C   UNL     1       3.039   2.996  19.400  0.00  0.00    +0.000 A 
ATOM     16  C   UNL     1       2.350   2.388  18.347  0.00  0.00    +0.000 A 
ATOM     17  C   UNL     1       0.955   2.334  18.344  0.00  0.00    +0.000 A 
ATOM     18  C   UNL     1       0.242   2.760  19.460  0.00  0.00    +0.000 A 
ATOM     19  C   UNL     1       0.926   3.239  20.576  0.00  0.00    +0.000 A 
ATOM     20  C   UNL     1       2.318   3.375  20.542  0.00  0.00    +0.000 A 
ENDBRANCH  13  15
ENDBRANCH   1   3
BRANCH   1  21
ATOM     21  O   UNL     1       3.377   7.426  17.835  0.00  0.00    +0.000 OA
BRANCH  21  22
ATOM     22  C   UNL     1       1.983   7.723  17.782  0.00  0.00    +0.000 C 
BRANCH  22  24
ATOM     23  O   UNL     1       2.245  10.103  17.680  0.00  0.00    +0.000 OA
ATOM     24  C   UNL     1       1.678   9.154  18.216  0.00  0.00    +0.000 C 
ATOM     25  N   UNL     1       0.740   9.246  19.241  0.00  0.00    +0.000 N 
ATOM     26  H   UNL     1       0.389   8.374  19.615  0.00  0.00    +0.000 HD
BRANCH  25  27
ATOM     27  C   UNL     1       0.190  10.424  19.787  0.00  0.00    +0.000 A 
ATOM     28  C   UNL     1       0.842  11.222  20.727  0.00  0.00    +0.000 A 
ATOM     29  C   UNL     1       0.247  12.393  21.212  0.00  0.00    +0.000 A 
ATOM     30  C   UNL     1      -1.002  12.802  20.747  0.00  0.00    +0.000 A 
ATOM     31  C   UNL     1      -1.667  12.003  19.816  0.00  0.00    +0.000 A 
ATOM     32  C   UNL     1      -1.073  10.825  19.337  0.00  0.00    +0.000 A 
BRANCH  30  33
ATOM     33  S   UNL     1      -1.734  14.281  21.413  0.00  0.00    +0.000 S 
BRANCH  33  34
ATOM     34  C   UNL     1      -2.883  13.555  22.602  0.00  0.00    +0.000 C 
ATOM     35  F   UNL     1      -3.995  13.091  21.976  0.00  0.00    +0.000 F 
ATOM     36  F   UNL     1      -2.305  12.478  23.196  0.00  0.00    +0.000 F 
ENDBRANCH  33  34
ENDBRANCH  30  33
ENDBRANCH  25  27
ENDBRANCH  22  24
ENDBRANCH  21  22
ENDBRANCH   1  21
TORSDOF 8
ENDMDL
MODEL 4
REMARK VINA RESULT:      -7.9      1.373      1.668
REMARK  Name = 
REMARK  8 active torsions:
REMARK  status: ('A' for Active; 'I' for Inactive)
REMARK    1  A    between atoms: C_2  and  C_3
REMARK    2  A    between atoms: C_3  and  O_4
REMARK    3  A    between atoms: O_4  and  C_5
REMARK    4  A    between atoms: C_5  and  C_7
REMARK    5  A    between atoms: C_17  and  C_19
REMARK    6  A    between atoms: N_25  and  C_26
REMARK    7  A    between atoms: C_29  and  S_30
REMARK    8  A    between atoms: S_30  and  C_31
REMARK                            x       y       z     vdW  Elec       q    Type
REMARK                         _______ _______ _______ _____ _____    ______ ____
ROOT
ATOM      1  C   UNL     1       3.672   6.408  18.626  0.00  0.00    +0.000 C 
ATOM      2  O   UNL     1       3.395   6.301  19.818  0.00  0.00    +0.000 OA
ENDROOT
BRANCH   1   3
ATOM      3  C   UNL     1       4.317   5.280  17.803  0.00  0.00    +0.000 C 
ATOM      4  C   UNL     1       5.166   5.865  16.666  0.00  0.00    +0.000 C 
ATOM      5  C   UNL     1       6.362   6.533  17.273  0.00  0.00    +0.000 A 
ATOM      6  C   UNL     1       6.770   7.806  16.870  0.00  0.00    +0.000 A 
ATOM      7  C   UNL     1       7.811   8.435  17.543  0.00  0.00    +0.000 A 
ATOM      8  C   UNL     1       8.455   7.785  18.595  0.00  0.00    +0.000 A 
ATOM      9  C   UNL     1       8.065   6.498  18.978  0.00  0.00    +0.000 A 
ATOM     10  C   UNL     1       7.003   5.863  18.328  0.00  0.00    +0.000 A 
ATOM     11  C   UNL     1       6.529   4.479  18.721  0.00  0.00    +0.000 C 
ATOM     12  N   UNL     1       5.070   4.285  18.612  0.00  0.00    +0.000 N 
ATOM     13  C   UNL     1       4.501   3.278  19.408  0.00  0.00    +0.000 C 
ATOM     14  O   UNL     1       5.183   2.556  20.138  0.00  0.00    +0.000 OA
BRANCH  13  15
ATOM     15  C   UNL     1       3.020   3.073  19.457  0.00  0.00    +0.000 A 
ATOM     16  C   UNL     1       2.246   3.418  20.568  0.00  0.00    +0.000 A 
ATOM     17  C   UNL     1       0.891   3.084  20.625  0.00  0.00    +0.000 A 
ATOM     18  C   UNL     1       0.267   2.528  19.512  0.00  0.00    +0.000 A 
ATOM     19  C   UNL     1       0.998   2.308  18.346  0.00  0.00    +0.000 A 
ATOM     20  C   UNL     1       2.374   2.561  18.322  0.00  0.00    +0.000 A 
ENDBRANCH  13  15
ENDBRANCH   1   3
BRANCH   1  21
ATOM     21  O   UNL     1       3.499   7.553  17.908  0.00  0.00    +0.000 OA
BRANCH  21  22
ATOM     22  C   UNL     1       2.134   7.899  17.678  0.00  0.00    +0.000 C 
BRANCH  22  24
ATOM     23  O   UNL     1       2.087  10.274  17.999  0.00  0.00    +0.000 OA
ATOM     24  C   UNL     1       1.728   9.174  18.412  0.00  0.00    +0.000 C 
ATOM     25  N   UNL     1       0.954   8.950  19.547  0.00  0.00    +0.000 N 
ATOM     26  H   UNL     1       0.772   7.985  19.791  0.00  0.00    +0.000 HD
BRANCH  25  27
ATOM     27  C   UNL     1       0.355   9.923  20.374  0.00  0.00    +0.000 A 
ATOM     28  C   UNL     1      -0.208  11.106  19.898  0.00  0.00    +0.000 A 
ATOM     29  C   UNL     1      -0.809  12.019  20.773  0.00  0.00    +0.000 A 
ATOM     30  C   UNL     1      -0.880  11.755  22.140  0.00  0.00    +0.000 A 
ATOM     31  C   UNL     1      -0.307  10.579  22.627  0.00  0.00    +0.000 A 
ATOM     32  C   UNL     1       0.301   9.668  21.750  0.00  0.00    +0.000 A 
BRANCH  30  33
ATOM     33  S   UNL     1      -1.625  12.958  23.219  0.00  0.00    +0.000 S 
BRANCH  33  34
ATOM     34  C   UNL     1      -3.340  12.393  23.184  0.00  0.00    +0.000 C 
ATOM     35  F   UNL     1      -3.801  12.175  24.442  0.00  0.00    +0.000 F 
ATOM     36  F   UNL     1      -4.129  13.365  22.655  0.00  0.00    +0.000 F 
ENDBRANCH  33  34
ENDBRANCH  30  33
ENDBRANCH  25  27
ENDBRANCH  22  24
ENDBRANCH  21  22
ENDBRANCH   1  21
TORSDOF 8
ENDMDL
MODEL 5
REMARK VINA RESULT:      -7.9      1.485      1.660
REMARK  Name = 
REMARK  8 active torsions:
REMARK  status: ('A' for Active; 'I' for Inactive)
REMARK    1  A    between atoms: C_2  and  C_3
REMARK    2  A    between atoms: C_3  and  O_4
REMARK    3  A    between atoms: O_4  and  C_5
REMARK    4  A    between atoms: C_5  and  C_7
REMARK    5  A    between atoms: C_17  and  C_19
REMARK    6  A    between atoms: N_25  and  C_26
REMARK    7  A    between atoms: C_29  and  S_30
REMARK    8  A    between atoms: S_30  and  C_31
REMARK                            x       y       z     vdW  Elec       q    Type
REMARK                         _______ _______ _______ _____ _____    ______ ____
ROOT
ATOM      1  C   UNL     1       3.536   6.246  18.661  0.00  0.00    +0.000 C 
ATOM      2  O   UNL     1       3.953   6.540  19.779  0.00  0.00    +0.000 OA
ENDROOT
BRANCH   1   3
ATOM      3  C   UNL     1       4.161   5.145  17.787  0.00  0.00    +0.000 C 
ATOM      4  C   UNL     1       4.957   5.767  16.632  0.00  0.00    +0.000 C 
ATOM      5  C   UNL     1       6.168   6.437  17.207  0.00  0.00    +0.000 A 
ATOM      6  C   UNL     1       6.543   7.724  16.817  0.00  0.00    +0.000 A 
ATOM      7  C   UNL     1       7.603   8.352  17.463  0.00  0.00    +0.000 A 
ATOM      8  C   UNL     1       8.296   7.687  18.474  0.00  0.00    +0.000 A 
ATOM      9  C   UNL     1       7.938   6.386  18.842  0.00  0.00    +0.000 A 
ATOM     10  C   UNL     1       6.859   5.752  18.219  0.00  0.00    +0.000 A 
ATOM     11  C   UNL     1       6.418   4.353  18.598  0.00  0.00    +0.000 C 
ATOM     12  N   UNL     1       4.958   4.142  18.543  0.00  0.00    +0.000 N 
ATOM     13  C   UNL     1       4.434   3.109  19.337  0.00  0.00    +0.000 C 
ATOM     14  O   UNL     1       5.153   2.381  20.022  0.00  0.00    +0.000 OA
BRANCH  13  15
ATOM     15  C   UNL     1       2.959   2.884  19.439  0.00  0.00    +0.000 A 
ATOM     16  C   UNL     1       2.220   2.247  18.438  0.00  0.00    +0.000 A 
ATOM     17  C   UNL     1       0.828   2.180  18.512  0.00  0.00    +0.000 A 
ATOM     18  C   UNL     1       0.172   2.625  19.655  0.00  0.00    +0.000 A 
ATOM     19  C   UNL     1       0.909   3.135  20.722  0.00  0.00    +0.000 A 
ATOM     20  C   UNL     1       2.296   3.282  20.610  0.00  0.00    +0.000 A 
ENDBRANCH  13  15
ENDBRANCH   1   3
BRANCH   1  21
ATOM     21  O   UNL     1       2.513   6.896  18.039  0.00  0.00    +0.000 OA
BRANCH  21  22
ATOM     22  C   UNL     1       2.686   8.309  17.950  0.00  0.00    +0.000 C 
BRANCH  22  24
ATOM     23  O   UNL     1       0.551   9.378  17.744  0.00  0.00    +0.000 OA
ATOM     24  C   UNL     1       1.481   9.076  18.488  0.00  0.00    +0.000 C 
ATOM     25  N   UNL     1       1.566   9.384  19.842  0.00  0.00    +0.000 N 
ATOM     26  H   UNL     1       2.416   9.108  20.319  0.00  0.00    +0.000 HD
BRANCH  25  27
ATOM     27  C   UNL     1       0.579  10.000  20.639  0.00  0.00    +0.000 A 
ATOM     28  C   UNL     1       0.292   9.622  21.950  0.00  0.00    +0.000 A 
ATOM     29  C   UNL     1      -0.687  10.292  22.694  0.00  0.00    +0.000 A 
ATOM     30  C   UNL     1      -1.381  11.371  22.148  0.00  0.00    +0.000 A 
ATOM     31  C   UNL     1      -1.110  11.747  20.832  0.00  0.00    +0.000 A 
ATOM     32  C   UNL     1      -0.134  11.069  20.085  0.00  0.00    +0.000 A 
BRANCH  30  33
ATOM     33  S   UNL     1      -2.639  12.173  23.118  0.00  0.00    +0.000 S 
BRANCH  33  34
ATOM     34  C   UNL     1      -1.936  13.834  23.232  0.00  0.00    +0.000 C 
ATOM     35  F   UNL     1      -0.597  13.776  23.449  0.00  0.00    +0.000 F 
ATOM     36  F   UNL     1      -2.101  14.481  22.048  0.00  0.00    +0.000 F 
ENDBRANCH  33  34
ENDBRANCH  30  33
ENDBRANCH  25  27
ENDBRANCH  22  24
ENDBRANCH  21  22
ENDBRANCH   1  21
TORSDOF 8
ENDMDL
MODEL 6
REMARK VINA RESULT:      -7.9      1.765      2.147
REMARK  Name = 
REMARK  8 active torsions:
REMARK  status: ('A' for Active; 'I' for Inactive)
REMARK    1  A    between atoms: C_2  and  C_3
REMARK    2  A    between atoms: C_3  and  O_4
REMARK    3  A    between atoms: O_4  and  C_5
REMARK    4  A    between atoms: C_5  and  C_7
REMARK    5  A    between atoms: C_17  and  C_19
REMARK    6  A    between atoms: N_25  and  C_26
REMARK    7  A    between atoms: C_29  and  S_30
REMARK    8  A    between atoms: S_30  and  C_31
REMARK                            x       y       z     vdW  Elec       q    Type
REMARK                         _______ _______ _______ _____ _____    ______ ____
ROOT
ATOM      1  C   UNL     1       3.645   6.319  18.625  0.00  0.00    +0.000 C 
ATOM      2  O   UNL     1       3.440   6.219  19.832  0.00  0.00    +0.000 OA
ENDROOT
BRANCH   1   3
ATOM      3  C   UNL     1       4.292   5.207  17.782  0.00  0.00    +0.000 C 
ATOM      4  C   UNL     1       5.128   5.814  16.647  0.00  0.00    +0.000 C 
ATOM      5  C   UNL     1       6.323   6.482  17.254  0.00  0.00    +0.000 A 
ATOM      6  C   UNL     1       6.719   7.764  16.864  0.00  0.00    +0.000 A 
ATOM      7  C   UNL     1       7.761   8.391  17.538  0.00  0.00    +0.000 A 
ATOM      8  C   UNL     1       8.417   7.732  18.577  0.00  0.00    +0.000 A 
ATOM      9  C   UNL     1       8.040   6.436  18.945  0.00  0.00    +0.000 A 
ATOM     10  C   UNL     1       6.977   5.803  18.294  0.00  0.00    +0.000 A 
ATOM     11  C   UNL     1       6.517   4.410  18.672  0.00  0.00    +0.000 C 
ATOM     12  N   UNL     1       5.058   4.207  18.571  0.00  0.00    +0.000 N 
ATOM     13  C   UNL     1       4.503   3.185  19.358  0.00  0.00    +0.000 C 
ATOM     14  O   UNL     1       5.195   2.459  20.073  0.00  0.00    +0.000 OA
BRANCH  13  15
ATOM     15  C   UNL     1       3.024   2.968  19.415  0.00  0.00    +0.000 A 
ATOM     16  C   UNL     1       2.298   2.422  18.353  0.00  0.00    +0.000 A 
ATOM     17  C   UNL     1       0.904   2.365  18.395  0.00  0.00    +0.000 A 
ATOM     18  C   UNL     1       0.231   2.725  19.558  0.00  0.00    +0.000 A 
ATOM     19  C   UNL     1       0.953   3.139  20.676  0.00  0.00    +0.000 A 
ATOM     20  C   UNL     1       2.343   3.279  20.601  0.00  0.00    +0.000 A 
ENDBRANCH  13  15
ENDBRANCH   1   3
BRANCH   1  21
ATOM     21  O   UNL     1       3.381   7.444  17.903  0.00  0.00    +0.000 OA
BRANCH  21  22
ATOM     22  C   UNL     1       2.002   7.806  17.864  0.00  0.00    +0.000 C 
BRANCH  22  24
ATOM     23  O   UNL     1       1.474   8.897  19.931  0.00  0.00    +0.000 OA
ATOM     24  C   UNL     1       1.698   9.025  18.730  0.00  0.00    +0.000 C 
ATOM     25  N   UNL     1       1.693  10.228  18.030  0.00  0.00    +0.000 N 
ATOM     26  H   UNL     1       1.852  10.174  17.032  0.00  0.00    +0.000 HD
BRANCH  25  27
ATOM     27  C   UNL     1       1.537  11.523  18.566  0.00  0.00    +0.000 A 
ATOM     28  C   UNL     1       2.470  12.547  18.407  0.00  0.00    +0.000 A 
ATOM     29  C   UNL     1       2.241  13.819  18.946  0.00  0.00    +0.000 A 
ATOM     30  C   UNL     1       1.060  14.098  19.633  0.00  0.00    +0.000 A 
ATOM     31  C   UNL     1       0.126  13.076  19.807  0.00  0.00    +0.000 A 
ATOM     32  C   UNL     1       0.361  11.800  19.273  0.00  0.00    +0.000 A 
BRANCH  30  33
ATOM     33  S   UNL     1       0.824  15.720  20.328  0.00  0.00    +0.000 S 
BRANCH  33  34
ATOM     34  C   UNL     1      -0.509  16.325  19.270  0.00  0.00    +0.000 C 
ATOM     35  F   UNL     1      -0.454  15.741  18.045  0.00  0.00    +0.000 F 
ATOM     36  F   UNL     1      -1.709  15.974  19.803  0.00  0.00    +0.000 F 
ENDBRANCH  33  34
ENDBRANCH  30  33
ENDBRANCH  25  27
ENDBRANCH  22  24
ENDBRANCH  21  22
ENDBRANCH   1  21
TORSDOF 8
ENDMDL
MODEL 7
REMARK VINA RESULT:      -7.8      1.980      2.190
REMARK  Name = 
REMARK  8 active torsions:
REMARK  status: ('A' for Active; 'I' for Inactive)
REMARK    1  A    between atoms: C_2  and  C_3
REMARK    2  A    between atoms: C_3  and  O_4
REMARK    3  A    between atoms: O_4  and  C_5
REMARK    4  A    between atoms: C_5  and  C_7
REMARK    5  A    between atoms: C_17  and  C_19
REMARK    6  A    between atoms: N_25  and  C_26
REMARK    7  A    between atoms: C_29  and  S_30
REMARK    8  A    between atoms: S_30  and  C_31
REMARK                            x       y       z     vdW  Elec       q    Type
REMARK                         _______ _______ _______ _____ _____    ______ ____
ROOT
ATOM      1  C   UNL     1       3.652   6.343  18.654  0.00  0.00    +0.000 C 
ATOM      2  O   UNL     1       3.452   6.231  19.861  0.00  0.00    +0.000 OA
ENDROOT
BRANCH   1   3
ATOM      3  C   UNL     1       4.291   5.236  17.797  0.00  0.00    +0.000 C 
ATOM      4  C   UNL     1       5.124   5.851  16.664  0.00  0.00    +0.000 C 
ATOM      5  C   UNL     1       6.324   6.510  17.272  0.00  0.00    +0.000 A 
ATOM      6  C   UNL     1       6.722   7.794  16.893  0.00  0.00    +0.000 A 
ATOM      7  C   UNL     1       7.769   8.412  17.568  0.00  0.00    +0.000 A 
ATOM      8  C   UNL     1       8.429   7.740  18.597  0.00  0.00    +0.000 A 
ATOM      9  C   UNL     1       8.048   6.442  18.955  0.00  0.00    +0.000 A 
ATOM     10  C   UNL     1       6.981   5.818  18.302  0.00  0.00    +0.000 A 
ATOM     11  C   UNL     1       6.518   4.423  18.669  0.00  0.00    +0.000 C 
ATOM     12  N   UNL     1       5.058   4.226  18.573  0.00  0.00    +0.000 N 
ATOM     13  C   UNL     1       4.503   3.198  19.352  0.00  0.00    +0.000 C 
ATOM     14  O   UNL     1       5.196   2.463  20.057  0.00  0.00    +0.000 OA
BRANCH  13  15
ATOM     15  C   UNL     1       3.024   2.986  19.414  0.00  0.00    +0.000 A 
ATOM     16  C   UNL     1       2.301   2.393  18.375  0.00  0.00    +0.000 A 
ATOM     17  C   UNL     1       0.906   2.340  18.416  0.00  0.00    +0.000 A 
ATOM     18  C   UNL     1       0.230   2.752  19.559  0.00  0.00    +0.000 A 
ATOM     19  C   UNL     1       0.949   3.215  20.660  0.00  0.00    +0.000 A 
ATOM     20  C   UNL     1       2.339   3.350  20.583  0.00  0.00    +0.000 A 
ENDBRANCH  13  15
ENDBRANCH   1   3
BRANCH   1  21
ATOM     21  O   UNL     1       3.390   7.476  17.944  0.00  0.00    +0.000 OA
BRANCH  21  22
ATOM     22  C   UNL     1       2.002   7.782  17.821  0.00  0.00    +0.000 C 
BRANCH  22  24
ATOM     23  O   UNL     1       1.448   8.836  19.900  0.00  0.00    +0.000 OA
ATOM     24  C   UNL     1       1.591   8.969  18.687  0.00  0.00    +0.000 C 
ATOM     25  N   UNL     1       1.398  10.149  17.975  0.00  0.00    +0.000 N 
ATOM     26  H   UNL     1       1.510  10.097  16.970  0.00  0.00    +0.000 HD
BRANCH  25  27
ATOM     27  C   UNL     1       1.107  11.424  18.502  0.00  0.00    +0.000 A 
ATOM     28  C   UNL     1      -0.163  11.818  18.923  0.00  0.00    +0.000 A 
ATOM     29  C   UNL     1      -0.378  13.093  19.461  0.00  0.00    +0.000 A 
ATOM     30  C   UNL     1       0.679  13.990  19.611  0.00  0.00    +0.000 A 
ATOM     31  C   UNL     1       1.950  13.608  19.180  0.00  0.00    +0.000 A 
ATOM     32  C   UNL     1       2.163  12.333  18.635  0.00  0.00    +0.000 A 
BRANCH  30  33
ATOM     33  S   UNL     1       0.354  15.611  20.270  0.00  0.00    +0.000 S 
BRANCH  33  34
ATOM     34  C   UNL     1      -0.435  16.381  18.838  0.00  0.00    +0.000 C 
ATOM     35  F   UNL     1      -1.042  17.542  19.190  0.00  0.00    +0.000 F 
ATOM     36  F   UNL     1       0.511  16.711  17.920  0.00  0.00    +0.000 F 
ENDBRANCH  33  34
ENDBRANCH  30  33
ENDBRANCH  25  27
ENDBRANCH  22  24
ENDBRANCH  21  22
ENDBRANCH   1  21
TORSDOF 8
ENDMDL
MODEL 8
REMARK VINA RESULT:      -7.8      1.431      1.575
REMARK  Name = 
REMARK  8 active torsions:
REMARK  status: ('A' for Active; 'I' for Inactive)
REMARK    1  A    between atoms: C_2  and  C_3
REMARK    2  A    between atoms: C_3  and  O_4
REMARK    3  A    between atoms: O_4  and  C_5
REMARK    4  A    between atoms: C_5  and  C_7
REMARK    5  A    between atoms: C_17  and  C_19
REMARK    6  A    between atoms: N_25  and  C_26
REMARK    7  A    between atoms: C_29  and  S_30
REMARK    8  A    between atoms: S_30  and  C_31
REMARK                            x       y       z     vdW  Elec       q    Type
REMARK                         _______ _______ _______ _____ _____    ______ ____
ROOT
ATOM      1  C   UNL     1       3.646   6.310  18.670  0.00  0.00    +0.000 C 
ATOM      2  O   UNL     1       3.338   6.178  19.852  0.00  0.00    +0.000 OA
ENDROOT
BRANCH   1   3
ATOM      3  C   UNL     1       4.285   5.189  17.832  0.00  0.00    +0.000 C 
ATOM      4  C   UNL     1       5.119   5.785  16.690  0.00  0.00    +0.000 C 
ATOM      5  C   UNL     1       6.320   6.452  17.289  0.00  0.00    +0.000 A 
ATOM      6  C   UNL     1       6.719   7.729  16.889  0.00  0.00    +0.000 A 
ATOM      7  C   UNL     1       7.766   8.357  17.555  0.00  0.00    +0.000 A 
ATOM      8  C   UNL     1       8.424   7.701  18.596  0.00  0.00    +0.000 A 
ATOM      9  C   UNL     1       8.042   6.410  18.975  0.00  0.00    +0.000 A 
ATOM     10  C   UNL     1       6.974   5.777  18.331  0.00  0.00    +0.000 A 
ATOM     11  C   UNL     1       6.509   4.389  18.720  0.00  0.00    +0.000 C 
ATOM     12  N   UNL     1       5.049   4.191  18.626  0.00  0.00    +0.000 N 
ATOM     13  C   UNL     1       4.492   3.177  19.422  0.00  0.00    +0.000 C 
ATOM     14  O   UNL     1       5.184   2.453  20.140  0.00  0.00    +0.000 OA
BRANCH  13  15
ATOM     15  C   UNL     1       3.013   2.968  19.486  0.00  0.00    +0.000 A 
ATOM     16  C   UNL     1       2.274   2.459  18.413  0.00  0.00    +0.000 A 
ATOM     17  C   UNL     1       0.880   2.409  18.467  0.00  0.00    +0.000 A 
ATOM     18  C   UNL     1       0.219   2.736  19.647  0.00  0.00    +0.000 A 
ATOM     19  C   UNL     1       0.954   3.111  20.771  0.00  0.00    +0.000 A 
ATOM     20  C   UNL     1       2.344   3.245  20.687  0.00  0.00    +0.000 A 
ENDBRANCH  13  15
ENDBRANCH   1   3
BRANCH   1  21
ATOM     21  O   UNL     1       3.516   7.478  17.979  0.00  0.00    +0.000 OA
BRANCH  21  22
ATOM     22  C   UNL     1       2.179   7.776  17.580  0.00  0.00    +0.000 C 
BRANCH  22  24
ATOM     23  O   UNL     1       2.098  10.171  17.622  0.00  0.00    +0.000 OA
ATOM     24  C   UNL     1       1.700   9.120  18.120  0.00  0.00    +0.000 C 
ATOM     25  N   UNL     1       0.816   9.017  19.190  0.00  0.00    +0.000 N 
ATOM     26  H   UNL     1       0.612   8.083  19.523  0.00  0.00    +0.000 HD
BRANCH  25  27
ATOM     27  C   UNL     1       0.136  10.069  19.837  0.00  0.00    +0.000 A 
ATOM     28  C   UNL     1      -0.914  10.785  19.262  0.00  0.00    +0.000 A 
ATOM     29  C   UNL     1      -1.562  11.804  19.970  0.00  0.00    +0.000 A 
ATOM     30  C   UNL     1      -1.189  12.111  21.277  0.00  0.00    +0.000 A 
ATOM     31  C   UNL     1      -0.131  11.409  21.856  0.00  0.00    +0.000 A 
ATOM     32  C   UNL     1       0.523  10.393  21.143  0.00  0.00    +0.000 A 
BRANCH  30  33
ATOM     33  S   UNL     1      -2.020  13.435  22.128  0.00  0.00    +0.000 S 
BRANCH  33  34
ATOM     34  C   UNL     1      -0.846  14.778  21.844  0.00  0.00    +0.000 C 
ATOM     35  F   UNL     1       0.257  14.625  22.620  0.00  0.00    +0.000 F 
ATOM     36  F   UNL     1      -0.412  14.739  20.556  0.00  0.00    +0.000 F 
ENDBRANCH  33  34
ENDBRANCH  30  33
ENDBRANCH  25  27
ENDBRANCH  22  24
ENDBRANCH  21  22
ENDBRANCH   1  21
TORSDOF 8
ENDMDL
MODEL 9
REMARK VINA RESULT:      -7.7      1.919      2.352
REMARK  Name = 
REMARK  8 active torsions:
REMARK  status: ('A' for Active; 'I' for Inactive)
REMARK    1  A    between atoms: C_2  and  C_3
REMARK    2  A    between atoms: C_3  and  O_4
REMARK    3  A    between atoms: O_4  and  C_5
REMARK    4  A    between atoms: C_5  and  C_7
REMARK    5  A    between atoms: C_17  and  C_19
REMARK    6  A    between atoms: N_25  and  C_26
REMARK    7  A    between atoms: C_29  and  S_30
REMARK    8  A    between atoms: S_30  and  C_31
REMARK                            x       y       z     vdW  Elec       q    Type
REMARK                         _______ _______ _______ _____ _____    ______ ____
ROOT
ATOM      1  C   UNL     1       3.688   6.303  18.559  0.00  0.00    +0.000 C 
ATOM      2  O   UNL     1       3.716   6.362  19.786  0.00  0.00    +0.000 OA
ENDROOT
BRANCH   1   3
ATOM      3  C   UNL     1       4.359   5.178  17.752  0.00  0.00    +0.000 C 
ATOM      4  C   UNL     1       5.230   5.767  16.634  0.00  0.00    +0.000 C 
ATOM      5  C   UNL     1       6.407   6.443  17.268  0.00  0.00    +0.000 A 
ATOM      6  C   UNL     1       6.816   7.719  16.872  0.00  0.00    +0.000 A 
ATOM      7  C   UNL     1       7.838   8.355  17.568  0.00  0.00    +0.000 A 
ATOM      8  C   UNL     1       8.462   7.710  18.636  0.00  0.00    +0.000 A 
ATOM      9  C   UNL     1       8.071   6.420  19.011  0.00  0.00    +0.000 A 
ATOM     10  C   UNL     1       7.029   5.778  18.337  0.00  0.00    +0.000 A 
ATOM     11  C   UNL     1       6.555   4.391  18.721  0.00  0.00    +0.000 C 
ATOM     12  N   UNL     1       5.100   4.188  18.579  0.00  0.00    +0.000 N 
ATOM     13  C   UNL     1       4.519   3.178  19.363  0.00  0.00    +0.000 C 
ATOM     14  O   UNL     1       5.189   2.462  20.109  0.00  0.00    +0.000 OA
BRANCH  13  15
ATOM     15  C   UNL     1       3.039   2.964  19.378  0.00  0.00    +0.000 A 
ATOM     16  C   UNL     1       2.209   3.488  20.374  0.00  0.00    +0.000 A 
ATOM     17  C   UNL     1       0.856   3.150  20.426  0.00  0.00    +0.000 A 
ATOM     18  C   UNL     1       0.289   2.398  19.401  0.00  0.00    +0.000 A 
ATOM     19  C   UNL     1       1.077   1.986  18.327  0.00  0.00    +0.000 A 
ATOM     20  C   UNL     1       2.451   2.252  18.323  0.00  0.00    +0.000 A 
ENDBRANCH  13  15
ENDBRANCH   1   3
BRANCH   1  21
ATOM     21  O   UNL     1       3.117   7.253  17.767  0.00  0.00    +0.000 OA
BRANCH  21  22
ATOM     22  C   UNL     1       1.816   7.659  18.186  0.00  0.00    +0.000 C 
BRANCH  22  24
ATOM     23  O   UNL     1       2.324   9.903  17.517  0.00  0.00    +0.000 OA
ATOM     24  C   UNL     1       1.682   9.177  18.272  0.00  0.00    +0.000 C 
ATOM     25  N   UNL     1       0.802   9.612  19.259  0.00  0.00    +0.000 N 
ATOM     26  H   UNL     1       0.376   8.898  19.836  0.00  0.00    +0.000 HD
BRANCH  25  27
ATOM     27  C   UNL     1       0.403  10.940  19.518  0.00  0.00    +0.000 A 
ATOM     28  C   UNL     1       0.955  11.735  20.522  0.00  0.00    +0.000 A 
ATOM     29  C   UNL     1       0.528  13.055  20.709  0.00  0.00    +0.000 A 
ATOM     30  C   UNL     1      -0.443  13.614  19.880  0.00  0.00    +0.000 A 
ATOM     31  C   UNL     1      -1.010  12.821  18.881  0.00  0.00    +0.000 A 
ATOM     32  C   UNL     1      -0.587  11.496  18.699  0.00  0.00    +0.000 A 
BRANCH  30  33
ATOM     33  S   UNL     1      -0.978  15.285  20.174  0.00  0.00    +0.000 S 
BRANCH  33  34
ATOM     34  C   UNL     1      -0.227  16.111  18.755  0.00  0.00    +0.000 C 
ATOM     35  F   UNL     1       0.103  17.392  19.062  0.00  0.00    +0.000 F 
ATOM     36  F   UNL     1       0.936  15.488  18.428  0.00  0.00    +0.000 F 
ENDBRANCH  33  34
ENDBRANCH  30  33
ENDBRANCH  25  27
ENDBRANCH  22  24
ENDBRANCH  21  22
ENDBRANCH   1  21
TORSDOF 8
ENDMDL
