MODEL 1
REMARK VINA RESULT:      -6.6      0.000      0.000
REMARK  Name = 
REMARK  5 active torsions:
REMARK  status: ('A' for Active; 'I' for Inactive)
REMARK    1  A    between atoms: C_1  and  N_2
REMARK    2  A    between atoms: C_4  and  C_5
REMARK    3  A    between atoms: C_5  and  N_6
REMARK    4  A    between atoms: N_14  and  S_15
REMARK    5  A    between atoms: S_15  and  C_16
REMARK                            x       y       z     vdW  Elec       q    Type
REMARK                         _______ _______ _______ _____ _____    ______ ____
ROOT
ATOM      1  N   UNL     1       1.866   5.129  20.312  0.00  0.00    +0.000 NA
ATOM      2  C   UNL     1       2.151   4.253  21.470  0.00  0.00    +0.000 C 
ATOM      3  C   UNL     1       2.737   2.838  21.237  0.00  0.00    +0.000 C 
ATOM      4  C   UNL     1       2.753   2.299  19.805  0.00  0.00    +0.000 C 
ATOM      5  C   UNL     1       2.877   3.390  18.708  0.00  0.00    +0.000 C 
ATOM      6  C   UNL     1       2.329   2.722  17.392  0.00  0.00    +0.000 C 
ATOM      7  C   UNL     1       3.191   3.160  16.253  0.00  0.00    +0.000 C 
ATOM      8  C   UNL     1       4.594   3.295  16.800  0.00  0.00    +0.000 C 
ATOM      9  N   UNL     1       4.559   3.706  18.338  0.00  0.00    +0.000 NA
ATOM     10  C   UNL     1       1.705   4.342  19.101  0.00  0.00    +0.000 C 
ENDROOT
BRANCH   9  11
ATOM     11  S   UNL     1       5.908   5.160  18.558  0.00  0.00    +0.000 S 
ATOM     12  C   UNL     1       7.501   4.736  17.714  0.00  0.00    +0.000 C 
ATOM     13  O   UNL     1       5.398   6.314  17.847  0.00  0.00    +0.000 OA
ATOM     14  O   UNL     1       6.363   5.296  19.917  0.00  0.00    +0.000 OA
ENDBRANCH   9  11
BRANCH   1  15
ATOM     15  C   UNL     1       2.929   6.089  20.026  0.00  0.00    +0.000 C 
BRANCH  15  19
ATOM     16  C   UNL     1       0.191  10.331  19.893  0.00  0.00    +0.000 C 
ATOM     17  N   UNL     1       1.034   9.210  19.579  0.00  0.00    +0.000 N 
ATOM     18  C   UNL     1       1.511   8.242  20.409  0.00  0.00    +0.000 A 
ATOM     19  C   UNL     1       2.345   7.436  19.653  0.00  0.00    +0.000 A 
ATOM     20  C   UNL     1       2.304   8.089  18.392  0.00  0.00    +0.000 A 
ATOM     21  N   UNL     1       1.452   9.095  18.320  0.00  0.00    +0.000 NA
ENDBRANCH  15  19
ENDBRANCH   1  15
TORSDOF 3
ENDMDL
MODEL 2
REMARK VINA RESULT:      -6.0      2.463      5.144
REMARK  Name = 
REMARK  5 active torsions:
REMARK  status: ('A' for Active; 'I' for Inactive)
REMARK    1  A    between atoms: C_1  and  N_2
REMARK    2  A    between atoms: C_4  and  C_5
REMARK    3  A    between atoms: C_5  and  N_6
REMARK    4  A    between atoms: N_14  and  S_15
REMARK    5  A    between atoms: S_15  and  C_16
REMARK                            x       y       z     vdW  Elec       q    Type
REMARK                         _______ _______ _______ _____ _____    ______ ____
ROOT
ATOM      1  N   UNL     1       2.938   5.579  17.406  0.00  0.00    +0.000 NA
ATOM      2  C   UNL     1       3.392   6.771  18.156  0.00  0.00    +0.000 C 
ATOM      3  C   UNL     1       2.999   6.937  19.645  0.00  0.00    +0.000 C 
ATOM      4  C   UNL     1       1.933   5.994  20.211  0.00  0.00    +0.000 C 
ATOM      5  C   UNL     1       1.890   4.596  19.540  0.00  0.00    +0.000 C 
ATOM      6  C   UNL     1       0.452   4.031  19.847  0.00  0.00    +0.000 C 
ATOM      7  C   UNL     1       0.579   2.572  20.145  0.00  0.00    +0.000 C 
ATOM      8  C   UNL     1       1.902   2.390  20.854  0.00  0.00    +0.000 C 
ATOM      9  N   UNL     1       2.955   3.479  20.366  0.00  0.00    +0.000 NA
ATOM     10  C   UNL     1       1.767   4.992  18.035  0.00  0.00    +0.000 C 
ENDROOT
BRANCH   9  11
ATOM     11  S   UNL     1       4.662   2.499  20.042  0.00  0.00    +0.000 S 
ATOM     12  C   UNL     1       4.448   1.174  18.765  0.00  0.00    +0.000 C 
ATOM     13  O   UNL     1       5.585   3.448  19.453  0.00  0.00    +0.000 OA
ATOM     14  O   UNL     1       5.071   1.705  21.172  0.00  0.00    +0.000 OA
ENDBRANCH   9  11
BRANCH   1  15
ATOM     15  C   UNL     1       3.932   4.512  17.339  0.00  0.00    +0.000 C 
BRANCH  15  19
ATOM     16  C   UNL     1       7.237   4.762  13.528  0.00  0.00    +0.000 C 
ATOM     17  N   UNL     1       6.557   4.880  14.788  0.00  0.00    +0.000 N 
ATOM     18  C   UNL     1       5.291   4.500  15.115  0.00  0.00    +0.000 A 
ATOM     19  C   UNL     1       5.073   4.902  16.422  0.00  0.00    +0.000 A 
ATOM     20  C   UNL     1       6.295   5.560  16.725  0.00  0.00    +0.000 A 
ATOM     21  N   UNL     1       7.217   5.470  15.784  0.00  0.00    +0.000 NA
ENDBRANCH  15  19
ENDBRANCH   1  15
TORSDOF 3
ENDMDL
MODEL 3
REMARK VINA RESULT:      -5.9      2.628      3.876
REMARK  Name = 
REMARK  5 active torsions:
REMARK  status: ('A' for Active; 'I' for Inactive)
REMARK    1  A    between atoms: C_1  and  N_2
REMARK    2  A    between atoms: C_4  and  C_5
REMARK    3  A    between atoms: C_5  and  N_6
REMARK    4  A    between atoms: N_14  and  S_15
REMARK    5  A    between atoms: S_15  and  C_16
REMARK                            x       y       z     vdW  Elec       q    Type
REMARK                         _______ _______ _______ _____ _____    ______ ____
ROOT
ATOM      1  N   UNL     1       4.280   6.561  18.152  0.00  0.00    +0.000 NA
ATOM      2  C   UNL     1       4.557   6.488  16.700  0.00  0.00    +0.000 C 
ATOM      3  C   UNL     1       4.998   5.144  16.069  0.00  0.00    +0.000 C 
ATOM      4  C   UNL     1       5.387   4.005  17.015  0.00  0.00    +0.000 C 
ATOM      5  C   UNL     1       4.654   4.027  18.383  0.00  0.00    +0.000 C 
ATOM      6  C   UNL     1       5.558   3.176  19.353  0.00  0.00    +0.000 C 
ATOM      7  C   UNL     1       4.662   2.360  20.227  0.00  0.00    +0.000 C 
ATOM      8  C   UNL     1       3.462   1.985  19.387  0.00  0.00    +0.000 C 
ATOM      9  N   UNL     1       3.164   3.111  18.301  0.00  0.00    +0.000 NA
ATOM     10  C   UNL     1       4.952   5.483  18.857  0.00  0.00    +0.000 C 
ENDROOT
BRANCH   9  11
ATOM     11  S   UNL     1       1.194   3.423  18.347  0.00  0.00    +0.000 S 
ATOM     12  C   UNL     1       0.673   4.215  19.939  0.00  0.00    +0.000 C 
ATOM     13  O   UNL     1       0.901   4.403  17.322  0.00  0.00    +0.000 OA
ATOM     14  O   UNL     1       0.438   2.198  18.410  0.00  0.00    +0.000 OA
ENDBRANCH   9  11
BRANCH   1  15
ATOM     15  C   UNL     1       2.864   6.436  18.487  0.00  0.00    +0.000 C 
BRANCH  15  19
ATOM     16  C   UNL     1       0.356  10.306  20.547  0.00  0.00    +0.000 C 
ATOM     17  N   UNL     1       1.047   9.413  19.659  0.00  0.00    +0.000 N 
ATOM     18  C   UNL     1       1.677   8.240  19.947  0.00  0.00    +0.000 A 
ATOM     19  C   UNL     1       2.261   7.796  18.773  0.00  0.00    +0.000 A 
ATOM     20  C   UNL     1       1.932   8.848  17.876  0.00  0.00    +0.000 A 
ATOM     21  N   UNL     1       1.130   9.770  18.378  0.00  0.00    +0.000 NA
ENDBRANCH  15  19
ENDBRANCH   1  15
TORSDOF 3
ENDMDL
MODEL 4
REMARK VINA RESULT:      -5.9      3.414      6.535
REMARK  Name = 
REMARK  5 active torsions:
REMARK  status: ('A' for Active; 'I' for Inactive)
REMARK    1  A    between atoms: C_1  and  N_2
REMARK    2  A    between atoms: C_4  and  C_5
REMARK    3  A    between atoms: C_5  and  N_6
REMARK    4  A    between atoms: N_14  and  S_15
REMARK    5  A    between atoms: S_15  and  C_16
REMARK                            x       y       z     vdW  Elec       q    Type
REMARK                         _______ _______ _______ _____ _____    ______ ____
ROOT
ATOM      1  N   UNL     1       6.591   5.067  16.282  0.00  0.00    +0.000 NA
ATOM      2  C   UNL     1       7.511   4.666  17.370  0.00  0.00    +0.000 C 
ATOM      3  C   UNL     1       7.142   4.975  18.842  0.00  0.00    +0.000 C 
ATOM      4  C   UNL     1       5.964   5.920  19.099  0.00  0.00    +0.000 C 
ATOM      5  C   UNL     1       4.865   5.890  18.003  0.00  0.00    +0.000 C 
ATOM      6  C   UNL     1       4.090   7.253  18.154  0.00  0.00    +0.000 C 
ATOM      7  C   UNL     1       2.635   6.987  17.947  0.00  0.00    +0.000 C 
ATOM      8  C   UNL     1       2.363   5.610  18.511  0.00  0.00    +0.000 C 
ATOM      9  N   UNL     1       3.652   4.684  18.377  0.00  0.00    +0.000 NA
ATOM     10  C   UNL     1       5.717   6.141  16.720  0.00  0.00    +0.000 C 
ENDROOT
BRANCH   9  11
ATOM     11  S   UNL     1       3.006   2.926  17.690  0.00  0.00    +0.000 S 
ATOM     12  C   UNL     1       1.658   2.238  18.758  0.00  0.00    +0.000 C 
ATOM     13  O   UNL     1       2.383   3.181  16.408  0.00  0.00    +0.000 OA
ATOM     14  O   UNL     1       3.993   1.884  17.816  0.00  0.00    +0.000 OA
ENDBRANCH   9  11
BRANCH   1  15
ATOM     15  C   UNL     1       5.709   3.993  15.833  0.00  0.00    +0.000 C 
BRANCH  15  19
ATOM     16  C   UNL     1       4.406   3.112  11.033  0.00  0.00    +0.000 C 
ATOM     17  N   UNL     1       5.110   3.406  12.251  0.00  0.00    +0.000 N 
ATOM     18  C   UNL     1       4.610   3.582  13.506  0.00  0.00    +0.000 A 
ATOM     19  C   UNL     1       5.675   3.929  14.320  0.00  0.00    +0.000 A 
ATOM     20  C   UNL     1       6.745   3.971  13.387  0.00  0.00    +0.000 A 
ATOM     21  N   UNL     1       6.429   3.570  12.168  0.00  0.00    +0.000 NA
ENDBRANCH  15  19
ENDBRANCH   1  15
TORSDOF 3
ENDMDL
MODEL 5
REMARK VINA RESULT:      -5.7      1.345      1.785
REMARK  Name = 
REMARK  5 active torsions:
REMARK  status: ('A' for Active; 'I' for Inactive)
REMARK    1  A    between atoms: C_1  and  N_2
REMARK    2  A    between atoms: C_4  and  C_5
REMARK    3  A    between atoms: C_5  and  N_6
REMARK    4  A    between atoms: N_14  and  S_15
REMARK    5  A    between atoms: S_15  and  C_16
REMARK                            x       y       z     vdW  Elec       q    Type
REMARK                         _______ _______ _______ _____ _____    ______ ____
ROOT
ATOM      1  N   UNL     1       2.448   4.746  18.756  0.00  0.00    +0.000 NA
ATOM      2  C   UNL     1       2.427   3.539  19.612  0.00  0.00    +0.000 C 
ATOM      3  C   UNL     1       3.237   2.287  19.194  0.00  0.00    +0.000 C 
ATOM      4  C   UNL     1       3.818   2.252  17.778  0.00  0.00    +0.000 C 
ATOM      5  C   UNL     1       4.170   3.645  17.193  0.00  0.00    +0.000 C 
ATOM      6  C   UNL     1       4.202   3.445  15.631  0.00  0.00    +0.000 C 
ATOM      7  C   UNL     1       5.340   4.244  15.083  0.00  0.00    +0.000 C 
ATOM      8  C   UNL     1       6.437   4.203  16.123  0.00  0.00    +0.000 C 
ATOM      9  N   UNL     1       5.819   4.082  17.586  0.00  0.00    +0.000 NA
ATOM     10  C   UNL     1       2.820   4.402  17.394  0.00  0.00    +0.000 C 
ENDROOT
BRANCH   9  11
ATOM     11  S   UNL     1       6.806   5.394  18.718  0.00  0.00    +0.000 S 
ATOM     12  C   UNL     1       6.967   7.033  17.869  0.00  0.00    +0.000 C 
ATOM     13  O   UNL     1       5.981   5.648  19.881  0.00  0.00    +0.000 OA
ATOM     14  O   UNL     1       8.196   5.052  18.884  0.00  0.00    +0.000 OA
ENDBRANCH   9  11
BRANCH   1  15
ATOM     15  C   UNL     1       3.410   5.757  19.189  0.00  0.00    +0.000 C 
BRANCH  15  19
ATOM     16  C   UNL     1       0.651   9.971  19.563  0.00  0.00    +0.000 C 
ATOM     17  N   UNL     1       1.523   8.914  19.130  0.00  0.00    +0.000 N 
ATOM     18  C   UNL     1       1.951   7.821  19.821  0.00  0.00    +0.000 A 
ATOM     19  C   UNL     1       2.841   7.148  19.003  0.00  0.00    +0.000 A 
ATOM     20  C   UNL     1       2.882   7.999  17.866  0.00  0.00    +0.000 A 
ATOM     21  N   UNL     1       2.028   9.006  17.900  0.00  0.00    +0.000 NA
ENDBRANCH  15  19
ENDBRANCH   1  15
TORSDOF 3
ENDMDL
MODEL 6
REMARK VINA RESULT:      -5.6      0.995      1.359
REMARK  Name = 
REMARK  5 active torsions:
REMARK  status: ('A' for Active; 'I' for Inactive)
REMARK    1  A    between atoms: C_1  and  N_2
REMARK    2  A    between atoms: C_4  and  C_5
REMARK    3  A    between atoms: C_5  and  N_6
REMARK    4  A    between atoms: N_14  and  S_15
REMARK    5  A    between atoms: S_15  and  C_16
REMARK                            x       y       z     vdW  Elec       q    Type
REMARK                         _______ _______ _______ _____ _____    ______ ____
ROOT
ATOM      1  N   UNL     1       1.733   4.907  20.446  0.00  0.00    +0.000 NA
ATOM      2  C   UNL     1       2.162   4.102  21.610  0.00  0.00    +0.000 C 
ATOM      3  C   UNL     1       2.850   2.733  21.386  0.00  0.00    +0.000 C 
ATOM      4  C   UNL     1       2.822   2.143  19.973  0.00  0.00    +0.000 C 
ATOM      5  C   UNL     1       2.786   3.199  18.836  0.00  0.00    +0.000 C 
ATOM      6  C   UNL     1       2.214   2.439  17.581  0.00  0.00    +0.000 C 
ATOM      7  C   UNL     1       2.964   2.903  16.374  0.00  0.00    +0.000 C 
ATOM      8  C   UNL     1       4.382   3.174  16.825  0.00  0.00    +0.000 C 
ATOM      9  N   UNL     1       4.409   3.637  18.348  0.00  0.00    +0.000 NA
ATOM     10  C   UNL     1       1.564   4.065  19.274  0.00  0.00    +0.000 C 
ENDROOT
BRANCH   9  11
ATOM     11  S   UNL     1       5.640   5.204  18.432  0.00  0.00    +0.000 S 
ATOM     12  C   UNL     1       5.003   6.620  17.421  0.00  0.00    +0.000 C 
ATOM     13  O   UNL     1       5.623   5.677  19.800  0.00  0.00    +0.000 OA
ATOM     14  O   UNL     1       6.897   4.960  17.770  0.00  0.00    +0.000 OA
ENDBRANCH   9  11
BRANCH   1  15
ATOM     15  C   UNL     1       2.691   5.940  20.060  0.00  0.00    +0.000 C 
BRANCH  15  19
ATOM     16  C   UNL     1       1.257  10.525  18.500  0.00  0.00    +0.000 C 
ATOM     17  N   UNL     1       1.506   9.328  19.256  0.00  0.00    +0.000 N 
ATOM     18  C   UNL     1       2.050   8.151  18.840  0.00  0.00    +0.000 A 
ATOM     19  C   UNL     1       2.001   7.281  19.914  0.00  0.00    +0.000 A 
ATOM     20  C   UNL     1       1.347   8.074  20.894  0.00  0.00    +0.000 A 
ATOM     21  N   UNL     1       1.131   9.327  20.535  0.00  0.00    +0.000 NA
ENDBRANCH  15  19
ENDBRANCH   1  15
TORSDOF 3
ENDMDL
MODEL 7
REMARK VINA RESULT:      -5.5      2.148      4.376
REMARK  Name = 
REMARK  5 active torsions:
REMARK  status: ('A' for Active; 'I' for Inactive)
REMARK    1  A    between atoms: C_1  and  N_2
REMARK    2  A    between atoms: C_4  and  C_5
REMARK    3  A    between atoms: C_5  and  N_6
REMARK    4  A    between atoms: N_14  and  S_15
REMARK    5  A    between atoms: S_15  and  C_16
REMARK                            x       y       z     vdW  Elec       q    Type
REMARK                         _______ _______ _______ _____ _____    ______ ____
ROOT
ATOM      1  N   UNL     1       4.656   6.966  16.450  0.00  0.00    +0.000 NA
ATOM      2  C   UNL     1       4.865   6.175  15.218  0.00  0.00    +0.000 C 
ATOM      3  C   UNL     1       6.087   5.231  15.109  0.00  0.00    +0.000 C 
ATOM      4  C   UNL     1       7.179   5.350  16.176  0.00  0.00    +0.000 C 
ATOM      5  C   UNL     1       6.671   5.820  17.565  0.00  0.00    +0.000 C 
ATOM      6  C   UNL     1       7.940   6.394  18.300  0.00  0.00    +0.000 C 
ATOM      7  C   UNL     1       7.873   5.982  19.735  0.00  0.00    +0.000 C 
ATOM      8  C   UNL     1       7.231   4.614  19.762  0.00  0.00    +0.000 C 
ATOM      9  N   UNL     1       6.211   4.448  18.551  0.00  0.00    +0.000 NA
ATOM     10  C   UNL     1       5.904   7.122  17.177  0.00  0.00    +0.000 C 
ENDROOT
BRANCH   9  11
ATOM     11  S   UNL     1       4.564   3.622  19.318  0.00  0.00    +0.000 S 
ATOM     12  C   UNL     1       3.400   3.075  17.985  0.00  0.00    +0.000 C 
ATOM     13  O   UNL     1       4.978   2.405  19.984  0.00  0.00    +0.000 OA
ATOM     14  O   UNL     1       3.735   4.575  20.010  0.00  0.00    +0.000 OA
ENDBRANCH   9  11
BRANCH   1  15
ATOM     15  C   UNL     1       3.720   6.354  17.391  0.00  0.00    +0.000 C 
BRANCH  15  19
ATOM     16  C   UNL     1       0.885   8.838  20.752  0.00  0.00    +0.000 C 
ATOM     17  N   UNL     1       1.604   8.416  19.582  0.00  0.00    +0.000 N 
ATOM     18  C   UNL     1       2.437   7.350  19.428  0.00  0.00    +0.000 A 
ATOM     19  C   UNL     1       2.949   7.418  18.144  0.00  0.00    +0.000 A 
ATOM     20  C   UNL     1       2.363   8.621  17.667  0.00  0.00    +0.000 A 
ATOM     21  N   UNL     1       1.488   9.172  18.490  0.00  0.00    +0.000 NA
ENDBRANCH  15  19
ENDBRANCH   1  15
TORSDOF 3
ENDMDL
MODEL 8
REMARK VINA RESULT:      -5.5      2.567      3.991
REMARK  Name = 
REMARK  5 active torsions:
REMARK  status: ('A' for Active; 'I' for Inactive)
REMARK    1  A    between atoms: C_1  and  N_2
REMARK    2  A    between atoms: C_4  and  C_5
REMARK    3  A    between atoms: C_5  and  N_6
REMARK    4  A    between atoms: N_14  and  S_15
REMARK    5  A    between atoms: S_15  and  C_16
REMARK                            x       y       z     vdW  Elec       q    Type
REMARK                         _______ _______ _______ _____ _____    ______ ____
ROOT
ATOM      1  N   UNL     1       4.324   6.981  17.734  0.00  0.00    +0.000 NA
ATOM      2  C   UNL     1       4.544   6.775  16.285  0.00  0.00    +0.000 C 
ATOM      3  C   UNL     1       5.043   5.402  15.771  0.00  0.00    +0.000 C 
ATOM      4  C   UNL     1       5.544   4.391  16.807  0.00  0.00    +0.000 C 
ATOM      5  C   UNL     1       4.870   4.510  18.200  0.00  0.00    +0.000 C 
ATOM      6  C   UNL     1       5.866   3.820  19.205  0.00  0.00    +0.000 C 
ATOM      7  C   UNL     1       5.063   3.046  20.199  0.00  0.00    +0.000 C 
ATOM      8  C   UNL     1       3.855   2.516  19.460  0.00  0.00    +0.000 C 
ATOM      9  N   UNL     1       3.439   3.504  18.282  0.00  0.00    +0.000 NA
ATOM     10  C   UNL     1       5.093   6.023  18.510  0.00  0.00    +0.000 C 
ENDROOT
BRANCH   9  11
ATOM     11  S   UNL     1       1.457   3.701  18.392  0.00  0.00    +0.000 S 
ATOM     12  C   UNL     1       0.625   2.056  18.578  0.00  0.00    +0.000 C 
ATOM     13  O   UNL     1       1.175   4.409  19.623  0.00  0.00    +0.000 OA
ATOM     14  O   UNL     1       0.873   4.148  17.154  0.00  0.00    +0.000 OA
ENDBRANCH   9  11
BRANCH   1  15
ATOM     15  C   UNL     1       2.935   6.807  18.148  0.00  0.00    +0.000 C 
BRANCH  15  19
ATOM     16  C   UNL     1       0.354  10.443  20.522  0.00  0.00    +0.000 C 
ATOM     17  N   UNL     1       1.086   9.651  19.571  0.00  0.00    +0.000 N 
ATOM     18  C   UNL     1       1.685   8.441  19.748  0.00  0.00    +0.000 A 
ATOM     19  C   UNL     1       2.331   8.133  18.564  0.00  0.00    +0.000 A 
ATOM     20  C   UNL     1       2.068   9.292  17.786  0.00  0.00    +0.000 A 
ATOM     21  N   UNL     1       1.248  10.160  18.351  0.00  0.00    +0.000 NA
ENDBRANCH  15  19
ENDBRANCH   1  15
TORSDOF 3
ENDMDL
MODEL 9
REMARK VINA RESULT:      -5.4      3.666      6.964
REMARK  Name = 
REMARK  5 active torsions:
REMARK  status: ('A' for Active; 'I' for Inactive)
REMARK    1  A    between atoms: C_1  and  N_2
REMARK    2  A    between atoms: C_4  and  C_5
REMARK    3  A    between atoms: C_5  and  N_6
REMARK    4  A    between atoms: N_14  and  S_15
REMARK    5  A    between atoms: S_15  and  C_16
REMARK                            x       y       z     vdW  Elec       q    Type
REMARK                         _______ _______ _______ _____ _____    ______ ____
ROOT
ATOM      1  N   UNL     1       5.901   5.649  15.264  0.00  0.00    +0.000 NA
ATOM      2  C   UNL     1       7.138   5.399  16.036  0.00  0.00    +0.000 C 
ATOM      3  C   UNL     1       7.184   5.739  17.546  0.00  0.00    +0.000 C 
ATOM      4  C   UNL     1       6.035   6.568  18.126  0.00  0.00    +0.000 C 
ATOM      5  C   UNL     1       4.673   6.371  17.406  0.00  0.00    +0.000 C 
ATOM      6  C   UNL     1       3.827   7.652  17.759  0.00  0.00    +0.000 C 
ATOM      7  C   UNL     1       2.415   7.226  17.997  0.00  0.00    +0.000 C 
ATOM      8  C   UNL     1       2.479   5.857  18.638  0.00  0.00    +0.000 C 
ATOM      9  N   UNL     1       3.769   5.065  18.142  0.00  0.00    +0.000 NA
ATOM     10  C   UNL     1       5.077   6.647  15.925  0.00  0.00    +0.000 C 
ENDROOT
BRANCH   9  11
ATOM     11  S   UNL     1       3.154   3.218  17.706  0.00  0.00    +0.000 S 
ATOM     12  C   UNL     1       2.286   2.437  19.144  0.00  0.00    +0.000 C 
ATOM     13  O   UNL     1       2.144   3.346  16.676  0.00  0.00    +0.000 OA
ATOM     14  O   UNL     1       4.247   2.296  17.531  0.00  0.00    +0.000 OA
ENDBRANCH   9  11
BRANCH   1  15
ATOM     15  C   UNL     1       5.054   4.469  15.113  0.00  0.00    +0.000 C 
BRANCH  15  19
ATOM     16  C   UNL     1       7.380   2.458  11.106  0.00  0.00    +0.000 C 
ATOM     17  N   UNL     1       6.423   3.002  12.030  0.00  0.00    +0.000 N 
ATOM     18  C   UNL     1       6.602   3.366  13.330  0.00  0.00    +0.000 A 
ATOM     19  C   UNL     1       5.364   3.751  13.816  0.00  0.00    +0.000 A 
ATOM     20  C   UNL     1       4.529   3.508  12.693  0.00  0.00    +0.000 A 
ATOM     21  N   UNL     1       5.172   3.147  11.596  0.00  0.00    +0.000 NA
ENDBRANCH  15  19
ENDBRANCH   1  15
TORSDOF 3
ENDMDL
