MODEL 1
REMARK VINA RESULT:      -8.4      0.000      0.000
REMARK  Name = 
REMARK  7 active torsions:
REMARK  status: ('A' for Active; 'I' for Inactive)
REMARK    1  A    between atoms: C_1  and  S_2
REMARK    2  A    between atoms: S_2  and  C_5
REMARK    3  A    between atoms: C_5  and  C_6
REMARK    4  A    between atoms: C_10  and  S_11
REMARK    5  A    between atoms: S_11  and  C_12
REMARK    6  A    between atoms: C_18  and  S_19
REMARK    7  A    between atoms: S_19  and  C_20
REMARK                            x       y       z     vdW  Elec       q    Type
REMARK                         _______ _______ _______ _____ _____    ______ ____
ROOT
ATOM      1  C   UNL     1       2.572   5.551  20.407  0.00  0.00    +0.000 A 
ATOM      2  N   UNL     1       1.932   6.635  20.974  0.00  0.00    +0.000 N 
ATOM      3  C   UNL     1       1.793   7.649  20.053  0.00  0.00    +0.000 A 
ATOM      4  C   UNL     1       1.186   8.906  20.191  0.00  0.00    +0.000 A 
ATOM      5  C   UNL     1       1.182   9.738  19.063  0.00  0.00    +0.000 A 
ATOM      6  C   UNL     1       1.765   9.343  17.860  0.00  0.00    +0.000 A 
ATOM      7  C   UNL     1       2.364   8.080  17.751  0.00  0.00    +0.000 A 
ATOM      8  C   UNL     1       2.392   7.218  18.868  0.00  0.00    +0.000 A 
ATOM      9  C   UNL     1       2.920   5.917  19.123  0.00  0.00    +0.000 A 
ATOM     10  H   UNL     1       1.540   6.651  21.911  0.00  0.00    +0.000 HD
ENDROOT
BRANCH   5  11
ATOM     11  S   UNL     1       0.479  11.371  19.190  0.00  0.00    +0.000 S 
ATOM     12  C   UNL     1       0.384  11.651  20.938  0.00  0.00    +0.000 C 
ATOM     13  O   UNL     1       1.439  12.306  18.635  0.00  0.00    +0.000 OA
ATOM     14  O   UNL     1      -0.874  11.301  18.672  0.00  0.00    +0.000 OA
ENDBRANCH   5  11
BRANCH   1  15
ATOM     15  C   UNL     1       2.768   4.277  21.167  0.00  0.00    +0.000 C 
BRANCH  15  17
ATOM     16  C   UNL     1       2.044   2.027  19.615  0.00  0.00    +0.000 C 
ATOM     17  S   UNL     1       1.412   3.140  20.852  0.00  0.00    +0.000 S 
ATOM     18  O   UNL     1       0.316   3.892  20.262  0.00  0.00    +0.000 OA
ATOM     19  O   UNL     1       1.193   2.366  22.059  0.00  0.00    +0.000 OA
ENDBRANCH  15  17
ENDBRANCH   1  15
BRANCH   9  20
ATOM     20  S   UNL     1       3.796   4.929  17.968  0.00  0.00    +0.000 S 
BRANCH  20  21
ATOM     21  C   UNL     1       5.454   5.611  18.082  0.00  0.00    +0.000 A 
ATOM     22  C   UNL     1       6.212   5.329  19.228  0.00  0.00    +0.000 A 
ATOM     23  C   UNL     1       7.504   5.835  19.384  0.00  0.00    +0.000 A 
ATOM     24  C   UNL     1       8.057   6.648  18.399  0.00  0.00    +0.000 A 
ATOM     25  C   UNL     1       7.314   6.956  17.260  0.00  0.00    +0.000 A 
ATOM     26  C   UNL     1       6.018   6.445  17.102  0.00  0.00    +0.000 A 
ATOM     27 CL   UNL     1       5.162   6.899  15.666  0.00  0.00    +0.000 Cl
ENDBRANCH  20  21
ENDBRANCH   9  20
TORSDOF 5
ENDMDL
MODEL 2
REMARK VINA RESULT:      -7.9      1.219      1.375
REMARK  Name = 
REMARK  7 active torsions:
REMARK  status: ('A' for Active; 'I' for Inactive)
REMARK    1  A    between atoms: C_1  and  S_2
REMARK    2  A    between atoms: S_2  and  C_5
REMARK    3  A    between atoms: C_5  and  C_6
REMARK    4  A    between atoms: C_10  and  S_11
REMARK    5  A    between atoms: S_11  and  C_12
REMARK    6  A    between atoms: C_18  and  S_19
REMARK    7  A    between atoms: S_19  and  C_20
REMARK                            x       y       z     vdW  Elec       q    Type
REMARK                         _______ _______ _______ _____ _____    ______ ____
ROOT
ATOM      1  C   UNL     1       2.758   5.422  19.999  0.00  0.00    +0.000 A 
ATOM      2  N   UNL     1       2.220   6.426  20.780  0.00  0.00    +0.000 N 
ATOM      3  C   UNL     1       1.976   7.549  20.020  0.00  0.00    +0.000 A 
ATOM      4  C   UNL     1       1.415   8.778  20.394  0.00  0.00    +0.000 A 
ATOM      5  C   UNL     1       1.276   9.746  19.391  0.00  0.00    +0.000 A 
ATOM      6  C   UNL     1       1.684   9.506  18.080  0.00  0.00    +0.000 A 
ATOM      7  C   UNL     1       2.241   8.267  17.734  0.00  0.00    +0.000 A 
ATOM      8  C   UNL     1       2.403   7.271  18.720  0.00  0.00    +0.000 A 
ATOM      9  C   UNL     1       2.937   5.947  18.736  0.00  0.00    +0.000 A 
ATOM     10  H   UNL     1       1.957   6.324  21.755  0.00  0.00    +0.000 HD
ENDROOT
BRANCH   5  11
ATOM     11  S   UNL     1       0.626  11.351  19.816  0.00  0.00    +0.000 S 
ATOM     12  C   UNL     1       1.443  12.446  18.686  0.00  0.00    +0.000 C 
ATOM     13  O   UNL     1      -0.790  11.349  19.499  0.00  0.00    +0.000 OA
ATOM     14  O   UNL     1       1.085  11.663  21.156  0.00  0.00    +0.000 OA
ENDBRANCH   5  11
BRANCH   1  15
ATOM     15  C   UNL     1       3.031   4.062  20.561  0.00  0.00    +0.000 C 
BRANCH  15  17
ATOM     16  C   UNL     1       1.675   1.872  19.395  0.00  0.00    +0.000 C 
ATOM     17  S   UNL     1       1.512   3.106  20.666  0.00  0.00    +0.000 S 
ATOM     18  O   UNL     1       0.402   3.976  20.310  0.00  0.00    +0.000 OA
ATOM     19  O   UNL     1       1.510   2.416  21.942  0.00  0.00    +0.000 OA
ENDBRANCH  15  17
ENDBRANCH   1  15
BRANCH   9  20
ATOM     20  S   UNL     1       3.632   5.112  17.359  0.00  0.00    +0.000 S 
BRANCH  20  21
ATOM     21  C   UNL     1       5.374   5.070  17.793  0.00  0.00    +0.000 A 
ATOM     22  C   UNL     1       5.766   5.624  19.021  0.00  0.00    +0.000 A 
ATOM     23  C   UNL     1       7.106   5.632  19.416  0.00  0.00    +0.000 A 
ATOM     24  C   UNL     1       8.082   5.098  18.580  0.00  0.00    +0.000 A 
ATOM     25  C   UNL     1       7.716   4.560  17.346  0.00  0.00    +0.000 A 
ATOM     26  C   UNL     1       6.370   4.548  16.951  0.00  0.00    +0.000 A 
ATOM     27 CL   UNL     1       6.012   3.881  15.394  0.00  0.00    +0.000 Cl
ENDBRANCH  20  21
ENDBRANCH   9  20
TORSDOF 5
ENDMDL
MODEL 3
REMARK VINA RESULT:      -7.8      1.228      1.579
REMARK  Name = 
REMARK  7 active torsions:
REMARK  status: ('A' for Active; 'I' for Inactive)
REMARK    1  A    between atoms: C_1  and  S_2
REMARK    2  A    between atoms: S_2  and  C_5
REMARK    3  A    between atoms: C_5  and  C_6
REMARK    4  A    between atoms: C_10  and  S_11
REMARK    5  A    between atoms: S_11  and  C_12
REMARK    6  A    between atoms: C_18  and  S_19
REMARK    7  A    between atoms: S_19  and  C_20
REMARK                            x       y       z     vdW  Elec       q    Type
REMARK                         _______ _______ _______ _____ _____    ______ ____
ROOT
ATOM      1  C   UNL     1       2.630   5.717  20.114  0.00  0.00    +0.000 A 
ATOM      2  N   UNL     1       1.958   6.675  20.847  0.00  0.00    +0.000 N 
ATOM      3  C   UNL     1       1.705   7.786  20.073  0.00  0.00    +0.000 A 
ATOM      4  C   UNL     1       1.031   8.971  20.400  0.00  0.00    +0.000 A 
ATOM      5  C   UNL     1       0.914   9.937  19.391  0.00  0.00    +0.000 A 
ATOM      6  C   UNL     1       1.452   9.737  18.121  0.00  0.00    +0.000 A 
ATOM      7  C   UNL     1       2.120   8.541  17.821  0.00  0.00    +0.000 A 
ATOM      8  C   UNL     1       2.263   7.549  18.814  0.00  0.00    +0.000 A 
ATOM      9  C   UNL     1       2.883   6.265  18.873  0.00  0.00    +0.000 A 
ATOM     10  H   UNL     1       1.618   6.547  21.795  0.00  0.00    +0.000 HD
ENDROOT
BRANCH   5  11
ATOM     11  S   UNL     1       0.121  11.489  19.762  0.00  0.00    +0.000 S 
ATOM     12  C   UNL     1       1.466  12.641  19.829  0.00  0.00    +0.000 C 
ATOM     13  O   UNL     1      -0.715  11.836  18.629  0.00  0.00    +0.000 OA
ATOM     14  O   UNL     1      -0.444  11.380  21.094  0.00  0.00    +0.000 OA
ENDBRANCH   5  11
BRANCH   1  15
ATOM     15  C   UNL     1       2.945   4.374  20.692  0.00  0.00    +0.000 C 
BRANCH  15  17
ATOM     16  C   UNL     1       1.829   2.118  19.403  0.00  0.00    +0.000 C 
ATOM     17  S   UNL     1       1.489   3.320  20.671  0.00  0.00    +0.000 S 
ATOM     18  O   UNL     1       0.355   4.121  20.238  0.00  0.00    +0.000 OA
ATOM     19  O   UNL     1       1.435   2.612  21.936  0.00  0.00    +0.000 OA
ENDBRANCH  15  17
ENDBRANCH   1  15
BRANCH   9  20
ATOM     20  S   UNL     1       3.751   5.492  17.559  0.00  0.00    +0.000 S 
BRANCH  20  21
ATOM     21  C   UNL     1       5.440   6.018  17.874  0.00  0.00    +0.000 A 
ATOM     22  C   UNL     1       5.902   7.181  17.240  0.00  0.00    +0.000 A 
ATOM     23  C   UNL     1       7.207   7.641  17.434  0.00  0.00    +0.000 A 
ATOM     24  C   UNL     1       8.079   6.934  18.257  0.00  0.00    +0.000 A 
ATOM     25  C   UNL     1       7.646   5.765  18.882  0.00  0.00    +0.000 A 
ATOM     26  C   UNL     1       6.334   5.306  18.690  0.00  0.00    +0.000 A 
ATOM     27 CL   UNL     1       5.891   3.834  19.487  0.00  0.00    +0.000 Cl
ENDBRANCH  20  21
ENDBRANCH   9  20
TORSDOF 5
ENDMDL
MODEL 4
REMARK VINA RESULT:      -7.7      1.317      1.662
REMARK  Name = 
REMARK  7 active torsions:
REMARK  status: ('A' for Active; 'I' for Inactive)
REMARK    1  A    between atoms: C_1  and  S_2
REMARK    2  A    between atoms: S_2  and  C_5
REMARK    3  A    between atoms: C_5  and  C_6
REMARK    4  A    between atoms: C_10  and  S_11
REMARK    5  A    between atoms: S_11  and  C_12
REMARK    6  A    between atoms: C_18  and  S_19
REMARK    7  A    between atoms: S_19  and  C_20
REMARK                            x       y       z     vdW  Elec       q    Type
REMARK                         _______ _______ _______ _____ _____    ______ ____
ROOT
ATOM      1  C   UNL     1       2.699   5.659  19.991  0.00  0.00    +0.000 A 
ATOM      2  N   UNL     1       1.992   6.580  20.736  0.00  0.00    +0.000 N 
ATOM      3  C   UNL     1       1.755   7.719  19.998  0.00  0.00    +0.000 A 
ATOM      4  C   UNL     1       1.057   8.884  20.347  0.00  0.00    +0.000 A 
ATOM      5  C   UNL     1       0.965   9.887  19.374  0.00  0.00    +0.000 A 
ATOM      6  C   UNL     1       1.549   9.743  18.116  0.00  0.00    +0.000 A 
ATOM      7  C   UNL     1       2.240   8.567  17.793  0.00  0.00    +0.000 A 
ATOM      8  C   UNL     1       2.358   7.537  18.752  0.00  0.00    +0.000 A 
ATOM      9  C   UNL     1       2.989   6.257  18.782  0.00  0.00    +0.000 A 
ATOM     10  H   UNL     1       1.621   6.412  21.666  0.00  0.00    +0.000 HD
ENDROOT
BRANCH   5  11
ATOM     11  S   UNL     1       0.144  11.416  19.777  0.00  0.00    +0.000 S 
ATOM     12  C   UNL     1      -1.492  11.196  19.131  0.00  0.00    +0.000 C 
ATOM     13  O   UNL     1       0.051  11.498  21.223  0.00  0.00    +0.000 OA
ATOM     14  O   UNL     1       0.789  12.469  19.016  0.00  0.00    +0.000 OA
ENDBRANCH   5  11
BRANCH   1  15
ATOM     15  C   UNL     1       3.009   4.296  20.527  0.00  0.00    +0.000 C 
BRANCH  15  17
ATOM     16  C   UNL     1       1.689   2.084  19.359  0.00  0.00    +0.000 C 
ATOM     17  S   UNL     1       1.511   3.308  20.640  0.00  0.00    +0.000 S 
ATOM     18  O   UNL     1       0.380   4.156  20.298  0.00  0.00    +0.000 OA
ATOM     19  O   UNL     1       1.535   2.611  21.912  0.00  0.00    +0.000 OA
ENDBRANCH  15  17
ENDBRANCH   1  15
BRANCH   9  20
ATOM     20  S   UNL     1       3.911   5.545  17.471  0.00  0.00    +0.000 S 
BRANCH  20  21
ATOM     21  C   UNL     1       5.575   6.115  17.837  0.00  0.00    +0.000 A 
ATOM     22  C   UNL     1       6.032   7.282  17.207  0.00  0.00    +0.000 A 
ATOM     23  C   UNL     1       7.318   7.774  17.441  0.00  0.00    +0.000 A 
ATOM     24  C   UNL     1       8.177   7.097  18.302  0.00  0.00    +0.000 A 
ATOM     25  C   UNL     1       7.750   5.925  18.924  0.00  0.00    +0.000 A 
ATOM     26  C   UNL     1       6.457   5.432  18.692  0.00  0.00    +0.000 A 
ATOM     27 CL   UNL     1       6.021   3.958  19.489  0.00  0.00    +0.000 Cl
ENDBRANCH  20  21
ENDBRANCH   9  20
TORSDOF 5
ENDMDL
MODEL 5
REMARK VINA RESULT:      -7.7      1.036      1.247
REMARK  Name = 
REMARK  7 active torsions:
REMARK  status: ('A' for Active; 'I' for Inactive)
REMARK    1  A    between atoms: C_1  and  S_2
REMARK    2  A    between atoms: S_2  and  C_5
REMARK    3  A    between atoms: C_5  and  C_6
REMARK    4  A    between atoms: C_10  and  S_11
REMARK    5  A    between atoms: S_11  and  C_12
REMARK    6  A    between atoms: C_18  and  S_19
REMARK    7  A    between atoms: S_19  and  C_20
REMARK                            x       y       z     vdW  Elec       q    Type
REMARK                         _______ _______ _______ _____ _____    ______ ____
ROOT
ATOM      1  C   UNL     1       2.561   5.622  20.363  0.00  0.00    +0.000 A 
ATOM      2  N   UNL     1       1.938   6.695  20.969  0.00  0.00    +0.000 N 
ATOM      3  C   UNL     1       1.767   7.724  20.069  0.00  0.00    +0.000 A 
ATOM      4  C   UNL     1       1.163   8.976  20.246  0.00  0.00    +0.000 A 
ATOM      5  C   UNL     1       1.121   9.827  19.133  0.00  0.00    +0.000 A 
ATOM      6  C   UNL     1       1.665   9.452  17.905  0.00  0.00    +0.000 A 
ATOM      7  C   UNL     1       2.262   8.192  17.756  0.00  0.00    +0.000 A 
ATOM      8  C   UNL     1       2.328   7.313  18.858  0.00  0.00    +0.000 A 
ATOM      9  C   UNL     1       2.866   6.009  19.075  0.00  0.00    +0.000 A 
ATOM     10  H   UNL     1       1.577   6.696  21.918  0.00  0.00    +0.000 HD
ENDROOT
BRANCH   5  11
ATOM     11  S   UNL     1       0.420  11.456  19.309  0.00  0.00    +0.000 S 
ATOM     12  C   UNL     1      -1.183  11.304  18.568  0.00  0.00    +0.000 C 
ATOM     13  O   UNL     1       0.241  11.706  20.727  0.00  0.00    +0.000 OA
ATOM     14  O   UNL     1       1.210  12.358  18.491  0.00  0.00    +0.000 OA
ENDBRANCH   5  11
BRANCH   1  15
ATOM     15  C   UNL     1       2.783   4.336  21.096  0.00  0.00    +0.000 C 
BRANCH  15  17
ATOM     16  C   UNL     1       1.177   2.225  22.074  0.00  0.00    +0.000 C 
ATOM     17  S   UNL     1       1.586   3.100  20.579  0.00  0.00    +0.000 S 
ATOM     18  O   UNL     1       2.252   2.169  19.681  0.00  0.00    +0.000 OA
ATOM     19  O   UNL     1       0.390   3.795  20.144  0.00  0.00    +0.000 OA
ENDBRANCH  15  17
ENDBRANCH   1  15
BRANCH   9  20
ATOM     20  S   UNL     1       3.705   5.041  17.876  0.00  0.00    +0.000 S 
BRANCH  20  21
ATOM     21  C   UNL     1       5.385   5.659  18.014  0.00  0.00    +0.000 A 
ATOM     22  C   UNL     1       6.123   5.329  19.161  0.00  0.00    +0.000 A 
ATOM     23  C   UNL     1       7.432   5.785  19.334  0.00  0.00    +0.000 A 
ATOM     24  C   UNL     1       8.023   6.593  18.367  0.00  0.00    +0.000 A 
ATOM     25  C   UNL     1       7.300   6.949  17.229  0.00  0.00    +0.000 A 
ATOM     26  C   UNL     1       5.987   6.489  17.052  0.00  0.00    +0.000 A 
ATOM     27 CL   UNL     1       5.159   6.999  15.620  0.00  0.00    +0.000 Cl
ENDBRANCH  20  21
ENDBRANCH   9  20
TORSDOF 5
ENDMDL
MODEL 6
REMARK VINA RESULT:      -7.7      3.281      7.358
REMARK  Name = 
REMARK  7 active torsions:
REMARK  status: ('A' for Active; 'I' for Inactive)
REMARK    1  A    between atoms: C_1  and  S_2
REMARK    2  A    between atoms: S_2  and  C_5
REMARK    3  A    between atoms: C_5  and  C_6
REMARK    4  A    between atoms: C_10  and  S_11
REMARK    5  A    between atoms: S_11  and  C_12
REMARK    6  A    between atoms: C_18  and  S_19
REMARK    7  A    between atoms: S_19  and  C_20
REMARK                            x       y       z     vdW  Elec       q    Type
REMARK                         _______ _______ _______ _____ _____    ______ ____
ROOT
ATOM      1  C   UNL     1       1.327   8.967  20.636  0.00  0.00    +0.000 A 
ATOM      2  N   UNL     1       1.504   7.737  21.236  0.00  0.00    +0.000 N 
ATOM      3  C   UNL     1       2.040   6.836  20.342  0.00  0.00    +0.000 A 
ATOM      4  C   UNL     1       2.404   5.495  20.531  0.00  0.00    +0.000 A 
ATOM      5  C   UNL     1       2.945   4.820  19.428  0.00  0.00    +0.000 A 
ATOM      6  C   UNL     1       3.105   5.447  18.194  0.00  0.00    +0.000 A 
ATOM      7  C   UNL     1       2.734   6.789  18.033  0.00  0.00    +0.000 A 
ATOM      8  C   UNL     1       2.180   7.498  19.121  0.00  0.00    +0.000 A 
ATOM      9  C   UNL     1       1.681   8.822  19.310  0.00  0.00    +0.000 A 
ATOM     10  H   UNL     1       1.345   7.543  22.220  0.00  0.00    +0.000 HD
ENDROOT
BRANCH   5  11
ATOM     11  S   UNL     1       3.371   3.097  19.588  0.00  0.00    +0.000 S 
ATOM     12  C   UNL     1       2.714   2.647  21.171  0.00  0.00    +0.000 C 
ATOM     13  O   UNL     1       2.637   2.368  18.570  0.00  0.00    +0.000 OA
ATOM     14  O   UNL     1       4.818   3.014  19.661  0.00  0.00    +0.000 OA
ENDBRANCH   5  11
BRANCH   1  15
ATOM     15  C   UNL     1       0.843  10.150  21.414  0.00  0.00    +0.000 C 
BRANCH  15  17
ATOM     16  C   UNL     1      -1.291  10.970  23.078  0.00  0.00    +0.000 C 
ATOM     17  S   UNL     1      -0.162   9.621  22.807  0.00  0.00    +0.000 S 
ATOM     18  O   UNL     1       0.699   9.513  23.974  0.00  0.00    +0.000 OA
ATOM     19  O   UNL     1      -0.948   8.479  22.378  0.00  0.00    +0.000 OA
ENDBRANCH  15  17
ENDBRANCH   1  15
BRANCH   9  20
ATOM     20  S   UNL     1       1.605  10.068  18.078  0.00  0.00    +0.000 S 
BRANCH  20  21
ATOM     21  C   UNL     1      -0.125  10.544  18.140  0.00  0.00    +0.000 A 
ATOM     22  C   UNL     1      -1.081   9.642  17.648  0.00  0.00    +0.000 A 
ATOM     23  C   UNL     1      -2.442   9.953  17.659  0.00  0.00    +0.000 A 
ATOM     24  C   UNL     1      -2.872  11.183  18.150  0.00  0.00    +0.000 A 
ATOM     25  C   UNL     1      -1.938  12.101  18.626  0.00  0.00    +0.000 A 
ATOM     26  C   UNL     1      -0.571  11.788  18.619  0.00  0.00    +0.000 A 
ATOM     27 CL   UNL     1       0.519  12.998  19.209  0.00  0.00    +0.000 Cl
ENDBRANCH  20  21
ENDBRANCH   9  20
TORSDOF 5
ENDMDL
MODEL 7
REMARK VINA RESULT:      -7.6      3.289      7.356
REMARK  Name = 
REMARK  7 active torsions:
REMARK  status: ('A' for Active; 'I' for Inactive)
REMARK    1  A    between atoms: C_1  and  S_2
REMARK    2  A    between atoms: S_2  and  C_5
REMARK    3  A    between atoms: C_5  and  C_6
REMARK    4  A    between atoms: C_10  and  S_11
REMARK    5  A    between atoms: S_11  and  C_12
REMARK    6  A    between atoms: C_18  and  S_19
REMARK    7  A    between atoms: S_19  and  C_20
REMARK                            x       y       z     vdW  Elec       q    Type
REMARK                         _______ _______ _______ _____ _____    ______ ____
ROOT
ATOM      1  C   UNL     1       1.365   8.822  20.725  0.00  0.00    +0.000 A 
ATOM      2  N   UNL     1       1.447   7.570  21.302  0.00  0.00    +0.000 N 
ATOM      3  C   UNL     1       1.873   6.641  20.380  0.00  0.00    +0.000 A 
ATOM      4  C   UNL     1       2.120   5.269  20.539  0.00  0.00    +0.000 A 
ATOM      5  C   UNL     1       2.564   4.567  19.411  0.00  0.00    +0.000 A 
ATOM      6  C   UNL     1       2.745   5.197  18.180  0.00  0.00    +0.000 A 
ATOM      7  C   UNL     1       2.492   6.570  18.050  0.00  0.00    +0.000 A 
ATOM      8  C   UNL     1       2.036   7.308  19.164  0.00  0.00    +0.000 A 
ATOM      9  C   UNL     1       1.665   8.668  19.387  0.00  0.00    +0.000 A 
ATOM     10  H   UNL     1       1.300   7.376  22.288  0.00  0.00    +0.000 HD
ENDROOT
BRANCH   5  11
ATOM     11  S   UNL     1       2.837   2.810  19.532  0.00  0.00    +0.000 S 
ATOM     12  C   UNL     1       2.656   2.241  17.863  0.00  0.00    +0.000 C 
ATOM     13  O   UNL     1       4.217   2.607  19.931  0.00  0.00    +0.000 OA
ATOM     14  O   UNL     1       1.749   2.256  20.317  0.00  0.00    +0.000 OA
ENDBRANCH   5  11
BRANCH   1  15
ATOM     15  C   UNL     1       1.013  10.030  21.534  0.00  0.00    +0.000 C 
BRANCH  15  17
ATOM     16  C   UNL     1      -1.210  11.038  22.962  0.00  0.00    +0.000 C 
ATOM     17  S   UNL     1      -0.163   9.605  22.825  0.00  0.00    +0.000 S 
ATOM     18  O   UNL     1       0.567   9.460  24.075  0.00  0.00    +0.000 OA
ATOM     19  O   UNL     1      -0.984   8.514  22.335  0.00  0.00    +0.000 OA
ENDBRANCH  15  17
ENDBRANCH   1  15
BRANCH   9  20
ATOM     20  S   UNL     1       1.667   9.936  18.175  0.00  0.00    +0.000 S 
BRANCH  20  21
ATOM     21  C   UNL     1      -0.037  10.502  18.232  0.00  0.00    +0.000 A 
ATOM     22  C   UNL     1      -1.037   9.652  17.734  0.00  0.00    +0.000 A 
ATOM     23  C   UNL     1      -2.380  10.034  17.740  0.00  0.00    +0.000 A 
ATOM     24  C   UNL     1      -2.747  11.284  18.232  0.00  0.00    +0.000 A 
ATOM     25  C   UNL     1      -1.767  12.151  18.713  0.00  0.00    +0.000 A 
ATOM     26  C   UNL     1      -0.419  11.766  18.711  0.00  0.00    +0.000 A 
ATOM     27 CL   UNL     1       0.730  12.917  19.307  0.00  0.00    +0.000 Cl
ENDBRANCH  20  21
ENDBRANCH   9  20
TORSDOF 5
ENDMDL
MODEL 8
REMARK VINA RESULT:      -7.6      1.164      1.188
REMARK  Name = 
REMARK  7 active torsions:
REMARK  status: ('A' for Active; 'I' for Inactive)
REMARK    1  A    between atoms: C_1  and  S_2
REMARK    2  A    between atoms: S_2  and  C_5
REMARK    3  A    between atoms: C_5  and  C_6
REMARK    4  A    between atoms: C_10  and  S_11
REMARK    5  A    between atoms: S_11  and  C_12
REMARK    6  A    between atoms: C_18  and  S_19
REMARK    7  A    between atoms: S_19  and  C_20
REMARK                            x       y       z     vdW  Elec       q    Type
REMARK                         _______ _______ _______ _____ _____    ______ ____
ROOT
ATOM      1  C   UNL     1       2.751   5.409  19.931  0.00  0.00    +0.000 A 
ATOM      2  N   UNL     1       2.178   6.296  20.820  0.00  0.00    +0.000 N 
ATOM      3  C   UNL     1       1.892   7.489  20.194  0.00  0.00    +0.000 A 
ATOM      4  C   UNL     1       1.288   8.646  20.705  0.00  0.00    +0.000 A 
ATOM      5  C   UNL     1       1.110   9.717  19.818  0.00  0.00    +0.000 A 
ATOM      6  C   UNL     1       1.523   9.643  18.489  0.00  0.00    +0.000 A 
ATOM      7  C   UNL     1       2.123   8.472  18.004  0.00  0.00    +0.000 A 
ATOM      8  C   UNL     1       2.325   7.377  18.871  0.00  0.00    +0.000 A 
ATOM      9  C   UNL     1       2.907   6.080  18.736  0.00  0.00    +0.000 A 
ATOM     10  H   UNL     1       1.923   6.075  21.777  0.00  0.00    +0.000 HD
ENDROOT
BRANCH   5  11
ATOM     11  S   UNL     1       0.403  11.237  20.422  0.00  0.00    +0.000 S 
ATOM     12  C   UNL     1      -0.527  10.732  21.844  0.00  0.00    +0.000 C 
ATOM     13  O   UNL     1       1.494  12.081  20.873  0.00  0.00    +0.000 OA
ATOM     14  O   UNL     1      -0.532  11.709  19.418  0.00  0.00    +0.000 OA
ENDBRANCH   5  11
BRANCH   1  15
ATOM     15  C   UNL     1       3.075   4.004  20.334  0.00  0.00    +0.000 C 
BRANCH  15  17
ATOM     16  C   UNL     1       1.679   1.755  19.340  0.00  0.00    +0.000 C 
ATOM     17  S   UNL     1       1.569   3.048  20.558  0.00  0.00    +0.000 S 
ATOM     18  O   UNL     1       0.438   3.895  20.214  0.00  0.00    +0.000 OA
ATOM     19  O   UNL     1       1.633   2.420  21.864  0.00  0.00    +0.000 OA
ENDBRANCH  15  17
ENDBRANCH   1  15
BRANCH   9  20
ATOM     20  S   UNL     1       3.627   5.434  17.273  0.00  0.00    +0.000 S 
BRANCH  20  21
ATOM     21  C   UNL     1       5.348   5.256  17.758  0.00  0.00    +0.000 A 
ATOM     22  C   UNL     1       5.751   5.793  18.990  0.00  0.00    +0.000 A 
ATOM     23  C   UNL     1       7.075   5.697  19.422  0.00  0.00    +0.000 A 
ATOM     24  C   UNL     1       8.026   5.072  18.621  0.00  0.00    +0.000 A 
ATOM     25  C   UNL     1       7.651   4.548  17.384  0.00  0.00    +0.000 A 
ATOM     26  C   UNL     1       6.320   4.641  16.951  0.00  0.00    +0.000 A 
ATOM     27 CL   UNL     1       5.951   3.982  15.393  0.00  0.00    +0.000 Cl
ENDBRANCH  20  21
ENDBRANCH   9  20
TORSDOF 5
ENDMDL
MODEL 9
REMARK VINA RESULT:      -7.5      1.520      1.928
REMARK  Name = 
REMARK  7 active torsions:
REMARK  status: ('A' for Active; 'I' for Inactive)
REMARK    1  A    between atoms: C_1  and  S_2
REMARK    2  A    between atoms: S_2  and  C_5
REMARK    3  A    between atoms: C_5  and  C_6
REMARK    4  A    between atoms: C_10  and  S_11
REMARK    5  A    between atoms: S_11  and  C_12
REMARK    6  A    between atoms: C_18  and  S_19
REMARK    7  A    between atoms: S_19  and  C_20
REMARK                            x       y       z     vdW  Elec       q    Type
REMARK                         _______ _______ _______ _____ _____    ______ ____
ROOT
ATOM      1  C   UNL     1       2.806   5.512  19.813  0.00  0.00    +0.000 A 
ATOM      2  N   UNL     1       2.071   6.336  20.642  0.00  0.00    +0.000 N 
ATOM      3  C   UNL     1       1.833   7.547  20.030  0.00  0.00    +0.000 A 
ATOM      4  C   UNL     1       1.112   8.657  20.493  0.00  0.00    +0.000 A 
ATOM      5  C   UNL     1       1.025   9.763  19.636  0.00  0.00    +0.000 A 
ATOM      6  C   UNL     1       1.636   9.767  18.383  0.00  0.00    +0.000 A 
ATOM      7  C   UNL     1       2.349   8.642  17.945  0.00  0.00    +0.000 A 
ATOM      8  C   UNL     1       2.463   7.514  18.785  0.00  0.00    +0.000 A 
ATOM      9  C   UNL     1       3.112   6.246  18.685  0.00  0.00    +0.000 A 
ATOM     10  H   UNL     1       1.684   6.060  21.539  0.00  0.00    +0.000 HD
ENDROOT
BRANCH   5  11
ATOM     11  S   UNL     1       0.174  11.227  20.190  0.00  0.00    +0.000 S 
ATOM     12  C   UNL     1       1.011  12.542  19.347  0.00  0.00    +0.000 C 
ATOM     13  O   UNL     1      -1.185  11.161  19.687  0.00  0.00    +0.000 OA
ATOM     14  O   UNL     1       0.432  11.367  21.610  0.00  0.00    +0.000 OA
ENDBRANCH   5  11
BRANCH   1  15
ATOM     15  C   UNL     1       3.124   4.102  20.200  0.00  0.00    +0.000 C 
BRANCH  15  17
ATOM     16  C   UNL     1       1.552   2.483  21.904  0.00  0.00    +0.000 C 
ATOM     17  S   UNL     1       1.628   3.106  20.239  0.00  0.00    +0.000 S 
ATOM     18  O   UNL     1       1.811   1.976  19.343  0.00  0.00    +0.000 OA
ATOM     19  O   UNL     1       0.497   3.997  20.059  0.00  0.00    +0.000 OA
ENDBRANCH  15  17
ENDBRANCH   1  15
BRANCH   9  20
ATOM     20  S   UNL     1       4.069   5.696  17.322  0.00  0.00    +0.000 S 
BRANCH  20  21
ATOM     21  C   UNL     1       5.714   6.259  17.776  0.00  0.00    +0.000 A 
ATOM     22  C   UNL     1       6.188   7.452  17.210  0.00  0.00    +0.000 A 
ATOM     23  C   UNL     1       7.460   7.941  17.514  0.00  0.00    +0.000 A 
ATOM     24  C   UNL     1       8.290   7.234  18.380  0.00  0.00    +0.000 A 
ATOM     25  C   UNL     1       7.846   6.036  18.939  0.00  0.00    +0.000 A 
ATOM     26  C   UNL     1       6.566   5.547  18.637  0.00  0.00    +0.000 A 
ATOM     27 CL   UNL     1       6.108   4.041  19.358  0.00  0.00    +0.000 Cl
ENDBRANCH  20  21
ENDBRANCH   9  20
TORSDOF 5
ENDMDL
