MODEL 1
REMARK VINA RESULT:      -7.9      0.000      0.000
REMARK  Name = 
REMARK  6 active torsions:
REMARK  status: ('A' for Active; 'I' for Inactive)
REMARK    1  A    between atoms: C_1  and  C_2
REMARK    2  A    between atoms: C_2  and  O_3
REMARK    3  A    between atoms: O_3  and  C_4
REMARK    4  A    between atoms: C_9  and  N_10
REMARK    5  A    between atoms: C_11  and  C_13
REMARK    6  A    between atoms: C_21  and  C_22
REMARK                            x       y       z     vdW  Elec       q    Type
REMARK                         _______ _______ _______ _____ _____    ______ ____
ROOT
ATOM      1  C   UNL     1       1.826   8.393  20.732  0.00  0.00    +0.000 C 
ATOM      2  C   UNL     1       1.238   8.542  22.144  0.00  0.00    +0.000 C 
ATOM      3  C   UNL     1      -0.262   8.830  22.117  0.00  0.00    +0.000 C 
ATOM      4  N   UNL     1      -0.515  10.025  21.296  0.00  0.00    +0.000 N 
ATOM      5  C   UNL     1      -0.619  11.218  22.023  0.00  0.00    +0.000 C 
ATOM      6  O   UNL     1      -0.397  11.153  23.241  0.00  0.00    +0.000 OA
ATOM      7  N   UNL     1      -0.936  12.448  21.447  0.00  0.00    +0.000 N 
ATOM      8  C   UNL     1      -1.106  12.767  20.036  0.00  0.00    +0.000 C 
ATOM      9  C   UNL     1      -0.253  13.977  19.695  0.00  0.00    +0.000 C 
ATOM     10  C   UNL     1      -0.158  14.133  18.185  0.00  0.00    +0.000 C 
ATOM     11  O   UNL     1      -0.857  15.135  20.264  0.00  0.00    +0.000 OA
ATOM     12  C   UNL     1      -1.190  14.932  21.591  0.00  0.00    +0.000 A 
ATOM     13  C   UNL     1      -1.540  16.107  22.264  0.00  0.00    +0.000 A 
ATOM     14  C   UNL     1      -1.881  16.058  23.611  0.00  0.00    +0.000 A 
ATOM     15  C   UNL     1      -1.872  14.839  24.273  0.00  0.00    +0.000 A 
ATOM     16  C   UNL     1      -1.532  13.663  23.594  0.00  0.00    +0.000 A 
ATOM     17  C   UNL     1      -1.192  13.665  22.234  0.00  0.00    +0.000 A 
ATOM     18  C   UNL     1      -0.233   9.676  19.893  0.00  0.00    +0.000 C 
ATOM     19  C   UNL     1       1.250   9.364  19.699  0.00  0.00    +0.000 C 
ENDROOT
BRANCH   1  21
ATOM     20  N   UNL     1       2.671   6.660  19.304  0.00  0.00    +0.000 N 
ATOM     21  C   UNL     1       1.753   6.927  20.304  0.00  0.00    +0.000 C 
ATOM     22  O   UNL     1       1.007   6.104  20.815  0.00  0.00    +0.000 OA
ATOM     23  H   UNL     1       3.299   7.412  19.048  0.00  0.00    +0.000 HD
BRANCH  20  29
ATOM     24  C   UNL     1       7.036   5.034  17.586  0.00  0.00    +0.000 C 
ATOM     25  O   UNL     1       7.879   4.546  18.329  0.00  0.00    +0.000 OA
ATOM     26  N   UNL     1       5.758   5.377  17.991  0.00  0.00    +0.000 N 
ATOM     27  C   UNL     1       5.417   5.291  19.404  0.00  0.00    +0.000 C 
ATOM     28  C   UNL     1       4.049   4.644  19.591  0.00  0.00    +0.000 C 
ATOM     29  C   UNL     1       2.968   5.343  18.754  0.00  0.00    +0.000 C 
ATOM     30  C   UNL     1       3.408   5.474  17.286  0.00  0.00    +0.000 C 
ATOM     31  C   UNL     1       4.804   6.080  17.144  0.00  0.00    +0.000 C 
BRANCH  24  32
ATOM     32  O   UNL     1       7.269   5.349  16.284  0.00  0.00    +0.000 OA
BRANCH  32  34
ATOM     33  C   UNL     1       7.069   4.912  13.944  0.00  0.00    +0.000 C 
ATOM     34  C   UNL     1       6.958   4.319  15.338  0.00  0.00    +0.000 C 
ENDBRANCH  32  34
ENDBRANCH  24  32
ENDBRANCH  20  29
ENDBRANCH   1  21
TORSDOF 4
ENDMDL
MODEL 2
REMARK VINA RESULT:      -7.8      2.617     10.829
REMARK  Name = 
REMARK  6 active torsions:
REMARK  status: ('A' for Active; 'I' for Inactive)
REMARK    1  A    between atoms: C_1  and  C_2
REMARK    2  A    between atoms: C_2  and  O_3
REMARK    3  A    between atoms: O_3  and  C_4
REMARK    4  A    between atoms: C_9  and  N_10
REMARK    5  A    between atoms: C_11  and  C_13
REMARK    6  A    between atoms: C_21  and  C_22
REMARK                            x       y       z     vdW  Elec       q    Type
REMARK                         _______ _______ _______ _____ _____    ______ ____
ROOT
ATOM      1  C   UNL     1      -0.243  10.155  18.765  0.00  0.00    +0.000 C 
ATOM      2  C   UNL     1      -0.563   9.351  20.035  0.00  0.00    +0.000 C 
ATOM      3  C   UNL     1       0.671   9.143  20.912  0.00  0.00    +0.000 C 
ATOM      4  N   UNL     1       1.732   8.502  20.119  0.00  0.00    +0.000 N 
ATOM      5  C   UNL     1       1.793   7.108  20.249  0.00  0.00    +0.000 C 
ATOM      6  O   UNL     1       0.907   6.569  20.928  0.00  0.00    +0.000 OA
ATOM      7  N   UNL     1       2.773   6.319  19.647  0.00  0.00    +0.000 N 
ATOM      8  C   UNL     1       3.816   6.729  18.717  0.00  0.00    +0.000 C 
ATOM      9  C   UNL     1       3.781   5.819  17.501  0.00  0.00    +0.000 C 
ATOM     10  C   UNL     1       4.628   6.414  16.386  0.00  0.00    +0.000 C 
ATOM     11  O   UNL     1       4.294   4.543  17.871  0.00  0.00    +0.000 OA
ATOM     12  C   UNL     1       3.714   4.084  19.039  0.00  0.00    +0.000 A 
ATOM     13  C   UNL     1       3.984   2.737  19.304  0.00  0.00    +0.000 A 
ATOM     14  C   UNL     1       3.450   2.132  20.436  0.00  0.00    +0.000 A 
ATOM     15  C   UNL     1       2.655   2.877  21.295  0.00  0.00    +0.000 A 
ATOM     16  C   UNL     1       2.395   4.227  21.034  0.00  0.00    +0.000 A 
ATOM     17  C   UNL     1       2.921   4.878  19.910  0.00  0.00    +0.000 A 
ATOM     18  C   UNL     1       2.208   9.483  19.128  0.00  0.00    +0.000 C 
ATOM     19  C   UNL     1       1.106   9.819  18.124  0.00  0.00    +0.000 C 
ENDROOT
BRANCH   1  21
ATOM     20  N   UNL     1      -1.216  11.839  20.170  0.00  0.00    +0.000 N 
ATOM     21  C   UNL     1      -0.435  11.646  19.045  0.00  0.00    +0.000 C 
ATOM     22  O   UNL     1       0.075  12.535  18.378  0.00  0.00    +0.000 OA
ATOM     23  H   UNL     1      -1.486  11.011  20.687  0.00  0.00    +0.000 HD
BRANCH  20  29
ATOM     24  C   UNL     1      -4.535  12.783  23.740  0.00  0.00    +0.000 C 
ATOM     25  O   UNL     1      -4.265  12.634  24.925  0.00  0.00    +0.000 OA
ATOM     26  N   UNL     1      -3.609  12.664  22.718  0.00  0.00    +0.000 N 
ATOM     27  C   UNL     1      -2.265  12.201  23.032  0.00  0.00    +0.000 C 
ATOM     28  C   UNL     1      -1.221  13.046  22.311  0.00  0.00    +0.000 C 
ATOM     29  C   UNL     1      -1.492  13.123  20.802  0.00  0.00    +0.000 C 
ATOM     30  C   UNL     1      -2.945  13.545  20.525  0.00  0.00    +0.000 C 
ATOM     31  C   UNL     1      -3.958  12.707  21.304  0.00  0.00    +0.000 C 
BRANCH  24  32
ATOM     32  O   UNL     1      -5.789  13.032  23.277  0.00  0.00    +0.000 OA
BRANCH  32  34
ATOM     33  C   UNL     1      -7.806  13.819  24.285  0.00  0.00    +0.000 C 
ATOM     34  C   UNL     1      -6.855  12.643  24.153  0.00  0.00    +0.000 C 
ENDBRANCH  32  34
ENDBRANCH  24  32
ENDBRANCH  20  29
ENDBRANCH   1  21
TORSDOF 4
ENDMDL
MODEL 3
REMARK VINA RESULT:      -7.5      2.237      4.015
REMARK  Name = 
REMARK  6 active torsions:
REMARK  status: ('A' for Active; 'I' for Inactive)
REMARK    1  A    between atoms: C_1  and  C_2
REMARK    2  A    between atoms: C_2  and  O_3
REMARK    3  A    between atoms: O_3  and  C_4
REMARK    4  A    between atoms: C_9  and  N_10
REMARK    5  A    between atoms: C_11  and  C_13
REMARK    6  A    between atoms: C_21  and  C_22
REMARK                            x       y       z     vdW  Elec       q    Type
REMARK                         _______ _______ _______ _____ _____    ______ ____
ROOT
ATOM      1  C   UNL     1       1.661   5.271  19.059  0.00  0.00    +0.000 C 
ATOM      2  C   UNL     1       1.762   6.220  17.855  0.00  0.00    +0.000 C 
ATOM      3  C   UNL     1       2.656   7.424  18.144  0.00  0.00    +0.000 C 
ATOM      4  N   UNL     1       2.165   8.122  19.343  0.00  0.00    +0.000 N 
ATOM      5  C   UNL     1       1.322   9.209  19.079  0.00  0.00    +0.000 C 
ATOM      6  O   UNL     1       1.013   9.403  17.894  0.00  0.00    +0.000 OA
ATOM      7  N   UNL     1       0.815  10.051  20.068  0.00  0.00    +0.000 N 
ATOM      8  C   UNL     1       0.946   9.928  21.513  0.00  0.00    +0.000 C 
ATOM      9  C   UNL     1      -0.430  10.033  22.147  0.00  0.00    +0.000 C 
ATOM     10  C   UNL     1      -0.365   9.590  23.601  0.00  0.00    +0.000 C 
ATOM     11  O   UNL     1      -0.863  11.388  22.073  0.00  0.00    +0.000 OA
ATOM     12  C   UNL     1      -0.695  11.905  20.802  0.00  0.00    +0.000 A 
ATOM     13  C   UNL     1      -1.339  13.131  20.608  0.00  0.00    +0.000 A 
ATOM     14  C   UNL     1      -1.274  13.761  19.370  0.00  0.00    +0.000 A 
ATOM     15  C   UNL     1      -0.565  13.163  18.339  0.00  0.00    +0.000 A 
ATOM     16  C   UNL     1       0.088  11.941  18.538  0.00  0.00    +0.000 A 
ATOM     17  C   UNL     1       0.056  11.277  19.772  0.00  0.00    +0.000 A 
ATOM     18  C   UNL     1       2.418   7.252  20.505  0.00  0.00    +0.000 C 
ATOM     19  C   UNL     1       1.586   5.973  20.418  0.00  0.00    +0.000 C 
ENDROOT
BRANCH   1  21
ATOM     20  N   UNL     1       3.928   4.767  18.459  0.00  0.00    +0.000 N 
ATOM     21  C   UNL     1       2.767   4.219  18.972  0.00  0.00    +0.000 C 
ATOM     22  O   UNL     1       2.638   3.063  19.348  0.00  0.00    +0.000 OA
ATOM     23  H   UNL     1       3.925   5.766  18.286  0.00  0.00    +0.000 HD
BRANCH  20  29
ATOM     24  C   UNL     1       6.926   4.560  14.507  0.00  0.00    +0.000 C 
ATOM     25  O   UNL     1       7.746   5.439  14.274  0.00  0.00    +0.000 OA
ATOM     26  N   UNL     1       6.164   4.503  15.661  0.00  0.00    +0.000 N 
ATOM     27  C   UNL     1       6.222   5.611  16.603  0.00  0.00    +0.000 C 
ATOM     28  C   UNL     1       6.327   5.099  18.034  0.00  0.00    +0.000 C 
ATOM     29  C   UNL     1       5.216   4.091  18.362  0.00  0.00    +0.000 C 
ATOM     30  C   UNL     1       5.148   2.982  17.298  0.00  0.00    +0.000 C 
ATOM     31  C   UNL     1       5.095   3.536  15.875  0.00  0.00    +0.000 C 
BRANCH  24  32
ATOM     32  O   UNL     1       6.624   3.560  13.636  0.00  0.00    +0.000 OA
BRANCH  32  34
ATOM     33  C   UNL     1       5.068   3.299  11.842  0.00  0.00    +0.000 C 
ATOM     34  C   UNL     1       6.350   3.978  12.293  0.00  0.00    +0.000 C 
ENDBRANCH  32  34
ENDBRANCH  24  32
ENDBRANCH  20  29
ENDBRANCH   1  21
TORSDOF 4
ENDMDL
MODEL 4
REMARK VINA RESULT:      -7.4      5.923      8.348
REMARK  Name = 
REMARK  6 active torsions:
REMARK  status: ('A' for Active; 'I' for Inactive)
REMARK    1  A    between atoms: C_1  and  C_2
REMARK    2  A    between atoms: C_2  and  O_3
REMARK    3  A    between atoms: O_3  and  C_4
REMARK    4  A    between atoms: C_9  and  N_10
REMARK    5  A    between atoms: C_11  and  C_13
REMARK    6  A    between atoms: C_21  and  C_22
REMARK                            x       y       z     vdW  Elec       q    Type
REMARK                         _______ _______ _______ _____ _____    ______ ____
ROOT
ATOM      1  C   UNL     1       3.393  15.774  18.359  0.00  0.00    +0.000 C 
ATOM      2  C   UNL     1       1.958  16.264  18.607  0.00  0.00    +0.000 C 
ATOM      3  C   UNL     1       1.313  15.576  19.809  0.00  0.00    +0.000 C 
ATOM      4  N   UNL     1       1.361  14.117  19.621  0.00  0.00    +0.000 N 
ATOM      5  C   UNL     1       0.196  13.562  19.077  0.00  0.00    +0.000 C 
ATOM      6  O   UNL     1      -0.694  14.354  18.733  0.00  0.00    +0.000 OA
ATOM      7  N   UNL     1       0.005  12.193  18.894  0.00  0.00    +0.000 N 
ATOM      8  C   UNL     1       0.958  11.112  19.108  0.00  0.00    +0.000 C 
ATOM      9  C   UNL     1       1.004  10.239  17.866  0.00  0.00    +0.000 C 
ATOM     10  C   UNL     1       2.206   9.310  17.931  0.00  0.00    +0.000 C 
ATOM     11  O   UNL     1      -0.196   9.475  17.802  0.00  0.00    +0.000 OA
ATOM     12  C   UNL     1      -1.313  10.267  17.995  0.00  0.00    +0.000 A 
ATOM     13  C   UNL     1      -2.515   9.624  17.685  0.00  0.00    +0.000 A 
ATOM     14  C   UNL     1      -3.720  10.305  17.812  0.00  0.00    +0.000 A 
ATOM     15  C   UNL     1      -3.714  11.621  18.250  0.00  0.00    +0.000 A 
ATOM     16  C   UNL     1      -2.511  12.261  18.570  0.00  0.00    +0.000 A 
ATOM     17  C   UNL     1      -1.275  11.608  18.466  0.00  0.00    +0.000 A 
ATOM     18  C   UNL     1       2.769  13.696  19.730  0.00  0.00    +0.000 C 
ATOM     19  C   UNL     1       3.600  14.274  18.586  0.00  0.00    +0.000 C 
ENDROOT
BRANCH   1  21
ATOM     20  N   UNL     1       5.661  16.162  19.037  0.00  0.00    +0.000 N 
ATOM     21  C   UNL     1       4.372  16.653  19.136  0.00  0.00    +0.000 C 
ATOM     22  O   UNL     1       4.050  17.674  19.727  0.00  0.00    +0.000 OA
ATOM     23  H   UNL     1       5.800  15.365  18.428  0.00  0.00    +0.000 HD
BRANCH  20  29
ATOM     24  C   UNL     1      10.317  14.445  18.883  0.00  0.00    +0.000 C 
ATOM     25  O   UNL     1      11.035  14.617  17.906  0.00  0.00    +0.000 OA
ATOM     26  N   UNL     1       9.065  15.016  19.029  0.00  0.00    +0.000 N 
ATOM     27  C   UNL     1       8.489  15.755  17.915  0.00  0.00    +0.000 C 
ATOM     28  C   UNL     1       7.860  17.056  18.397  0.00  0.00    +0.000 C 
ATOM     29  C   UNL     1       6.861  16.819  19.539  0.00  0.00    +0.000 C 
ATOM     30  C   UNL     1       7.495  15.972  20.657  0.00  0.00    +0.000 C 
ATOM     31  C   UNL     1       8.158  14.702  20.126  0.00  0.00    +0.000 C 
BRANCH  24  32
ATOM     32  O   UNL     1      10.639  13.627  19.921  0.00  0.00    +0.000 OA
BRANCH  32  34
ATOM     33  C   UNL     1      10.012  11.425  20.600  0.00  0.00    +0.000 C 
ATOM     34  C   UNL     1      10.794  12.242  19.587  0.00  0.00    +0.000 C 
ENDBRANCH  32  34
ENDBRANCH  24  32
ENDBRANCH  20  29
ENDBRANCH   1  21
TORSDOF 4
ENDMDL
MODEL 5
REMARK VINA RESULT:      -7.2      1.096      1.260
REMARK  Name = 
REMARK  6 active torsions:
REMARK  status: ('A' for Active; 'I' for Inactive)
REMARK    1  A    between atoms: C_1  and  C_2
REMARK    2  A    between atoms: C_2  and  O_3
REMARK    3  A    between atoms: O_3  and  C_4
REMARK    4  A    between atoms: C_9  and  N_10
REMARK    5  A    between atoms: C_11  and  C_13
REMARK    6  A    between atoms: C_21  and  C_22
REMARK                            x       y       z     vdW  Elec       q    Type
REMARK                         _______ _______ _______ _____ _____    ______ ____
ROOT
ATOM      1  C   UNL     1       1.733   8.156  20.936  0.00  0.00    +0.000 C 
ATOM      2  C   UNL     1       0.476   8.420  21.779  0.00  0.00    +0.000 C 
ATOM      3  C   UNL     1      -0.697   8.906  20.928  0.00  0.00    +0.000 C 
ATOM      4  N   UNL     1      -0.290  10.103  20.173  0.00  0.00    +0.000 N 
ATOM      5  C   UNL     1      -0.635  11.318  20.779  0.00  0.00    +0.000 C 
ATOM      6  O   UNL     1      -1.150  11.256  21.905  0.00  0.00    +0.000 OA
ATOM      7  N   UNL     1      -0.414  12.563  20.191  0.00  0.00    +0.000 N 
ATOM      8  C   UNL     1       0.284  12.864  18.949  0.00  0.00    +0.000 C 
ATOM      9  C   UNL     1       1.324  13.939  19.212  0.00  0.00    +0.000 C 
ATOM     10  C   UNL     1       2.273  14.041  18.028  0.00  0.00    +0.000 C 
ATOM     11  O   UNL     1       0.655  15.183  19.405  0.00  0.00    +0.000 OA
ATOM     12  C   UNL     1      -0.391  15.061  20.301  0.00  0.00    +0.000 A 
ATOM     13  C   UNL     1      -0.909  16.290  20.723  0.00  0.00    +0.000 A 
ATOM     14  C   UNL     1      -1.954  16.324  21.640  0.00  0.00    +0.000 A 
ATOM     15  C   UNL     1      -2.473  15.132  22.125  0.00  0.00    +0.000 A 
ATOM     16  C   UNL     1      -1.960  13.903  21.693  0.00  0.00    +0.000 A 
ATOM     17  C   UNL     1      -0.915  13.824  20.763  0.00  0.00    +0.000 A 
ATOM     18  C   UNL     1       0.688   9.681  19.155  0.00  0.00    +0.000 C 
ATOM     19  C   UNL     1       1.969   9.168  19.812  0.00  0.00    +0.000 C 
ENDROOT
BRANCH   1  21
ATOM     20  N   UNL     1       2.669   6.508  19.465  0.00  0.00    +0.000 N 
ATOM     21  C   UNL     1       1.732   6.703  20.463  0.00  0.00    +0.000 C 
ATOM     22  O   UNL     1       1.020   5.831  20.942  0.00  0.00    +0.000 OA
ATOM     23  H   UNL     1       3.264   7.296  19.237  0.00  0.00    +0.000 HD
BRANCH  20  29
ATOM     24  C   UNL     1       6.823   5.402  16.981  0.00  0.00    +0.000 C 
ATOM     25  O   UNL     1       7.844   5.049  17.559  0.00  0.00    +0.000 OA
ATOM     26  N   UNL     1       5.607   5.591  17.613  0.00  0.00    +0.000 N 
ATOM     27  C   UNL     1       5.542   5.506  19.065  0.00  0.00    +0.000 C 
ATOM     28  C   UNL     1       4.329   4.695  19.506  0.00  0.00    +0.000 C 
ATOM     29  C   UNL     1       3.031   5.225  18.878  0.00  0.00    +0.000 C 
ATOM     30  C   UNL     1       3.176   5.366  17.353  0.00  0.00    +0.000 C 
ATOM     31  C   UNL     1       4.430   6.140  16.952  0.00  0.00    +0.000 C 
BRANCH  24  32
ATOM     32  O   UNL     1       6.772   5.704  15.657  0.00  0.00    +0.000 OA
BRANCH  32  34
ATOM     33  C   UNL     1       5.886   4.047  14.182  0.00  0.00    +0.000 C 
ATOM     34  C   UNL     1       7.152   4.644  14.770  0.00  0.00    +0.000 C 
ENDBRANCH  32  34
ENDBRANCH  24  32
ENDBRANCH  20  29
ENDBRANCH   1  21
TORSDOF 4
ENDMDL
MODEL 6
REMARK VINA RESULT:      -7.1      1.120      1.189
REMARK  Name = 
REMARK  6 active torsions:
REMARK  status: ('A' for Active; 'I' for Inactive)
REMARK    1  A    between atoms: C_1  and  C_2
REMARK    2  A    between atoms: C_2  and  O_3
REMARK    3  A    between atoms: O_3  and  C_4
REMARK    4  A    between atoms: C_9  and  N_10
REMARK    5  A    between atoms: C_11  and  C_13
REMARK    6  A    between atoms: C_21  and  C_22
REMARK                            x       y       z     vdW  Elec       q    Type
REMARK                         _______ _______ _______ _____ _____    ______ ____
ROOT
ATOM      1  C   UNL     1       1.848   9.357  19.637  0.00  0.00    +0.000 C 
ATOM      2  C   UNL     1       1.052   9.019  20.907  0.00  0.00    +0.000 C 
ATOM      3  C   UNL     1      -0.446   9.264  20.731  0.00  0.00    +0.000 C 
ATOM      4  N   UNL     1      -0.667  10.656  20.308  0.00  0.00    +0.000 N 
ATOM      5  C   UNL     1      -0.966  11.540  21.352  0.00  0.00    +0.000 C 
ATOM      6  O   UNL     1      -0.919  11.083  22.504  0.00  0.00    +0.000 OA
ATOM      7  N   UNL     1      -1.289  12.883  21.158  0.00  0.00    +0.000 N 
ATOM      8  C   UNL     1      -1.276  13.644  19.916  0.00  0.00    +0.000 C 
ATOM      9  C   UNL     1      -0.478  14.919  20.125  0.00  0.00    +0.000 C 
ATOM     10  C   UNL     1      -0.176  15.566  18.781  0.00  0.00    +0.000 C 
ATOM     11  O   UNL     1      -1.243  15.810  20.930  0.00  0.00    +0.000 OA
ATOM     12  C   UNL     1      -1.750  15.174  22.048  0.00  0.00    +0.000 A 
ATOM     13  C   UNL     1      -2.282  16.053  22.997  0.00  0.00    +0.000 A 
ATOM     14  C   UNL     1      -2.810  15.556  24.184  0.00  0.00    +0.000 A 
ATOM     15  C   UNL     1      -2.804  14.188  24.411  0.00  0.00    +0.000 A 
ATOM     16  C   UNL     1      -2.281  13.309  23.455  0.00  0.00    +0.000 A 
ATOM     17  C   UNL     1      -1.748  13.766  22.242  0.00  0.00    +0.000 A 
ATOM     18  C   UNL     1      -0.159  10.794  18.932  0.00  0.00    +0.000 C 
ATOM     19  C   UNL     1       1.356  10.600  18.891  0.00  0.00    +0.000 C 
ENDROOT
BRANCH   1  21
ATOM     20  N   UNL     1       2.587   7.084  19.426  0.00  0.00    +0.000 N 
ATOM     21  C   UNL     1       1.951   8.113  18.755  0.00  0.00    +0.000 C 
ATOM     22  O   UNL     1       1.490   8.039  17.624  0.00  0.00    +0.000 OA
ATOM     23  H   UNL     1       2.824   7.250  20.397  0.00  0.00    +0.000 HD
BRANCH  20  29
ATOM     24  C   UNL     1       6.679   4.997  17.542  0.00  0.00    +0.000 C 
ATOM     25  O   UNL     1       7.527   4.482  18.260  0.00  0.00    +0.000 OA
ATOM     26  N   UNL     1       5.463   5.470  18.004  0.00  0.00    +0.000 N 
ATOM     27  C   UNL     1       5.212   5.493  19.438  0.00  0.00    +0.000 C 
ATOM     28  C   UNL     1       3.812   4.977  19.749  0.00  0.00    +0.000 C 
ATOM     29  C   UNL     1       2.738   5.718  18.940  0.00  0.00    +0.000 C 
ATOM     30  C   UNL     1       3.088   5.729  17.442  0.00  0.00    +0.000 C 
ATOM     31  C   UNL     1       4.515   6.205  17.176  0.00  0.00    +0.000 C 
BRANCH  24  32
ATOM     32  O   UNL     1       6.850   5.218  16.211  0.00  0.00    +0.000 OA
BRANCH  32  34
ATOM     33  C   UNL     1       5.701   4.290  14.334  0.00  0.00    +0.000 C 
ATOM     34  C   UNL     1       6.776   4.053  15.381  0.00  0.00    +0.000 C 
ENDBRANCH  32  34
ENDBRANCH  24  32
ENDBRANCH  20  29
ENDBRANCH   1  21
TORSDOF 4
ENDMDL
MODEL 7
REMARK VINA RESULT:      -7.0      1.818      2.318
REMARK  Name = 
REMARK  6 active torsions:
REMARK  status: ('A' for Active; 'I' for Inactive)
REMARK    1  A    between atoms: C_1  and  C_2
REMARK    2  A    between atoms: C_2  and  O_3
REMARK    3  A    between atoms: O_3  and  C_4
REMARK    4  A    between atoms: C_9  and  N_10
REMARK    5  A    between atoms: C_11  and  C_13
REMARK    6  A    between atoms: C_21  and  C_22
REMARK                            x       y       z     vdW  Elec       q    Type
REMARK                         _______ _______ _______ _____ _____    ______ ____
ROOT
ATOM      1  C   UNL     1       1.423  10.204  20.081  0.00  0.00    +0.000 C 
ATOM      2  C   UNL     1       0.233   9.900  21.004  0.00  0.00    +0.000 C 
ATOM      3  C   UNL     1      -0.983  10.768  20.683  0.00  0.00    +0.000 C 
ATOM      4  N   UNL     1      -0.600  12.188  20.743  0.00  0.00    +0.000 N 
ATOM      5  C   UNL     1      -0.873  12.812  21.967  0.00  0.00    +0.000 C 
ATOM      6  O   UNL     1      -1.311  12.093  22.877  0.00  0.00    +0.000 OA
ATOM      7  N   UNL     1      -0.663  14.170  22.205  0.00  0.00    +0.000 N 
ATOM      8  C   UNL     1      -0.045  15.155  21.328  0.00  0.00    +0.000 C 
ATOM      9  C   UNL     1       1.036  15.894  22.096  0.00  0.00    +0.000 C 
ATOM     10  C   UNL     1       1.905  16.688  21.132  0.00  0.00    +0.000 C 
ATOM     11  O   UNL     1       0.413  16.776  23.026  0.00  0.00    +0.000 OA
ATOM     12  C   UNL     1      -0.572  16.132  23.752  0.00  0.00    +0.000 A 
ATOM     13  C   UNL     1      -1.030  16.871  24.848  0.00  0.00    +0.000 A 
ATOM     14  C   UNL     1      -2.008  16.341  25.682  0.00  0.00    +0.000 A 
ATOM     15  C   UNL     1      -2.521  15.081  25.414  0.00  0.00    +0.000 A 
ATOM     16  C   UNL     1      -2.069  14.347  24.310  0.00  0.00    +0.000 A 
ATOM     17  C   UNL     1      -1.092  14.848  23.439  0.00  0.00    +0.000 A 
ATOM     18  C   UNL     1       0.296  12.461  19.605  0.00  0.00    +0.000 C 
ATOM     19  C   UNL     1       1.606  11.687  19.748  0.00  0.00    +0.000 C 
ENDROOT
BRANCH   1  21
ATOM     20  N   UNL     1       2.127   8.168  19.025  0.00  0.00    +0.000 N 
ATOM     21  C   UNL     1       1.354   9.302  18.849  0.00  0.00    +0.000 C 
ATOM     22  O   UNL     1       0.670   9.544  17.865  0.00  0.00    +0.000 OA
ATOM     23  H   UNL     1       2.559   8.046  19.933  0.00  0.00    +0.000 HD
BRANCH  20  29
ATOM     24  C   UNL     1       5.869   4.951  18.476  0.00  0.00    +0.000 C 
ATOM     25  O   UNL     1       5.974   3.960  19.187  0.00  0.00    +0.000 OA
ATOM     26  N   UNL     1       4.777   5.802  18.499  0.00  0.00    +0.000 N 
ATOM     27  C   UNL     1       3.749   5.608  19.510  0.00  0.00    +0.000 C 
ATOM     28  C   UNL     1       2.358   5.724  18.897  0.00  0.00    +0.000 C 
ATOM     29  C   UNL     1       2.188   7.033  18.112  0.00  0.00    +0.000 C 
ATOM     30  C   UNL     1       3.339   7.227  17.110  0.00  0.00    +0.000 C 
ATOM     31  C   UNL     1       4.714   7.053  17.753  0.00  0.00    +0.000 C 
BRANCH  24  32
ATOM     32  O   UNL     1       6.834   5.369  17.615  0.00  0.00    +0.000 OA
BRANCH  32  34
ATOM     33  C   UNL     1       6.524   4.911  15.292  0.00  0.00    +0.000 C 
ATOM     34  C   UNL     1       7.177   4.440  16.579  0.00  0.00    +0.000 C 
ENDBRANCH  32  34
ENDBRANCH  24  32
ENDBRANCH  20  29
ENDBRANCH   1  21
TORSDOF 4
ENDMDL
MODEL 8
REMARK VINA RESULT:      -6.9      2.727      9.546
REMARK  Name = 
REMARK  6 active torsions:
REMARK  status: ('A' for Active; 'I' for Inactive)
REMARK    1  A    between atoms: C_1  and  C_2
REMARK    2  A    between atoms: C_2  and  O_3
REMARK    3  A    between atoms: O_3  and  C_4
REMARK    4  A    between atoms: C_9  and  N_10
REMARK    5  A    between atoms: C_11  and  C_13
REMARK    6  A    between atoms: C_21  and  C_22
REMARK                            x       y       z     vdW  Elec       q    Type
REMARK                         _______ _______ _______ _____ _____    ______ ____
ROOT
ATOM      1  C   UNL     1      -0.351  10.178  18.353  0.00  0.00    +0.000 C 
ATOM      2  C   UNL     1      -0.721   9.486  19.674  0.00  0.00    +0.000 C 
ATOM      3  C   UNL     1       0.477   9.359  20.614  0.00  0.00    +0.000 C 
ATOM      4  N   UNL     1       1.569   8.656  19.922  0.00  0.00    +0.000 N 
ATOM      5  C   UNL     1       1.627   7.280  20.174  0.00  0.00    +0.000 C 
ATOM      6  O   UNL     1       0.715   6.798  20.863  0.00  0.00    +0.000 OA
ATOM      7  N   UNL     1       2.631   6.446  19.683  0.00  0.00    +0.000 N 
ATOM      8  C   UNL     1       3.710   6.778  18.762  0.00  0.00    +0.000 C 
ATOM      9  C   UNL     1       3.723   5.767  17.629  0.00  0.00    +0.000 C 
ATOM     10  C   UNL     1       4.613   6.266  16.501  0.00  0.00    +0.000 C 
ATOM     11  O   UNL     1       4.222   4.529  18.128  0.00  0.00    +0.000 OA
ATOM     12  C   UNL     1       3.598   4.170  19.308  0.00  0.00    +0.000 A 
ATOM     13  C   UNL     1       3.858   2.853  19.699  0.00  0.00    +0.000 A 
ATOM     14  C   UNL     1       3.280   2.346  20.858  0.00  0.00    +0.000 A 
ATOM     15  C   UNL     1       2.451   3.159  21.616  0.00  0.00    +0.000 A 
ATOM     16  C   UNL     1       2.200   4.480  21.229  0.00  0.00    +0.000 A 
ATOM     17  C   UNL     1       2.770   5.034  20.075  0.00  0.00    +0.000 A 
ATOM     18  C   UNL     1       2.084   9.550  18.869  0.00  0.00    +0.000 C 
ATOM     19  C   UNL     1       1.022   9.793  17.797  0.00  0.00    +0.000 C 
ENDROOT
BRANCH   1  21
ATOM     20  N   UNL     1       0.654  12.334  18.660  0.00  0.00    +0.000 N 
ATOM     21  C   UNL     1      -0.556  11.686  18.495  0.00  0.00    +0.000 C 
ATOM     22  O   UNL     1      -1.647  12.235  18.428  0.00  0.00    +0.000 OA
ATOM     23  H   UNL     1       1.490  11.766  18.592  0.00  0.00    +0.000 HD
BRANCH  20  29
ATOM     24  C   UNL     1       3.679  14.899  21.647  0.00  0.00    +0.000 C 
ATOM     25  O   UNL     1       4.857  15.084  21.365  0.00  0.00    +0.000 OA
ATOM     26  N   UNL     1       2.766  14.310  20.790  0.00  0.00    +0.000 N 
ATOM     27  C   UNL     1       3.236  13.745  19.534  0.00  0.00    +0.000 C 
ATOM     28  C   UNL     1       2.309  14.131  18.387  0.00  0.00    +0.000 C 
ATOM     29  C   UNL     1       0.847  13.779  18.692  0.00  0.00    +0.000 C 
ATOM     30  C   UNL     1       0.421  14.335  20.062  0.00  0.00    +0.000 C 
ATOM     31  C   UNL     1       1.403  13.969  21.175  0.00  0.00    +0.000 C 
BRANCH  24  32
ATOM     32  O   UNL     1       3.136  15.202  22.856  0.00  0.00    +0.000 OA
BRANCH  32  34
ATOM     33  C   UNL     1       1.999  17.301  22.791  0.00  0.00    +0.000 C 
ATOM     34  C   UNL     1       3.249  16.573  23.255  0.00  0.00    +0.000 C 
ENDBRANCH  32  34
ENDBRANCH  24  32
ENDBRANCH  20  29
ENDBRANCH   1  21
TORSDOF 4
ENDMDL
MODEL 9
REMARK VINA RESULT:      -6.9      5.553      8.349
REMARK  Name = 
REMARK  6 active torsions:
REMARK  status: ('A' for Active; 'I' for Inactive)
REMARK    1  A    between atoms: C_1  and  C_2
REMARK    2  A    between atoms: C_2  and  O_3
REMARK    3  A    between atoms: O_3  and  C_4
REMARK    4  A    between atoms: C_9  and  N_10
REMARK    5  A    between atoms: C_11  and  C_13
REMARK    6  A    between atoms: C_21  and  C_22
REMARK                            x       y       z     vdW  Elec       q    Type
REMARK                         _______ _______ _______ _____ _____    ______ ____
ROOT
ATOM      1  C   UNL     1       3.338  15.744  18.642  0.00  0.00    +0.000 C 
ATOM      2  C   UNL     1       1.908  16.231  18.921  0.00  0.00    +0.000 C 
ATOM      3  C   UNL     1       1.264  15.489  20.090  0.00  0.00    +0.000 C 
ATOM      4  N   UNL     1       1.300  14.041  19.829  0.00  0.00    +0.000 N 
ATOM      5  C   UNL     1       0.128  13.522  19.264  0.00  0.00    +0.000 C 
ATOM      6  O   UNL     1      -0.757  14.337  18.964  0.00  0.00    +0.000 OA
ATOM      7  N   UNL     1      -0.074  12.165  19.014  0.00  0.00    +0.000 N 
ATOM      8  C   UNL     1       0.872  11.068  19.169  0.00  0.00    +0.000 C 
ATOM      9  C   UNL     1       0.906  10.258  17.885  0.00  0.00    +0.000 C 
ATOM     10  C   UNL     1       2.102   9.317  17.898  0.00  0.00    +0.000 C 
ATOM     11  O   UNL     1      -0.300   9.506  17.788  0.00  0.00    +0.000 OA
ATOM     12  C   UNL     1      -1.410  10.296  18.026  0.00  0.00    +0.000 A 
ATOM     13  C   UNL     1      -2.618   9.678  17.689  0.00  0.00    +0.000 A 
ATOM     14  C   UNL     1      -3.817  10.361  17.856  0.00  0.00    +0.000 A 
ATOM     15  C   UNL     1      -3.800  11.653  18.359  0.00  0.00    +0.000 A 
ATOM     16  C   UNL     1      -2.590  12.267  18.705  0.00  0.00    +0.000 A 
ATOM     17  C   UNL     1      -1.360  11.611  18.563  0.00  0.00    +0.000 A 
ATOM     18  C   UNL     1       2.705  13.604  19.911  0.00  0.00    +0.000 C 
ATOM     19  C   UNL     1       3.535  14.233  18.793  0.00  0.00    +0.000 C 
ENDROOT
BRANCH   1  21
ATOM     20  N   UNL     1       5.496  15.871  19.683  0.00  0.00    +0.000 N 
ATOM     21  C   UNL     1       4.328  16.576  19.457  0.00  0.00    +0.000 C 
ATOM     22  O   UNL     1       4.116  17.725  19.819  0.00  0.00    +0.000 OA
ATOM     23  H   UNL     1       5.577  14.966  19.236  0.00  0.00    +0.000 HD
BRANCH  20  29
ATOM     24  C   UNL     1       8.814  13.385  22.415  0.00  0.00    +0.000 C 
ATOM     25  O   UNL     1       9.747  12.781  21.900  0.00  0.00    +0.000 OA
ATOM     26  N   UNL     1       7.944  14.200  21.711  0.00  0.00    +0.000 N 
ATOM     27  C   UNL     1       8.038  14.250  20.260  0.00  0.00    +0.000 C 
ATOM     28  C   UNL     1       7.947  15.688  19.762  0.00  0.00    +0.000 C 
ATOM     29  C   UNL     1       6.701  16.402  20.307  0.00  0.00    +0.000 C 
ATOM     30  C   UNL     1       6.609  16.257  21.836  0.00  0.00    +0.000 C 
ATOM     31  C   UNL     1       6.756  14.807  22.297  0.00  0.00    +0.000 C 
BRANCH  24  32
ATOM     32  O   UNL     1       8.484  13.286  23.730  0.00  0.00    +0.000 OA
BRANCH  32  34
ATOM     33  C   UNL     1       6.814  11.632  24.152  0.00  0.00    +0.000 C 
ATOM     34  C   UNL     1       8.297  11.951  24.218  0.00  0.00    +0.000 C 
ENDBRANCH  32  34
ENDBRANCH  24  32
ENDBRANCH  20  29
ENDBRANCH   1  21
TORSDOF 4
ENDMDL
