MODEL 1
REMARK VINA RESULT:      -5.9      0.000      0.000
REMARK  Name = 
REMARK  3 active torsions:
REMARK  status: ('A' for Active; 'I' for Inactive)
REMARK    1  A    between atoms: N_1  and  C_2
REMARK    2  A    between atoms: C_2  and  C_3
REMARK    3  A    between atoms: C_8  and  N_9
REMARK                            x       y       z     vdW  Elec       q    Type
REMARK                         _______ _______ _______ _____ _____    ______ ____
ROOT
ATOM      1  C   UNL     1       2.782   2.857  18.944  0.00  0.00    +0.000 A 
ATOM      2  C   UNL     1       1.589   2.588  19.656  0.00  0.00    +0.000 A 
ATOM      3  C   UNL     1       1.065   3.489  20.576  0.00  0.00    +0.000 A 
ATOM      4  C   UNL     1       1.718   4.690  20.807  0.00  0.00    +0.000 A 
ATOM      5  C   UNL     1       2.890   4.992  20.110  0.00  0.00    +0.000 A 
ATOM      6  C   UNL     1       3.434   4.099  19.160  0.00  0.00    +0.000 A 
ENDROOT
BRANCH   6   7
ATOM      7  N   UNL     1       4.611   4.503  18.443  0.00  0.00    +0.000 N 
ATOM      8  C   UNL     1       4.678   5.169  17.228  0.00  0.00    +0.000 A 
ATOM      9  C   UNL     1       6.004   5.338  16.913  0.00  0.00    +0.000 A 
ATOM     10  C   UNL     1       6.689   4.751  17.978  0.00  0.00    +0.000 A 
ATOM     11  N   UNL     1       5.867   4.237  18.891  0.00  0.00    +0.000 NA
ENDBRANCH   6   7
BRANCH   1  12
ATOM     12  C   UNL     1       3.225   1.783  17.975  0.00  0.00    +0.000 C 
BRANCH  12  13
ATOM     13  N   UNL     1       4.234   0.920  18.582  0.00  0.00    +0.000 NA
ATOM     14  H   UNL     1       3.871   0.593  19.475  0.00  0.00    +0.000 HD
ATOM     15  H   UNL     1       5.017   1.528  18.836  0.00  0.00    +0.000 HD
ENDBRANCH  12  13
ENDBRANCH   1  12
TORSDOF 3
ENDMDL
MODEL 2
REMARK VINA RESULT:      -5.9      1.614      1.677
REMARK  Name = 
REMARK  3 active torsions:
REMARK  status: ('A' for Active; 'I' for Inactive)
REMARK    1  A    between atoms: N_1  and  C_2
REMARK    2  A    between atoms: C_2  and  C_3
REMARK    3  A    between atoms: C_8  and  N_9
REMARK                            x       y       z     vdW  Elec       q    Type
REMARK                         _______ _______ _______ _____ _____    ______ ____
ROOT
ATOM      1  C   UNL     1       3.470   2.596  18.595  0.00  0.00    +0.000 A 
ATOM      2  C   UNL     1       2.091   2.350  18.795  0.00  0.00    +0.000 A 
ATOM      3  C   UNL     1       1.120   3.277  18.437  0.00  0.00    +0.000 A 
ATOM      4  C   UNL     1       1.501   4.482  17.864  0.00  0.00    +0.000 A 
ATOM      5  C   UNL     1       2.853   4.750  17.640  0.00  0.00    +0.000 A 
ATOM      6  C   UNL     1       3.857   3.817  17.981  0.00  0.00    +0.000 A 
ENDROOT
BRANCH   6   7
ATOM      7  N   UNL     1       5.221   4.142  17.671  0.00  0.00    +0.000 N 
ATOM      8  C   UNL     1       5.821   4.175  16.420  0.00  0.00    +0.000 A 
ATOM      9  C   UNL     1       7.138   4.521  16.595  0.00  0.00    +0.000 A 
ATOM     10  C   UNL     1       7.273   4.680  17.975  0.00  0.00    +0.000 A 
ATOM     11  N   UNL     1       6.138   4.442  18.628  0.00  0.00    +0.000 NA
ENDBRANCH   6   7
BRANCH   1  12
ATOM     12  C   UNL     1       4.406   1.491  19.031  0.00  0.00    +0.000 C 
BRANCH  12  13
ATOM     13  N   UNL     1       5.093   1.849  20.268  0.00  0.00    +0.000 NA
ATOM     14  H   UNL     1       4.391   2.154  20.940  0.00  0.00    +0.000 HD
ATOM     15  H   UNL     1       5.629   2.697  20.063  0.00  0.00    +0.000 HD
ENDBRANCH  12  13
ENDBRANCH   1  12
TORSDOF 3
ENDMDL
MODEL 3
REMARK VINA RESULT:      -5.7      1.694      2.828
REMARK  Name = 
REMARK  3 active torsions:
REMARK  status: ('A' for Active; 'I' for Inactive)
REMARK    1  A    between atoms: N_1  and  C_2
REMARK    2  A    between atoms: C_2  and  C_3
REMARK    3  A    between atoms: C_8  and  N_9
REMARK                            x       y       z     vdW  Elec       q    Type
REMARK                         _______ _______ _______ _____ _____    ______ ____
ROOT
ATOM      1  C   UNL     1       2.879   4.704  18.256  0.00  0.00    +0.000 A 
ATOM      2  C   UNL     1       1.588   4.207  18.550  0.00  0.00    +0.000 A 
ATOM      3  C   UNL     1       1.291   2.850  18.483  0.00  0.00    +0.000 A 
ATOM      4  C   UNL     1       2.282   1.949  18.122  0.00  0.00    +0.000 A 
ATOM      5  C   UNL     1       3.571   2.407  17.840  0.00  0.00    +0.000 A 
ATOM      6  C   UNL     1       3.900   3.778  17.915  0.00  0.00    +0.000 A 
ENDROOT
BRANCH   6   7
ATOM      7  N   UNL     1       5.260   4.166  17.664  0.00  0.00    +0.000 N 
ATOM      8  C   UNL     1       5.891   4.296  16.435  0.00  0.00    +0.000 A 
ATOM      9  C   UNL     1       7.191   4.673  16.668  0.00  0.00    +0.000 A 
ATOM     10  C   UNL     1       7.284   4.750  18.058  0.00  0.00    +0.000 A 
ATOM     11  N   UNL     1       6.141   4.435  18.663  0.00  0.00    +0.000 NA
ENDBRANCH   6   7
BRANCH   1  12
ATOM     12  C   UNL     1       3.050   6.202  18.377  0.00  0.00    +0.000 C 
BRANCH  12  13
ATOM     13  N   UNL     1       2.860   6.638  19.758  0.00  0.00    +0.000 NA
ATOM     14  H   UNL     1       2.948   5.820  20.358  0.00  0.00    +0.000 HD
ATOM     15  H   UNL     1       1.875   6.905  19.841  0.00  0.00    +0.000 HD
ENDBRANCH  12  13
ENDBRANCH   1  12
TORSDOF 3
ENDMDL
MODEL 4
REMARK VINA RESULT:      -5.7      0.805      1.188
REMARK  Name = 
REMARK  3 active torsions:
REMARK  status: ('A' for Active; 'I' for Inactive)
REMARK    1  A    between atoms: N_1  and  C_2
REMARK    2  A    between atoms: C_2  and  C_3
REMARK    3  A    between atoms: C_8  and  N_9
REMARK                            x       y       z     vdW  Elec       q    Type
REMARK                         _______ _______ _______ _____ _____    ______ ____
ROOT
ATOM      1  C   UNL     1       2.798   2.928  18.783  0.00  0.00    +0.000 A 
ATOM      2  C   UNL     1       1.605   2.404  19.333  0.00  0.00    +0.000 A 
ATOM      3  C   UNL     1       0.828   3.132  20.227  0.00  0.00    +0.000 A 
ATOM      4  C   UNL     1       1.221   4.410  20.594  0.00  0.00    +0.000 A 
ATOM      5  C   UNL     1       2.386   4.962  20.057  0.00  0.00    +0.000 A 
ATOM      6  C   UNL     1       3.184   4.248  19.136  0.00  0.00    +0.000 A 
ENDROOT
BRANCH   6   7
ATOM      7  N   UNL     1       4.338   4.902  18.586  0.00  0.00    +0.000 N 
ATOM      8  C   UNL     1       5.609   4.987  19.137  0.00  0.00    +0.000 A 
ATOM      9  C   UNL     1       6.393   5.715  18.277  0.00  0.00    +0.000 A 
ATOM     10  C   UNL     1       5.536   6.046  17.225  0.00  0.00    +0.000 A 
ATOM     11  N   UNL     1       4.303   5.577  17.406  0.00  0.00    +0.000 NA
ENDBRANCH   6   7
BRANCH   1  12
ATOM     12  C   UNL     1       3.532   2.020  17.821  0.00  0.00    +0.000 C 
BRANCH  12  13
ATOM     13  N   UNL     1       4.182   0.923  18.535  0.00  0.00    +0.000 NA
ATOM     14  H   UNL     1       5.187   1.083  18.506  0.00  0.00    +0.000 HD
ATOM     15  H   UNL     1       4.043   0.087  17.962  0.00  0.00    +0.000 HD
ENDBRANCH  12  13
ENDBRANCH   1  12
TORSDOF 3
ENDMDL
MODEL 5
REMARK VINA RESULT:      -5.7      1.774      5.037
REMARK  Name = 
REMARK  3 active torsions:
REMARK  status: ('A' for Active; 'I' for Inactive)
REMARK    1  A    between atoms: N_1  and  C_2
REMARK    2  A    between atoms: C_2  and  C_3
REMARK    3  A    between atoms: C_8  and  N_9
REMARK                            x       y       z     vdW  Elec       q    Type
REMARK                         _______ _______ _______ _____ _____    ______ ____
ROOT
ATOM      1  C   UNL     1       5.880   4.771  17.725  0.00  0.00    +0.000 A 
ATOM      2  C   UNL     1       7.062   5.223  17.093  0.00  0.00    +0.000 A 
ATOM      3  C   UNL     1       7.279   5.048  15.731  0.00  0.00    +0.000 A 
ATOM      4  C   UNL     1       6.316   4.416  14.959  0.00  0.00    +0.000 A 
ATOM      5  C   UNL     1       5.132   3.971  15.550  0.00  0.00    +0.000 A 
ATOM      6  C   UNL     1       4.882   4.151  16.928  0.00  0.00    +0.000 A 
ENDROOT
BRANCH   6   7
ATOM      7  N   UNL     1       3.617   3.714  17.452  0.00  0.00    +0.000 N 
ATOM      8  C   UNL     1       2.486   4.482  17.687  0.00  0.00    +0.000 A 
ATOM      9  C   UNL     1       1.517   3.657  18.203  0.00  0.00    +0.000 A 
ATOM     10  C   UNL     1       2.126   2.402  18.259  0.00  0.00    +0.000 A 
ATOM     11  N   UNL     1       3.385   2.428  17.826  0.00  0.00    +0.000 NA
ENDBRANCH   6   7
BRANCH   1  12
ATOM     12  C   UNL     1       5.785   5.037  19.211  0.00  0.00    +0.000 C 
BRANCH  12  13
ATOM     13  N   UNL     1       7.096   5.368  19.764  0.00  0.00    +0.000 NA
ATOM     14  H   UNL     1       6.955   5.729  20.706  0.00  0.00    +0.000 HD
ATOM     15  H   UNL     1       7.435   6.175  19.234  0.00  0.00    +0.000 HD
ENDBRANCH  12  13
ENDBRANCH   1  12
TORSDOF 3
ENDMDL
MODEL 6
REMARK VINA RESULT:      -5.7      1.067      1.086
REMARK  Name = 
REMARK  3 active torsions:
REMARK  status: ('A' for Active; 'I' for Inactive)
REMARK    1  A    between atoms: N_1  and  C_2
REMARK    2  A    between atoms: C_2  and  C_3
REMARK    3  A    between atoms: C_8  and  N_9
REMARK                            x       y       z     vdW  Elec       q    Type
REMARK                         _______ _______ _______ _____ _____    ______ ____
ROOT
ATOM      1  C   UNL     1       3.722   3.044  19.907  0.00  0.00    +0.000 A 
ATOM      2  C   UNL     1       2.528   3.001  20.664  0.00  0.00    +0.000 A 
ATOM      3  C   UNL     1       1.749   4.134  20.872  0.00  0.00    +0.000 A 
ATOM      4  C   UNL     1       2.142   5.346  20.324  0.00  0.00    +0.000 A 
ATOM      5  C   UNL     1       3.309   5.419  19.560  0.00  0.00    +0.000 A 
ATOM      6  C   UNL     1       4.108   4.279  19.322  0.00  0.00    +0.000 A 
ENDROOT
BRANCH   6   7
ATOM      7  N   UNL     1       5.264   4.422  18.481  0.00  0.00    +0.000 N 
ATOM      8  C   UNL     1       5.324   4.324  17.098  0.00  0.00    +0.000 A 
ATOM      9  C   UNL     1       6.630   4.517  16.719  0.00  0.00    +0.000 A 
ATOM     10  C   UNL     1       7.311   4.723  17.920  0.00  0.00    +0.000 A 
ATOM     11  N   UNL     1       6.507   4.655  18.980  0.00  0.00    +0.000 NA
ENDBRANCH   6   7
BRANCH   1  12
ATOM     12  C   UNL     1       4.458   1.731  19.765  0.00  0.00    +0.000 C 
BRANCH  12  13
ATOM     13  N   UNL     1       4.104   1.069  18.513  0.00  0.00    +0.000 NA
ATOM     14  H   UNL     1       3.881   1.790  17.830  0.00  0.00    +0.000 HD
ATOM     15  H   UNL     1       3.211   0.597  18.680  0.00  0.00    +0.000 HD
ENDBRANCH  12  13
ENDBRANCH   1  12
TORSDOF 3
ENDMDL
MODEL 7
REMARK VINA RESULT:      -5.6      2.073      4.938
REMARK  Name = 
REMARK  3 active torsions:
REMARK  status: ('A' for Active; 'I' for Inactive)
REMARK    1  A    between atoms: N_1  and  C_2
REMARK    2  A    between atoms: C_2  and  C_3
REMARK    3  A    between atoms: C_8  and  N_9
REMARK                            x       y       z     vdW  Elec       q    Type
REMARK                         _______ _______ _______ _____ _____    ______ ____
ROOT
ATOM      1  C   UNL     1       3.497   5.977  17.815  0.00  0.00    +0.000 A 
ATOM      2  C   UNL     1       4.369   6.798  17.063  0.00  0.00    +0.000 A 
ATOM      3  C   UNL     1       5.263   6.267  16.140  0.00  0.00    +0.000 A 
ATOM      4  C   UNL     1       5.307   4.895  15.940  0.00  0.00    +0.000 A 
ATOM      5  C   UNL     1       4.449   4.058  16.657  0.00  0.00    +0.000 A 
ATOM      6  C   UNL     1       3.522   4.576  17.589  0.00  0.00    +0.000 A 
ENDROOT
BRANCH   6   7
ATOM      7  N   UNL     1       2.635   3.657  18.247  0.00  0.00    +0.000 N 
ATOM      8  C   UNL     1       2.918   2.832  19.326  0.00  0.00    +0.000 A 
ATOM      9  C   UNL     1       1.782   2.116  19.617  0.00  0.00    +0.000 A 
ATOM     10  C   UNL     1       0.849   2.552  18.674  0.00  0.00    +0.000 A 
ATOM     11  N   UNL     1       1.352   3.462  17.843  0.00  0.00    +0.000 NA
ENDBRANCH   6   7
BRANCH   1  12
ATOM     12  C   UNL     1       2.579   6.700  18.776  0.00  0.00    +0.000 C 
BRANCH  12  13
ATOM     13  N   UNL     1       2.904   6.362  20.159  0.00  0.00    +0.000 NA
ATOM     14  H   UNL     1       2.355   6.968  20.767  0.00  0.00    +0.000 HD
ATOM     15  H   UNL     1       3.870   6.664  20.309  0.00  0.00    +0.000 HD
ENDBRANCH  12  13
ENDBRANCH   1  12
TORSDOF 3
ENDMDL
MODEL 8
REMARK VINA RESULT:      -5.6      2.112      3.218
REMARK  Name = 
REMARK  3 active torsions:
REMARK  status: ('A' for Active; 'I' for Inactive)
REMARK    1  A    between atoms: N_1  and  C_2
REMARK    2  A    between atoms: C_2  and  C_3
REMARK    3  A    between atoms: C_8  and  N_9
REMARK                            x       y       z     vdW  Elec       q    Type
REMARK                         _______ _______ _______ _____ _____    ______ ____
ROOT
ATOM      1  C   UNL     1       3.052   5.440  18.279  0.00  0.00    +0.000 A 
ATOM      2  C   UNL     1       1.831   4.744  18.122  0.00  0.00    +0.000 A 
ATOM      3  C   UNL     1       1.790   3.415  17.718  0.00  0.00    +0.000 A 
ATOM      4  C   UNL     1       2.974   2.740  17.462  0.00  0.00    +0.000 A 
ATOM      5  C   UNL     1       4.197   3.394  17.622  0.00  0.00    +0.000 A 
ATOM      6  C   UNL     1       4.265   4.739  18.046  0.00  0.00    +0.000 A 
ENDROOT
BRANCH   6   7
ATOM      7  N   UNL     1       5.561   5.327  18.239  0.00  0.00    +0.000 N 
ATOM      8  C   UNL     1       6.233   6.198  17.393  0.00  0.00    +0.000 A 
ATOM      9  C   UNL     1       7.444   6.493  17.969  0.00  0.00    +0.000 A 
ATOM     10  C   UNL     1       7.446   5.766  19.161  0.00  0.00    +0.000 A 
ATOM     11  N   UNL     1       6.332   5.055  19.325  0.00  0.00    +0.000 NA
ENDBRANCH   6   7
BRANCH   1  12
ATOM     12  C   UNL     1       2.936   6.879  18.729  0.00  0.00    +0.000 C 
BRANCH  12  13
ATOM     13  N   UNL     1       2.443   6.957  20.102  0.00  0.00    +0.000 NA
ATOM     14  H   UNL     1       3.239   7.141  20.710  0.00  0.00    +0.000 HD
ATOM     15  H   UNL     1       2.148   6.011  20.354  0.00  0.00    +0.000 HD
ENDBRANCH  12  13
ENDBRANCH   1  12
TORSDOF 3
ENDMDL
MODEL 9
REMARK VINA RESULT:      -5.6      1.276      1.627
REMARK  Name = 
REMARK  3 active torsions:
REMARK  status: ('A' for Active; 'I' for Inactive)
REMARK    1  A    between atoms: N_1  and  C_2
REMARK    2  A    between atoms: C_2  and  C_3
REMARK    3  A    between atoms: C_8  and  N_9
REMARK                            x       y       z     vdW  Elec       q    Type
REMARK                         _______ _______ _______ _____ _____    ______ ____
ROOT
ATOM      1  C   UNL     1       3.426   3.494  19.516  0.00  0.00    +0.000 A 
ATOM      2  C   UNL     1       2.280   3.679  20.324  0.00  0.00    +0.000 A 
ATOM      3  C   UNL     1       1.722   4.936  20.530  0.00  0.00    +0.000 A 
ATOM      4  C   UNL     1       2.295   6.046  19.928  0.00  0.00    +0.000 A 
ATOM      5  C   UNL     1       3.419   5.895  19.113  0.00  0.00    +0.000 A 
ATOM      6  C   UNL     1       3.994   4.627  18.877  0.00  0.00    +0.000 A 
ENDROOT
BRANCH   6   7
ATOM      7  N   UNL     1       5.115   4.545  17.983  0.00  0.00    +0.000 N 
ATOM      8  C   UNL     1       6.445   4.825  18.263  0.00  0.00    +0.000 A 
ATOM      9  C   UNL     1       7.168   4.625  17.112  0.00  0.00    +0.000 A 
ATOM     10  C   UNL     1       6.217   4.228  16.171  0.00  0.00    +0.000 A 
ATOM     11  N   UNL     1       4.985   4.190  16.677  0.00  0.00    +0.000 NA
ENDBRANCH   6   7
BRANCH   1  12
ATOM     12  C   UNL     1       3.913   2.068  19.383  0.00  0.00    +0.000 C 
BRANCH  12  13
ATOM     13  N   UNL     1       5.085   1.838  20.223  0.00  0.00    +0.000 NA
ATOM     14  H   UNL     1       5.440   2.745  20.520  0.00  0.00    +0.000 HD
ATOM     15  H   UNL     1       5.814   1.473  19.605  0.00  0.00    +0.000 HD
ENDBRANCH  12  13
ENDBRANCH   1  12
TORSDOF 3
ENDMDL
