MODEL 1
REMARK VINA RESULT:      -6.1      0.000      0.000
REMARK  Name = 
REMARK  5 active torsions:
REMARK  status: ('A' for Active; 'I' for Inactive)
REMARK    1  A    between atoms: C_1  and  N_2
REMARK    2  A    between atoms: N_2  and  C_3
REMARK    3  A    between atoms: N_5  and  C_6
REMARK    4  A    between atoms: C_6  and  N_8
REMARK    5  A    between atoms: N_8  and  C_9
REMARK                            x       y       z     vdW  Elec       q    Type
REMARK                         _______ _______ _______ _____ _____    ______ ____
ROOT
ATOM      1  N   UNL     1       2.731   6.581  19.836  0.00  0.00    +0.000 N 
ATOM      2  H   UNL     1       3.684   6.661  20.171  0.00  0.00    +0.000 HD
ENDROOT
BRANCH   1   3
ATOM      3  C   UNL     1       2.208   5.284  19.678  0.00  0.00    +0.000 A 
ATOM      4  C   UNL     1       1.986   4.718  18.417  0.00  0.00    +0.000 A 
ATOM      5  C   UNL     1       1.375   3.468  18.294  0.00  0.00    +0.000 A 
ATOM      6  C   UNL     1       1.008   2.763  19.437  0.00  0.00    +0.000 A 
ATOM      7  C   UNL     1       1.239   3.325  20.688  0.00  0.00    +0.000 A 
ATOM      8  F   UNL     1       0.900   2.640  21.788  0.00  0.00    +0.000 F 
ATOM      9  C   UNL     1       1.813   4.587  20.820  0.00  0.00    +0.000 A 
ENDBRANCH   1   3
BRANCH   1  10
ATOM     10  C   UNL     1       2.091   7.786  19.647  0.00  0.00    +0.000 C 
ATOM     11  S   UNL     1       2.166   8.431  18.092  0.00  0.00    +0.000 S 
BRANCH  10  16
ATOM     12  C   UNL     1      -0.441   9.252  22.716  0.00  0.00    +0.000 C 
ATOM     13  N   UNL     1       0.126  10.051  21.642  0.00  0.00    +0.000 N 
ATOM     14  C   UNL     1      -0.315  11.427  21.500  0.00  0.00    +0.000 C 
ATOM     15  C   UNL     1       0.917   9.461  20.681  0.00  0.00    +0.000 C 
ATOM     16  N   UNL     1       1.421   8.275  20.743  0.00  0.00    +0.000 NA
ENDBRANCH  10  16
ENDBRANCH   1  10
TORSDOF 3
ENDMDL
MODEL 2
REMARK VINA RESULT:      -6.0      4.951      7.392
REMARK  Name = 
REMARK  5 active torsions:
REMARK  status: ('A' for Active; 'I' for Inactive)
REMARK    1  A    between atoms: C_1  and  N_2
REMARK    2  A    between atoms: N_2  and  C_3
REMARK    3  A    between atoms: N_5  and  C_6
REMARK    4  A    between atoms: C_6  and  N_8
REMARK    5  A    between atoms: N_8  and  C_9
REMARK                            x       y       z     vdW  Elec       q    Type
REMARK                         _______ _______ _______ _____ _____    ______ ____
ROOT
ATOM      1  N   UNL     1       5.947   3.879  17.318  0.00  0.00    +0.000 N 
ATOM      2  H   UNL     1       6.288   2.926  17.256  0.00  0.00    +0.000 HD
ENDROOT
BRANCH   1   3
ATOM      3  C   UNL     1       4.625   4.064  17.765  0.00  0.00    +0.000 A 
ATOM      4  C   UNL     1       3.875   5.196  17.425  0.00  0.00    +0.000 A 
ATOM      5  C   UNL     1       2.601   5.395  17.964  0.00  0.00    +0.000 A 
ATOM      6  C   UNL     1       2.060   4.445  18.825  0.00  0.00    +0.000 A 
ATOM      7  C   UNL     1       2.804   3.318  19.152  0.00  0.00    +0.000 A 
ATOM      8  F   UNL     1       2.277   2.396  19.969  0.00  0.00    +0.000 F 
ATOM      9  C   UNL     1       4.089   3.129  18.650  0.00  0.00    +0.000 A 
ENDBRANCH   1   3
BRANCH   1  10
ATOM     10  C   UNL     1       6.881   4.841  17.000  0.00  0.00    +0.000 C 
ATOM     11  S   UNL     1       7.405   5.816  18.271  0.00  0.00    +0.000 S 
BRANCH  10  16
ATOM     12  C   UNL     1       7.753   5.174  12.864  0.00  0.00    +0.000 C 
ATOM     13  N   UNL     1       6.806   4.241  13.450  0.00  0.00    +0.000 N 
ATOM     14  C   UNL     1       5.970   3.455  12.558  0.00  0.00    +0.000 C 
ATOM     15  C   UNL     1       6.583   4.239  14.809  0.00  0.00    +0.000 C 
ATOM     16  N   UNL     1       7.305   4.839  15.693  0.00  0.00    +0.000 NA
ENDBRANCH  10  16
ENDBRANCH   1  10
TORSDOF 3
ENDMDL
MODEL 3
REMARK VINA RESULT:      -6.0      3.054      5.221
REMARK  Name = 
REMARK  5 active torsions:
REMARK  status: ('A' for Active; 'I' for Inactive)
REMARK    1  A    between atoms: C_1  and  N_2
REMARK    2  A    between atoms: N_2  and  C_3
REMARK    3  A    between atoms: N_5  and  C_6
REMARK    4  A    between atoms: C_6  and  N_8
REMARK    5  A    between atoms: N_8  and  C_9
REMARK                            x       y       z     vdW  Elec       q    Type
REMARK                         _______ _______ _______ _____ _____    ______ ____
ROOT
ATOM      1  N   UNL     1       2.360   6.305  19.647  0.00  0.00    +0.000 N 
ATOM      2  H   UNL     1       1.938   7.079  20.147  0.00  0.00    +0.000 HD
ENDROOT
BRANCH   1   3
ATOM      3  C   UNL     1       1.991   5.004  20.038  0.00  0.00    +0.000 A 
ATOM      4  C   UNL     1       2.357   4.466  21.278  0.00  0.00    +0.000 A 
ATOM      5  C   UNL     1       2.058   3.138  21.594  0.00  0.00    +0.000 A 
ATOM      6  C   UNL     1       1.364   2.351  20.681  0.00  0.00    +0.000 A 
ATOM      7  C   UNL     1       0.994   2.892  19.456  0.00  0.00    +0.000 A 
ATOM      8  F   UNL     1       0.312   2.138  18.583  0.00  0.00    +0.000 F 
ATOM      9  C   UNL     1       1.320   4.202  19.115  0.00  0.00    +0.000 A 
ENDBRANCH   1   3
BRANCH   1  10
ATOM     10  C   UNL     1       3.195   6.679  18.616  0.00  0.00    +0.000 C 
ATOM     11  S   UNL     1       2.729   8.041  17.740  0.00  0.00    +0.000 S 
BRANCH  10  16
ATOM     12  C   UNL     1       6.879   4.737  17.823  0.00  0.00    +0.000 C 
ATOM     13  N   UNL     1       5.676   4.616  17.017  0.00  0.00    +0.000 N 
ATOM     14  C   UNL     1       5.760   3.902  15.755  0.00  0.00    +0.000 C 
ATOM     15  C   UNL     1       4.540   5.317  17.357  0.00  0.00    +0.000 C 
ATOM     16  N   UNL     1       4.333   5.922  18.477  0.00  0.00    +0.000 NA
ENDBRANCH  10  16
ENDBRANCH   1  10
TORSDOF 3
ENDMDL
MODEL 4
REMARK VINA RESULT:      -6.0      5.284      7.171
REMARK  Name = 
REMARK  5 active torsions:
REMARK  status: ('A' for Active; 'I' for Inactive)
REMARK    1  A    between atoms: C_1  and  N_2
REMARK    2  A    between atoms: N_2  and  C_3
REMARK    3  A    between atoms: N_5  and  C_6
REMARK    4  A    between atoms: C_6  and  N_8
REMARK    5  A    between atoms: N_8  and  C_9
REMARK                            x       y       z     vdW  Elec       q    Type
REMARK                         _______ _______ _______ _____ _____    ______ ____
ROOT
ATOM      1  N   UNL     1       5.253   3.296  17.641  0.00  0.00    +0.000 N 
ATOM      2  H   UNL     1       5.742   2.425  17.470  0.00  0.00    +0.000 HD
ENDROOT
BRANCH   1   3
ATOM      3  C   UNL     1       3.904   3.214  18.034  0.00  0.00    +0.000 A 
ATOM      4  C   UNL     1       3.450   2.254  18.946  0.00  0.00    +0.000 A 
ATOM      5  C   UNL     1       2.088   2.138  19.239  0.00  0.00    +0.000 A 
ATOM      6  C   UNL     1       1.177   3.004  18.643  0.00  0.00    +0.000 A 
ATOM      7  C   UNL     1       1.634   3.962  17.745  0.00  0.00    +0.000 A 
ATOM      8  F   UNL     1       0.758   4.806  17.182  0.00  0.00    +0.000 F 
ATOM      9  C   UNL     1       2.984   4.061  17.417  0.00  0.00    +0.000 A 
ENDBRANCH   1   3
BRANCH   1  10
ATOM     10  C   UNL     1       6.034   4.424  17.507  0.00  0.00    +0.000 C 
ATOM     11  S   UNL     1       6.143   5.417  18.865  0.00  0.00    +0.000 S 
BRANCH  10  16
ATOM     12  C   UNL     1       7.575   5.183  13.631  0.00  0.00    +0.000 C 
ATOM     13  N   UNL     1       6.567   4.187  13.954  0.00  0.00    +0.000 N 
ATOM     14  C   UNL     1       5.912   3.490  12.861  0.00  0.00    +0.000 C 
ATOM     15  C   UNL     1       6.121   4.045  15.249  0.00  0.00    +0.000 C 
ATOM     16  N   UNL     1       6.670   4.558  16.297  0.00  0.00    +0.000 NA
ENDBRANCH  10  16
ENDBRANCH   1  10
TORSDOF 3
ENDMDL
MODEL 5
REMARK VINA RESULT:      -5.9      3.018      5.069
REMARK  Name = 
REMARK  5 active torsions:
REMARK  status: ('A' for Active; 'I' for Inactive)
REMARK    1  A    between atoms: C_1  and  N_2
REMARK    2  A    between atoms: N_2  and  C_3
REMARK    3  A    between atoms: N_5  and  C_6
REMARK    4  A    between atoms: C_6  and  N_8
REMARK    5  A    between atoms: N_8  and  C_9
REMARK                            x       y       z     vdW  Elec       q    Type
REMARK                         _______ _______ _______ _____ _____    ______ ____
ROOT
ATOM      1  N   UNL     1       2.568   6.184  19.422  0.00  0.00    +0.000 N 
ATOM      2  H   UNL     1       2.336   6.823  20.174  0.00  0.00    +0.000 HD
ENDROOT
BRANCH   1   3
ATOM      3  C   UNL     1       2.059   4.875  19.505  0.00  0.00    +0.000 A 
ATOM      4  C   UNL     1       1.635   4.166  18.374  0.00  0.00    +0.000 A 
ATOM      5  C   UNL     1       1.045   2.906  18.503  0.00  0.00    +0.000 A 
ATOM      6  C   UNL     1       0.901   2.336  19.764  0.00  0.00    +0.000 A 
ATOM      7  C   UNL     1       1.332   3.039  20.883  0.00  0.00    +0.000 A 
ATOM      8  F   UNL     1       1.208   2.484  22.096  0.00  0.00    +0.000 F 
ATOM      9  C   UNL     1       1.887   4.312  20.769  0.00  0.00    +0.000 A 
ENDBRANCH   1   3
BRANCH   1  10
ATOM     10  C   UNL     1       3.310   6.746  18.405  0.00  0.00    +0.000 C 
ATOM     11  S   UNL     1       2.704   8.173  17.745  0.00  0.00    +0.000 S 
BRANCH  10  16
ATOM     12  C   UNL     1       7.048   5.185  17.155  0.00  0.00    +0.000 C 
ATOM     13  N   UNL     1       5.802   5.073  16.416  0.00  0.00    +0.000 N 
ATOM     14  C   UNL     1       5.844   4.522  15.072  0.00  0.00    +0.000 C 
ATOM     15  C   UNL     1       4.649   5.644  16.908  0.00  0.00    +0.000 C 
ATOM     16  N   UNL     1       4.482   6.095  18.104  0.00  0.00    +0.000 NA
ENDBRANCH  10  16
ENDBRANCH   1  10
TORSDOF 3
ENDMDL
MODEL 6
REMARK VINA RESULT:      -5.9      5.189      7.738
REMARK  Name = 
REMARK  5 active torsions:
REMARK  status: ('A' for Active; 'I' for Inactive)
REMARK    1  A    between atoms: C_1  and  N_2
REMARK    2  A    between atoms: N_2  and  C_3
REMARK    3  A    between atoms: N_5  and  C_6
REMARK    4  A    between atoms: C_6  and  N_8
REMARK    5  A    between atoms: N_8  and  C_9
REMARK                            x       y       z     vdW  Elec       q    Type
REMARK                         _______ _______ _______ _____ _____    ______ ____
ROOT
ATOM      1  N   UNL     1       5.192   5.530  16.253  0.00  0.00    +0.000 N 
ATOM      2  H   UNL     1       4.996   6.311  15.637  0.00  0.00    +0.000 HD
ENDROOT
BRANCH   1   3
ATOM      3  C   UNL     1       4.131   5.050  17.045  0.00  0.00    +0.000 A 
ATOM      4  C   UNL     1       3.513   5.841  18.022  0.00  0.00    +0.000 A 
ATOM      5  C   UNL     1       2.530   5.303  18.856  0.00  0.00    +0.000 A 
ATOM      6  C   UNL     1       2.140   3.976  18.698  0.00  0.00    +0.000 A 
ATOM      7  C   UNL     1       2.750   3.198  17.721  0.00  0.00    +0.000 A 
ATOM      8  F   UNL     1       2.363   1.925  17.559  0.00  0.00    +0.000 F 
ATOM      9  C   UNL     1       3.757   3.714  16.909  0.00  0.00    +0.000 A 
ENDBRANCH   1   3
BRANCH   1  10
ATOM     10  C   UNL     1       6.474   5.035  16.157  0.00  0.00    +0.000 C 
ATOM     11  S   UNL     1       7.287   4.791  17.613  0.00  0.00    +0.000 S 
BRANCH  10  16
ATOM     12  C   UNL     1       7.386   4.506  12.050  0.00  0.00    +0.000 C 
ATOM     13  N   UNL     1       6.352   3.791  12.780  0.00  0.00    +0.000 N 
ATOM     14  C   UNL     1       5.448   2.934  12.033  0.00  0.00    +0.000 C 
ATOM     15  C   UNL     1       6.126   4.064  14.111  0.00  0.00    +0.000 C 
ATOM     16  N   UNL     1       6.900   4.749  14.882  0.00  0.00    +0.000 NA
ENDBRANCH  10  16
ENDBRANCH   1  10
TORSDOF 3
ENDMDL
MODEL 7
REMARK VINA RESULT:      -5.9      4.755      6.942
REMARK  Name = 
REMARK  5 active torsions:
REMARK  status: ('A' for Active; 'I' for Inactive)
REMARK    1  A    between atoms: C_1  and  N_2
REMARK    2  A    between atoms: N_2  and  C_3
REMARK    3  A    between atoms: N_5  and  C_6
REMARK    4  A    between atoms: C_6  and  N_8
REMARK    5  A    between atoms: N_8  and  C_9
REMARK                            x       y       z     vdW  Elec       q    Type
REMARK                         _______ _______ _______ _____ _____    ______ ____
ROOT
ATOM      1  N   UNL     1       5.633   3.588  18.437  0.00  0.00    +0.000 N 
ATOM      2  H   UNL     1       6.244   2.946  18.928  0.00  0.00    +0.000 HD
ENDROOT
BRANCH   1   3
ATOM      3  C   UNL     1       4.251   3.486  18.686  0.00  0.00    +0.000 A 
ATOM      4  C   UNL     1       3.440   2.557  18.024  0.00  0.00    +0.000 A 
ATOM      5  C   UNL     1       2.058   2.548  18.223  0.00  0.00    +0.000 A 
ATOM      6  C   UNL     1       1.482   3.452  19.111  0.00  0.00    +0.000 A 
ATOM      7  C   UNL     1       2.293   4.366  19.774  0.00  0.00    +0.000 A 
ATOM      8  F   UNL     1       1.740   5.226  20.641  0.00  0.00    +0.000 F 
ATOM      9  C   UNL     1       3.667   4.409  19.554  0.00  0.00    +0.000 A 
ENDBRANCH   1   3
BRANCH   1  10
ATOM     10  C   UNL     1       6.289   4.501  17.639  0.00  0.00    +0.000 C 
ATOM     11  S   UNL     1       7.349   5.548  18.425  0.00  0.00    +0.000 S 
BRANCH  10  16
ATOM     12  C   UNL     1       5.904   3.784  13.477  0.00  0.00    +0.000 C 
ATOM     13  N   UNL     1       6.872   4.679  14.089  0.00  0.00    +0.000 N 
ATOM     14  C   UNL     1       7.896   5.269  13.245  0.00  0.00    +0.000 C 
ATOM     15  C   UNL     1       6.923   4.814  15.459  0.00  0.00    +0.000 C 
ATOM     16  N   UNL     1       6.032   4.395  16.293  0.00  0.00    +0.000 NA
ENDBRANCH  10  16
ENDBRANCH   1  10
TORSDOF 3
ENDMDL
MODEL 8
REMARK VINA RESULT:      -5.9      5.089      5.955
REMARK  Name = 
REMARK  5 active torsions:
REMARK  status: ('A' for Active; 'I' for Inactive)
REMARK    1  A    between atoms: C_1  and  N_2
REMARK    2  A    between atoms: N_2  and  C_3
REMARK    3  A    between atoms: N_5  and  C_6
REMARK    4  A    between atoms: C_6  and  N_8
REMARK    5  A    between atoms: N_8  and  C_9
REMARK                            x       y       z     vdW  Elec       q    Type
REMARK                         _______ _______ _______ _____ _____    ______ ____
ROOT
ATOM      1  N   UNL     1       4.258   4.912  16.507  0.00  0.00    +0.000 N 
ATOM      2  H   UNL     1       3.835   5.786  16.217  0.00  0.00    +0.000 HD
ENDROOT
BRANCH   1   3
ATOM      3  C   UNL     1       3.446   4.004  17.213  0.00  0.00    +0.000 A 
ATOM      4  C   UNL     1       2.160   4.340  17.654  0.00  0.00    +0.000 A 
ATOM      5  C   UNL     1       1.420   3.449  18.436  0.00  0.00    +0.000 A 
ATOM      6  C   UNL     1       1.954   2.205  18.758  0.00  0.00    +0.000 A 
ATOM      7  C   UNL     1       3.227   1.872  18.310  0.00  0.00    +0.000 A 
ATOM      8  F   UNL     1       3.734   0.668  18.607  0.00  0.00    +0.000 F 
ATOM      9  C   UNL     1       3.988   2.767  17.562  0.00  0.00    +0.000 A 
ENDBRANCH   1   3
BRANCH   1  10
ATOM     10  C   UNL     1       5.563   4.746  16.098  0.00  0.00    +0.000 C 
ATOM     11  S   UNL     1       5.782   4.145  14.539  0.00  0.00    +0.000 S 
BRANCH  10  16
ATOM     12  C   UNL     1       8.088   6.255  19.152  0.00  0.00    +0.000 C 
ATOM     13  N   UNL     1       7.678   6.985  17.965  0.00  0.00    +0.000 N 
ATOM     14  C   UNL     1       8.023   8.392  17.867  0.00  0.00    +0.000 C 
ATOM     15  C   UNL     1       6.831   6.402  17.048  0.00  0.00    +0.000 C 
ATOM     16  N   UNL     1       6.518   5.152  17.000  0.00  0.00    +0.000 NA
ENDBRANCH  10  16
ENDBRANCH   1  10
TORSDOF 3
ENDMDL
MODEL 9
REMARK VINA RESULT:      -5.8      4.041      5.777
REMARK  Name = 
REMARK  5 active torsions:
REMARK  status: ('A' for Active; 'I' for Inactive)
REMARK    1  A    between atoms: C_1  and  N_2
REMARK    2  A    between atoms: N_2  and  C_3
REMARK    3  A    between atoms: N_5  and  C_6
REMARK    4  A    between atoms: C_6  and  N_8
REMARK    5  A    between atoms: N_8  and  C_9
REMARK                            x       y       z     vdW  Elec       q    Type
REMARK                         _______ _______ _______ _____ _____    ______ ____
ROOT
ATOM      1  N   UNL     1       4.308   6.417  18.497  0.00  0.00    +0.000 N 
ATOM      2  H   UNL     1       4.672   6.841  19.342  0.00  0.00    +0.000 HD
ENDROOT
BRANCH   1   3
ATOM      3  C   UNL     1       5.240   5.888  17.584  0.00  0.00    +0.000 A 
ATOM      4  C   UNL     1       5.027   5.915  16.201  0.00  0.00    +0.000 A 
ATOM      5  C   UNL     1       5.926   5.296  15.329  0.00  0.00    +0.000 A 
ATOM      6  C   UNL     1       7.060   4.670  15.838  0.00  0.00    +0.000 A 
ATOM      7  C   UNL     1       7.273   4.654  17.211  0.00  0.00    +0.000 A 
ATOM      8  F   UNL     1       8.373   4.065  17.699  0.00  0.00    +0.000 F 
ATOM      9  C   UNL     1       6.364   5.235  18.091  0.00  0.00    +0.000 A 
ENDBRANCH   1   3
BRANCH   1  10
ATOM     10  C   UNL     1       2.932   6.385  18.423  0.00  0.00    +0.000 C 
ATOM     11  S   UNL     1       2.169   7.859  18.135  0.00  0.00    +0.000 S 
BRANCH  10  16
ATOM     12  C   UNL     1       0.746   2.799  19.006  0.00  0.00    +0.000 C 
ATOM     13  N   UNL     1       1.580   3.445  20.004  0.00  0.00    +0.000 N 
ATOM     14  C   UNL     1       1.561   2.925  21.360  0.00  0.00    +0.000 C 
ATOM     15  C   UNL     1       2.226   4.626  19.711  0.00  0.00    +0.000 C 
ATOM     16  N   UNL     1       2.366   5.137  18.536  0.00  0.00    +0.000 NA
ENDBRANCH  10  16
ENDBRANCH   1  10
TORSDOF 3
ENDMDL
