MODEL 1
REMARK VINA RESULT:      -9.7      0.000      0.000
REMARK  Name = 
REMARK  6 active torsions:
REMARK  status: ('A' for Active; 'I' for Inactive)
REMARK    1  A    between atoms: C_1  and  C_2
REMARK    2  A    between atoms: C_5  and  C_6
REMARK    3  A    between atoms: N_9  and  C_10
REMARK    4  A    between atoms: C_13  and  N_14
REMARK    5  A    between atoms: C_15  and  C_17
REMARK    6  A    between atoms: C_27  and  C_28
REMARK                            x       y       z     vdW  Elec       q    Type
REMARK                         _______ _______ _______ _____ _____    ______ ____
ROOT
ATOM      1  C   UNL     1       1.134   9.233  19.801  0.00  0.00    +0.000 A 
ATOM      2  C   UNL     1       1.564   9.121  18.481  0.00  0.00    +0.000 A 
ATOM      3  C   UNL     1       2.344   8.041  18.070  0.00  0.00    +0.000 A 
ATOM      4  C   UNL     1       2.684   7.025  18.958  0.00  0.00    +0.000 A 
ATOM      5  C   UNL     1       2.152   7.064  20.253  0.00  0.00    +0.000 A 
ATOM      6  C   UNL     1       1.384   8.158  20.673  0.00  0.00    +0.000 A 
ENDROOT
BRANCH   1  10
ATOM      7  C   UNL     1      -0.672  11.925  21.420  0.00  0.00    +0.000 A 
ATOM      8  C   UNL     1      -0.288  12.397  20.163  0.00  0.00    +0.000 A 
ATOM      9  N   UNL     1       0.393  11.486  19.473  0.00  0.00    +0.000 NA
ATOM     10  N   UNL     1       0.497  10.409  20.303  0.00  0.00    +0.000 N 
ATOM     11  C   UNL     1      -0.147  10.646  21.514  0.00  0.00    +0.000 A 
BRANCH   7  16
ATOM     12  C   UNL     1      -4.506  13.264  24.175  0.00  0.00    +0.000 C 
ATOM     13  C   UNL     1      -3.158  13.233  23.586  0.00  0.00    +0.000 A 
ATOM     14  N   UNL     1      -2.166  14.005  24.039  0.00  0.00    +0.000 NA
ATOM     15  O   UNL     1      -1.093  13.631  23.243  0.00  0.00    +0.000 OA
ATOM     16  C   UNL     1      -1.531  12.653  22.392  0.00  0.00    +0.000 A 
ATOM     17  N   UNL     1      -2.813  12.393  22.558  0.00  0.00    +0.000 NA
ENDBRANCH   7  16
BRANCH  11  18
ATOM     18  C   UNL     1      -0.299   9.617  22.555  0.00  0.00    +0.000 C 
ATOM     19  F   UNL     1      -1.072  10.007  23.594  0.00  0.00    +0.000 F 
ATOM     20  F   UNL     1      -0.878   8.487  22.084  0.00  0.00    +0.000 F 
ATOM     21  F   UNL     1       0.895   9.278  23.101  0.00  0.00    +0.000 F 
ENDBRANCH  11  18
ENDBRANCH   1  10
BRANCH   4  22
ATOM     22  N   UNL     1       3.544   5.962  18.609  0.00  0.00    +0.000 N 
ATOM     23  C   UNL     1       3.173   4.835  17.890  0.00  0.00    +0.000 C 
ATOM     24  O   UNL     1       2.048   4.569  17.487  0.00  0.00    +0.000 OA
ATOM     25  H   UNL     1       4.532   6.123  18.755  0.00  0.00    +0.000 HD
BRANCH  23  26
ATOM     26  C   UNL     1       4.328   3.860  17.656  0.00  0.00    +0.000 C 
ATOM     27  C   UNL     1       5.473   4.047  18.664  0.00  0.00    +0.000 C 
ATOM     28  C   UNL     1       6.284   5.333  18.536  0.00  0.00    +0.000 C 
ATOM     29  S   UNL     1       6.882   5.622  16.891  0.00  0.00    +0.000 S 
ATOM     30  O   UNL     1       7.179   7.037  16.756  0.00  0.00    +0.000 OA
ATOM     31  O   UNL     1       7.895   4.627  16.608  0.00  0.00    +0.000 OA
ATOM     32  C   UNL     1       5.479   5.263  15.852  0.00  0.00    +0.000 C 
ATOM     33  C   UNL     1       4.815   3.939  16.204  0.00  0.00    +0.000 C 
ENDBRANCH  23  26
ENDBRANCH   4  22
TORSDOF 5
ENDMDL
MODEL 2
REMARK VINA RESULT:      -9.7      1.658      2.052
REMARK  Name = 
REMARK  6 active torsions:
REMARK  status: ('A' for Active; 'I' for Inactive)
REMARK    1  A    between atoms: C_1  and  C_2
REMARK    2  A    between atoms: C_5  and  C_6
REMARK    3  A    between atoms: N_9  and  C_10
REMARK    4  A    between atoms: C_13  and  N_14
REMARK    5  A    between atoms: C_15  and  C_17
REMARK    6  A    between atoms: C_27  and  C_28
REMARK                            x       y       z     vdW  Elec       q    Type
REMARK                         _______ _______ _______ _____ _____    ______ ____
ROOT
ATOM      1  C   UNL     1       0.784   9.446  19.211  0.00  0.00    +0.000 A 
ATOM      2  C   UNL     1       1.050   8.606  20.290  0.00  0.00    +0.000 A 
ATOM      3  C   UNL     1       1.948   7.546  20.169  0.00  0.00    +0.000 A 
ATOM      4  C   UNL     1       2.631   7.319  18.978  0.00  0.00    +0.000 A 
ATOM      5  C   UNL     1       2.465   8.232  17.928  0.00  0.00    +0.000 A 
ATOM      6  C   UNL     1       1.550   9.287  18.043  0.00  0.00    +0.000 A 
ENDROOT
BRANCH   1  10
ATOM      7  C   UNL     1      -1.711  12.021  19.732  0.00  0.00    +0.000 A 
ATOM      8  C   UNL     1      -2.121  11.282  18.621  0.00  0.00    +0.000 A 
ATOM      9  N   UNL     1      -1.271  10.301  18.330  0.00  0.00    +0.000 NA
ATOM     10  N   UNL     1      -0.261  10.420  19.237  0.00  0.00    +0.000 N 
ATOM     11  C   UNL     1      -0.499  11.472  20.117  0.00  0.00    +0.000 A 
BRANCH   7  16
ATOM     12  C   UNL     1      -5.024  14.430  22.435  0.00  0.00    +0.000 C 
ATOM     13  C   UNL     1      -3.889  14.161  21.538  0.00  0.00    +0.000 A 
ATOM     14  N   UNL     1      -3.062  15.126  21.127  0.00  0.00    +0.000 NA
ATOM     15  O   UNL     1      -2.141  14.438  20.351  0.00  0.00    +0.000 OA
ATOM     16  C   UNL     1      -2.486  13.114  20.378  0.00  0.00    +0.000 A 
ATOM     17  N   UNL     1      -3.579  12.903  21.085  0.00  0.00    +0.000 NA
ENDBRANCH   7  16
BRANCH  11  18
ATOM     18  C   UNL     1       0.364  11.760  21.273  0.00  0.00    +0.000 C 
ATOM     19  F   UNL     1       1.686  11.659  21.002  0.00  0.00    +0.000 F 
ATOM     20  F   UNL     1       0.193  13.018  21.745  0.00  0.00    +0.000 F 
ATOM     21  F   UNL     1       0.137  10.897  22.294  0.00  0.00    +0.000 F 
ENDBRANCH  11  18
ENDBRANCH   1  10
BRANCH   4  22
ATOM     22  N   UNL     1       3.478   6.208  18.783  0.00  0.00    +0.000 N 
ATOM     23  C   UNL     1       3.137   5.052  18.098  0.00  0.00    +0.000 C 
ATOM     24  O   UNL     1       2.048   4.798  17.598  0.00  0.00    +0.000 OA
ATOM     25  H   UNL     1       4.452   6.345  19.019  0.00  0.00    +0.000 HD
BRANCH  23  26
ATOM     26  C   UNL     1       4.270   4.025  18.041  0.00  0.00    +0.000 C 
ATOM     27  C   UNL     1       5.419   4.359  19.006  0.00  0.00    +0.000 C 
ATOM     28  C   UNL     1       6.258   5.585  18.660  0.00  0.00    +0.000 C 
ATOM     29  S   UNL     1       6.862   5.571  16.992  0.00  0.00    +0.000 S 
ATOM     30  O   UNL     1       7.191   6.935  16.615  0.00  0.00    +0.000 OA
ATOM     31  O   UNL     1       7.853   4.521  16.891  0.00  0.00    +0.000 OA
ATOM     32  C   UNL     1       5.452   5.068  16.026  0.00  0.00    +0.000 C 
ATOM     33  C   UNL     1       4.759   3.840  16.600  0.00  0.00    +0.000 C 
ENDBRANCH  23  26
ENDBRANCH   4  22
TORSDOF 5
ENDMDL
MODEL 3
REMARK VINA RESULT:      -9.6      2.637      3.291
REMARK  Name = 
REMARK  6 active torsions:
REMARK  status: ('A' for Active; 'I' for Inactive)
REMARK    1  A    between atoms: C_1  and  C_2
REMARK    2  A    between atoms: C_5  and  C_6
REMARK    3  A    between atoms: N_9  and  C_10
REMARK    4  A    between atoms: C_13  and  N_14
REMARK    5  A    between atoms: C_15  and  C_17
REMARK    6  A    between atoms: C_27  and  C_28
REMARK                            x       y       z     vdW  Elec       q    Type
REMARK                         _______ _______ _______ _____ _____    ______ ____
ROOT
ATOM      1  C   UNL     1       0.779   9.796  18.939  0.00  0.00    +0.000 A 
ATOM      2  C   UNL     1       1.387   9.313  17.783  0.00  0.00    +0.000 A 
ATOM      3  C   UNL     1       2.246   8.216  17.829  0.00  0.00    +0.000 A 
ATOM      4  C   UNL     1       2.492   7.550  19.026  0.00  0.00    +0.000 A 
ATOM      5  C   UNL     1       1.789   7.950  20.170  0.00  0.00    +0.000 A 
ATOM      6  C   UNL     1       0.939   9.063  20.128  0.00  0.00    +0.000 A 
ENDROOT
BRANCH   1  10
ATOM      7  C   UNL     1      -0.671  13.107  19.189  0.00  0.00    +0.000 A 
ATOM      8  C   UNL     1      -1.731  12.217  19.007  0.00  0.00    +0.000 A 
ATOM      9  N   UNL     1      -1.315  10.958  18.897  0.00  0.00    +0.000 NA
ATOM     10  N   UNL     1       0.046  11.022  18.965  0.00  0.00    +0.000 N 
ATOM     11  C   UNL     1       0.477  12.334  19.144  0.00  0.00    +0.000 A 
BRANCH   7  16
ATOM     12  C   UNL     1      -0.646  17.979  18.596  0.00  0.00    +0.000 C 
ATOM     13  C   UNL     1      -0.807  16.652  19.211  0.00  0.00    +0.000 A 
ATOM     14  N   UNL     1      -1.364  16.489  20.414  0.00  0.00    +0.000 NA
ATOM     15  O   UNL     1      -1.351  15.112  20.579  0.00  0.00    +0.000 OA
ATOM     16  C   UNL     1      -0.802  14.566  19.450  0.00  0.00    +0.000 A 
ATOM     17  N   UNL     1      -0.431  15.490  18.586  0.00  0.00    +0.000 NA
ENDBRANCH   7  16
BRANCH  11  18
ATOM     18  C   UNL     1       1.887  12.689  19.369  0.00  0.00    +0.000 C 
ATOM     19  F   UNL     1       2.124  14.021  19.323  0.00  0.00    +0.000 F 
ATOM     20  F   UNL     1       2.332  12.291  20.585  0.00  0.00    +0.000 F 
ATOM     21  F   UNL     1       2.697  12.145  18.429  0.00  0.00    +0.000 F 
ENDBRANCH  11  18
ENDBRANCH   1  10
BRANCH   4  22
ATOM     22  N   UNL     1       3.422   6.495  19.136  0.00  0.00    +0.000 N 
ATOM     23  C   UNL     1       3.370   5.305  18.424  0.00  0.00    +0.000 C 
ATOM     24  O   UNL     1       2.499   4.970  17.632  0.00  0.00    +0.000 OA
ATOM     25  H   UNL     1       4.270   6.701  19.647  0.00  0.00    +0.000 HD
BRANCH  23  26
ATOM     26  C   UNL     1       4.525   4.356  18.748  0.00  0.00    +0.000 C 
ATOM     27  C   UNL     1       5.749   5.088  19.321  0.00  0.00    +0.000 C 
ATOM     28  C   UNL     1       6.511   5.989  18.355  0.00  0.00    +0.000 C 
ATOM     29  S   UNL     1       6.955   5.176  16.842  0.00  0.00    +0.000 S 
ATOM     30  O   UNL     1       7.202   6.192  15.834  0.00  0.00    +0.000 OA
ATOM     31  O   UNL     1       7.965   4.186  17.152  0.00  0.00    +0.000 OA
ATOM     32  C   UNL     1       5.476   4.299  16.374  0.00  0.00    +0.000 C 
ATOM     33  C   UNL     1       4.880   3.501  17.526  0.00  0.00    +0.000 C 
ENDBRANCH  23  26
ENDBRANCH   4  22
TORSDOF 5
ENDMDL
MODEL 4
REMARK VINA RESULT:      -9.6      1.796      2.129
REMARK  Name = 
REMARK  6 active torsions:
REMARK  status: ('A' for Active; 'I' for Inactive)
REMARK    1  A    between atoms: C_1  and  C_2
REMARK    2  A    between atoms: C_5  and  C_6
REMARK    3  A    between atoms: N_9  and  C_10
REMARK    4  A    between atoms: C_13  and  N_14
REMARK    5  A    between atoms: C_15  and  C_17
REMARK    6  A    between atoms: C_27  and  C_28
REMARK                            x       y       z     vdW  Elec       q    Type
REMARK                         _______ _______ _______ _____ _____    ______ ____
ROOT
ATOM      1  C   UNL     1       0.744   9.398  19.281  0.00  0.00    +0.000 A 
ATOM      2  C   UNL     1       1.027   8.576  20.368  0.00  0.00    +0.000 A 
ATOM      3  C   UNL     1       1.934   7.524  20.254  0.00  0.00    +0.000 A 
ATOM      4  C   UNL     1       2.609   7.287  19.060  0.00  0.00    +0.000 A 
ATOM      5  C   UNL     1       2.426   8.184  18.000  0.00  0.00    +0.000 A 
ATOM      6  C   UNL     1       1.501   9.232  18.108  0.00  0.00    +0.000 A 
ENDROOT
BRANCH   1  10
ATOM      7  C   UNL     1      -1.791  11.936  19.797  0.00  0.00    +0.000 A 
ATOM      8  C   UNL     1      -2.161  11.225  18.655  0.00  0.00    +0.000 A 
ATOM      9  N   UNL     1      -1.294  10.260  18.362  0.00  0.00    +0.000 NA
ATOM     10  N   UNL     1      -0.311  10.362  19.303  0.00  0.00    +0.000 N 
ATOM     11  C   UNL     1      -0.585  11.388  20.203  0.00  0.00    +0.000 A 
BRANCH   7  16
ATOM     12  C   UNL     1      -3.422  16.336  21.234  0.00  0.00    +0.000 C 
ATOM     13  C   UNL     1      -3.313  14.879  21.066  0.00  0.00    +0.000 A 
ATOM     14  N   UNL     1      -4.254  14.040  21.508  0.00  0.00    +0.000 NA
ATOM     15  O   UNL     1      -3.775  12.799  21.112  0.00  0.00    +0.000 OA
ATOM     16  C   UNL     1      -2.595  13.004  20.451  0.00  0.00    +0.000 A 
ATOM     17  N   UNL     1      -2.261  14.280  20.420  0.00  0.00    +0.000 NA
ENDBRANCH   7  16
BRANCH  11  18
ATOM     18  C   UNL     1       0.241  11.651  21.392  0.00  0.00    +0.000 C 
ATOM     19  F   UNL     1      -0.018  12.842  21.979  0.00  0.00    +0.000 F 
ATOM     20  F   UNL     1       0.055  10.726  22.365  0.00  0.00    +0.000 F 
ATOM     21  F   UNL     1       1.562  11.677  21.089  0.00  0.00    +0.000 F 
ENDBRANCH  11  18
ENDBRANCH   1  10
BRANCH   4  22
ATOM     22  N   UNL     1       3.466   6.182  18.873  0.00  0.00    +0.000 N 
ATOM     23  C   UNL     1       3.154   5.041  18.148  0.00  0.00    +0.000 C 
ATOM     24  O   UNL     1       2.087   4.798  17.601  0.00  0.00    +0.000 OA
ATOM     25  H   UNL     1       4.430   6.315  19.150  0.00  0.00    +0.000 HD
BRANCH  23  26
ATOM     26  C   UNL     1       4.291   4.018  18.112  0.00  0.00    +0.000 C 
ATOM     27  C   UNL     1       5.461   4.402  19.032  0.00  0.00    +0.000 C 
ATOM     28  C   UNL     1       6.285   5.614  18.608  0.00  0.00    +0.000 C 
ATOM     29  S   UNL     1       6.849   5.523  16.929  0.00  0.00    +0.000 S 
ATOM     30  O   UNL     1       7.162   6.869  16.481  0.00  0.00    +0.000 OA
ATOM     31  O   UNL     1       7.843   4.474  16.853  0.00  0.00    +0.000 OA
ATOM     32  C   UNL     1       5.419   4.970  16.022  0.00  0.00    +0.000 C 
ATOM     33  C   UNL     1       4.746   3.768  16.670  0.00  0.00    +0.000 C 
ENDBRANCH  23  26
ENDBRANCH   4  22
TORSDOF 5
ENDMDL
MODEL 5
REMARK VINA RESULT:      -9.6      0.728      1.070
REMARK  Name = 
REMARK  6 active torsions:
REMARK  status: ('A' for Active; 'I' for Inactive)
REMARK    1  A    between atoms: C_1  and  C_2
REMARK    2  A    between atoms: C_5  and  C_6
REMARK    3  A    between atoms: N_9  and  C_10
REMARK    4  A    between atoms: C_13  and  N_14
REMARK    5  A    between atoms: C_15  and  C_17
REMARK    6  A    between atoms: C_27  and  C_28
REMARK                            x       y       z     vdW  Elec       q    Type
REMARK                         _______ _______ _______ _____ _____    ______ ____
ROOT
ATOM      1  C   UNL     1       1.092   9.287  19.838  0.00  0.00    +0.000 A 
ATOM      2  C   UNL     1       1.490   9.145  18.511  0.00  0.00    +0.000 A 
ATOM      3  C   UNL     1       2.265   8.060  18.106  0.00  0.00    +0.000 A 
ATOM      4  C   UNL     1       2.633   7.067  19.010  0.00  0.00    +0.000 A 
ATOM      5  C   UNL     1       2.134   7.135  20.317  0.00  0.00    +0.000 A 
ATOM      6  C   UNL     1       1.369   8.235  20.729  0.00  0.00    +0.000 A 
ENDROOT
BRANCH   1  10
ATOM      7  C   UNL     1      -0.707  12.004  21.421  0.00  0.00    +0.000 A 
ATOM      8  C   UNL     1      -0.296  12.469  20.170  0.00  0.00    +0.000 A 
ATOM      9  N   UNL     1       0.384  11.549  19.493  0.00  0.00    +0.000 NA
ATOM     10  N   UNL     1       0.462  10.472  20.327  0.00  0.00    +0.000 N 
ATOM     11  C   UNL     1      -0.200  10.719  21.526  0.00  0.00    +0.000 A 
BRANCH   7  16
ATOM     12  C   UNL     1      -2.221  15.065  24.946  0.00  0.00    +0.000 C 
ATOM     13  C   UNL     1      -2.240  14.056  23.876  0.00  0.00    +0.000 A 
ATOM     14  N   UNL     1      -3.380  13.586  23.363  0.00  0.00    +0.000 NA
ATOM     15  O   UNL     1      -2.942  12.710  22.380  0.00  0.00    +0.000 OA
ATOM     16  C   UNL     1      -1.574  12.745  22.378  0.00  0.00    +0.000 A 
ATOM     17  N   UNL     1      -1.099  13.551  23.306  0.00  0.00    +0.000 NA
ENDBRANCH   7  16
BRANCH  11  18
ATOM     18  C   UNL     1      -0.381   9.695  22.567  0.00  0.00    +0.000 C 
ATOM     19  F   UNL     1       0.771   9.330  23.175  0.00  0.00    +0.000 F 
ATOM     20  F   UNL     1      -1.195  10.112  23.566  0.00  0.00    +0.000 F 
ATOM     21  F   UNL     1      -0.900   8.551  22.057  0.00  0.00    +0.000 F 
ENDBRANCH  11  18
ENDBRANCH   1  10
BRANCH   4  22
ATOM     22  N   UNL     1       3.489   6.000  18.666  0.00  0.00    +0.000 N 
ATOM     23  C   UNL     1       3.116   4.872  17.951  0.00  0.00    +0.000 C 
ATOM     24  O   UNL     1       1.990   4.607  17.549  0.00  0.00    +0.000 OA
ATOM     25  H   UNL     1       4.478   6.159  18.811  0.00  0.00    +0.000 HD
BRANCH  23  26
ATOM     26  C   UNL     1       4.268   3.892  17.721  0.00  0.00    +0.000 C 
ATOM     27  C   UNL     1       5.421   4.091  18.719  0.00  0.00    +0.000 C 
ATOM     28  C   UNL     1       6.231   5.373  18.568  0.00  0.00    +0.000 C 
ATOM     29  S   UNL     1       6.818   5.641  16.916  0.00  0.00    +0.000 S 
ATOM     30  O   UNL     1       7.116   7.054  16.762  0.00  0.00    +0.000 OA
ATOM     31  O   UNL     1       7.829   4.642  16.639  0.00  0.00    +0.000 OA
ATOM     32  C   UNL     1       5.408   5.271  15.892  0.00  0.00    +0.000 C 
ATOM     33  C   UNL     1       4.745   3.952  16.265  0.00  0.00    +0.000 C 
ENDBRANCH  23  26
ENDBRANCH   4  22
TORSDOF 5
ENDMDL
MODEL 6
REMARK VINA RESULT:      -9.5      2.030      2.288
REMARK  Name = 
REMARK  6 active torsions:
REMARK  status: ('A' for Active; 'I' for Inactive)
REMARK    1  A    between atoms: C_1  and  C_2
REMARK    2  A    between atoms: C_5  and  C_6
REMARK    3  A    between atoms: N_9  and  C_10
REMARK    4  A    between atoms: C_13  and  N_14
REMARK    5  A    between atoms: C_15  and  C_17
REMARK    6  A    between atoms: C_27  and  C_28
REMARK                            x       y       z     vdW  Elec       q    Type
REMARK                         _______ _______ _______ _____ _____    ______ ____
ROOT
ATOM      1  C   UNL     1       0.896   9.498  20.008  0.00  0.00    +0.000 A 
ATOM      2  C   UNL     1       1.453   9.445  18.733  0.00  0.00    +0.000 A 
ATOM      3  C   UNL     1       2.231   8.359  18.335  0.00  0.00    +0.000 A 
ATOM      4  C   UNL     1       2.444   7.281  19.189  0.00  0.00    +0.000 A 
ATOM      5  C   UNL     1       1.786   7.267  20.426  0.00  0.00    +0.000 A 
ATOM      6  C   UNL     1       1.018   8.366  20.833  0.00  0.00    +0.000 A 
ENDROOT
BRANCH   1  10
ATOM      7  C   UNL     1      -0.976  12.480  20.869  0.00  0.00    +0.000 A 
ATOM      8  C   UNL     1       0.079  12.389  21.780  0.00  0.00    +0.000 A 
ATOM      9  N   UNL     1       0.839  11.320  21.562  0.00  0.00    +0.000 NA
ATOM     10  N   UNL     1       0.253  10.669  20.516  0.00  0.00    +0.000 N 
ATOM     11  C   UNL     1      -0.870  11.357  20.065  0.00  0.00    +0.000 A 
BRANCH   7  16
ATOM     12  C   UNL     1      -5.049  15.187  21.273  0.00  0.00    +0.000 C 
ATOM     13  C   UNL     1      -3.673  14.783  20.947  0.00  0.00    +0.000 A 
ATOM     14  N   UNL     1      -2.771  15.648  20.475  0.00  0.00    +0.000 NA
ATOM     15  O   UNL     1      -1.629  14.870  20.348  0.00  0.00    +0.000 OA
ATOM     16  C   UNL     1      -1.942  13.607  20.773  0.00  0.00    +0.000 A 
ATOM     17  N   UNL     1      -3.207  13.506  21.131  0.00  0.00    +0.000 NA
ENDBRANCH   7  16
BRANCH  11  18
ATOM     18  C   UNL     1      -1.631  10.951  18.873  0.00  0.00    +0.000 C 
ATOM     19  F   UNL     1      -2.871  11.489  18.813  0.00  0.00    +0.000 F 
ATOM     20  F   UNL     1      -1.025  11.325  17.721  0.00  0.00    +0.000 F 
ATOM     21  F   UNL     1      -1.817   9.609  18.830  0.00  0.00    +0.000 F 
ENDBRANCH  11  18
ENDBRANCH   1  10
BRANCH   4  22
ATOM     22  N   UNL     1       3.296   6.205  18.863  0.00  0.00    +0.000 N 
ATOM     23  C   UNL     1       2.936   5.098  18.108  0.00  0.00    +0.000 C 
ATOM     24  O   UNL     1       1.826   4.863  17.649  0.00  0.00    +0.000 OA
ATOM     25  H   UNL     1       4.280   6.342  19.057  0.00  0.00    +0.000 HD
BRANCH  23  26
ATOM     26  C   UNL     1       4.080   4.102  17.912  0.00  0.00    +0.000 C 
ATOM     27  C   UNL     1       5.235   4.325  18.901  0.00  0.00    +0.000 C 
ATOM     28  C   UNL     1       6.056   5.595  18.706  0.00  0.00    +0.000 C 
ATOM     29  S   UNL     1       6.644   5.800  17.045  0.00  0.00    +0.000 S 
ATOM     30  O   UNL     1       6.953   7.205  16.842  0.00  0.00    +0.000 OA
ATOM     31  O   UNL     1       7.646   4.784  16.802  0.00  0.00    +0.000 OA
ATOM     32  C   UNL     1       5.230   5.407  16.035  0.00  0.00    +0.000 C 
ATOM     33  C   UNL     1       4.556   4.107  16.454  0.00  0.00    +0.000 C 
ENDBRANCH  23  26
ENDBRANCH   4  22
TORSDOF 5
ENDMDL
MODEL 7
REMARK VINA RESULT:      -9.4      2.365      2.895
REMARK  Name = 
REMARK  6 active torsions:
REMARK  status: ('A' for Active; 'I' for Inactive)
REMARK    1  A    between atoms: C_1  and  C_2
REMARK    2  A    between atoms: C_5  and  C_6
REMARK    3  A    between atoms: N_9  and  C_10
REMARK    4  A    between atoms: C_13  and  N_14
REMARK    5  A    between atoms: C_15  and  C_17
REMARK    6  A    between atoms: C_27  and  C_28
REMARK                            x       y       z     vdW  Elec       q    Type
REMARK                         _______ _______ _______ _____ _____    ______ ____
ROOT
ATOM      1  C   UNL     1       0.659  10.293  19.958  0.00  0.00    +0.000 A 
ATOM      2  C   UNL     1       0.975   9.030  20.450  0.00  0.00    +0.000 A 
ATOM      3  C   UNL     1       1.758   8.146  19.709  0.00  0.00    +0.000 A 
ATOM      4  C   UNL     1       2.277   8.516  18.472  0.00  0.00    +0.000 A 
ATOM      5  C   UNL     1       2.070   9.827  18.025  0.00  0.00    +0.000 A 
ATOM      6  C   UNL     1       1.268  10.710  18.761  0.00  0.00    +0.000 A 
ENDROOT
BRANCH   1  10
ATOM      7  C   UNL     1      -1.953  12.511  21.137  0.00  0.00    +0.000 A 
ATOM      8  C   UNL     1      -0.972  12.480  22.130  0.00  0.00    +0.000 A 
ATOM      9  N   UNL     1       0.044  11.686  21.806  0.00  0.00    +0.000 NA
ATOM     10  N   UNL     1      -0.289  11.150  20.597  0.00  0.00    +0.000 N 
ATOM     11  C   UNL     1      -1.516  11.636  20.156  0.00  0.00    +0.000 A 
BRANCH   7  16
ATOM     12  C   UNL     1      -6.502  14.176  21.923  0.00  0.00    +0.000 C 
ATOM     13  C   UNL     1      -5.102  14.110  21.478  0.00  0.00    +0.000 A 
ATOM     14  N   UNL     1      -4.472  15.164  20.952  0.00  0.00    +0.000 NA
ATOM     15  O   UNL     1      -3.194  14.678  20.718  0.00  0.00    +0.000 OA
ATOM     16  C   UNL     1      -3.163  13.377  21.142  0.00  0.00    +0.000 A 
ATOM     17  N   UNL     1      -4.334  12.979  21.599  0.00  0.00    +0.000 NA
ENDBRANCH   7  16
BRANCH  11  18
ATOM     18  C   UNL     1      -2.071  11.323  18.829  0.00  0.00    +0.000 C 
ATOM     19  F   UNL     1      -1.914  10.028  18.468  0.00  0.00    +0.000 F 
ATOM     20  F   UNL     1      -3.404  11.554  18.759  0.00  0.00    +0.000 F 
ATOM     21  F   UNL     1      -1.470  12.046  17.852  0.00  0.00    +0.000 F 
ENDBRANCH  11  18
ENDBRANCH   1  10
BRANCH   4  22
ATOM     22  N   UNL     1       2.998   7.625  17.649  0.00  0.00    +0.000 N 
ATOM     23  C   UNL     1       3.600   6.450  18.075  0.00  0.00    +0.000 C 
ATOM     24  O   UNL     1       3.637   6.029  19.223  0.00  0.00    +0.000 OA
ATOM     25  H   UNL     1       2.921   7.780  16.652  0.00  0.00    +0.000 HD
BRANCH  23  26
ATOM     26  C   UNL     1       4.300   5.687  16.949  0.00  0.00    +0.000 C 
ATOM     27  C   UNL     1       4.697   4.260  17.361  0.00  0.00    +0.000 C 
ATOM     28  C   UNL     1       5.814   4.140  18.393  0.00  0.00    +0.000 C 
ATOM     29  S   UNL     1       7.266   5.064  17.964  0.00  0.00    +0.000 S 
ATOM     30  O   UNL     1       8.031   5.298  19.176  0.00  0.00    +0.000 OA
ATOM     31  O   UNL     1       7.877   4.421  16.820  0.00  0.00    +0.000 OA
ATOM     32  C   UNL     1       6.631   6.635  17.415  0.00  0.00    +0.000 C 
ATOM     33  C   UNL     1       5.493   6.488  16.414  0.00  0.00    +0.000 C 
ENDBRANCH  23  26
ENDBRANCH   4  22
TORSDOF 5
ENDMDL
MODEL 8
REMARK VINA RESULT:      -9.4      3.687     10.279
REMARK  Name = 
REMARK  6 active torsions:
REMARK  status: ('A' for Active; 'I' for Inactive)
REMARK    1  A    between atoms: C_1  and  C_2
REMARK    2  A    between atoms: C_5  and  C_6
REMARK    3  A    between atoms: N_9  and  C_10
REMARK    4  A    between atoms: C_13  and  N_14
REMARK    5  A    between atoms: C_15  and  C_17
REMARK    6  A    between atoms: C_27  and  C_28
REMARK                            x       y       z     vdW  Elec       q    Type
REMARK                         _______ _______ _______ _____ _____    ______ ____
ROOT
ATOM      1  C   UNL     1       0.590  10.275  19.445  0.00  0.00    +0.000 A 
ATOM      2  C   UNL     1      -0.717  10.518  19.028  0.00  0.00    +0.000 A 
ATOM      3  C   UNL     1      -1.515  11.456  19.683  0.00  0.00    +0.000 A 
ATOM      4  C   UNL     1      -1.017  12.200  20.747  0.00  0.00    +0.000 A 
ATOM      5  C   UNL     1       0.333  12.053  21.093  0.00  0.00    +0.000 A 
ATOM      6  C   UNL     1       1.130  11.098  20.448  0.00  0.00    +0.000 A 
ENDROOT
BRANCH   1  10
ATOM      7  C   UNL     1       2.579   7.370  18.587  0.00  0.00    +0.000 A 
ATOM      8  C   UNL     1       2.682   8.260  17.516  0.00  0.00    +0.000 A 
ATOM      9  N   UNL     1       1.982   9.372  17.718  0.00  0.00    +0.000 NA
ATOM     10  N   UNL     1       1.372   9.198  18.925  0.00  0.00    +0.000 N 
ATOM     11  C   UNL     1       1.717   7.973  19.489  0.00  0.00    +0.000 A 
BRANCH   7  16
ATOM     12  C   UNL     1       3.898   2.667  18.119  0.00  0.00    +0.000 C 
ATOM     13  C   UNL     1       3.906   4.081  18.524  0.00  0.00    +0.000 A 
ATOM     14  N   UNL     1       4.937   4.629  19.174  0.00  0.00    +0.000 NA
ATOM     15  O   UNL     1       4.547   5.953  19.316  0.00  0.00    +0.000 OA
ATOM     16  C   UNL     1       3.321   6.088  18.722  0.00  0.00    +0.000 A 
ATOM     17  N   UNL     1       2.878   4.944  18.238  0.00  0.00    +0.000 NA
ENDBRANCH   7  16
BRANCH  11  18
ATOM     18  C   UNL     1       1.302   7.568  20.841  0.00  0.00    +0.000 C 
ATOM     19  F   UNL     1      -0.020   7.735  21.075  0.00  0.00    +0.000 F 
ATOM     20  F   UNL     1       1.543   6.257  21.085  0.00  0.00    +0.000 F 
ATOM     21  F   UNL     1       1.933   8.293  21.797  0.00  0.00    +0.000 F 
ENDBRANCH  11  18
ENDBRANCH   1  10
BRANCH   4  22
ATOM     22  N   UNL     1      -1.814  13.093  21.495  0.00  0.00    +0.000 N 
ATOM     23  C   UNL     1      -2.419  12.802  22.709  0.00  0.00    +0.000 C 
ATOM     24  O   UNL     1      -2.392  11.727  23.294  0.00  0.00    +0.000 OA
ATOM     25  H   UNL     1      -1.799  14.059  21.196  0.00  0.00    +0.000 HD
BRANCH  23  26
ATOM     26  C   UNL     1      -3.213  13.975  23.286  0.00  0.00    +0.000 C 
ATOM     27  C   UNL     1      -3.829  13.654  24.657  0.00  0.00    +0.000 C 
ATOM     28  C   UNL     1      -4.965  12.637  24.666  0.00  0.00    +0.000 C 
ATOM     29  S   UNL     1      -6.252  13.014  23.506  0.00  0.00    +0.000 S 
ATOM     30  O   UNL     1      -6.989  11.793  23.231  0.00  0.00    +0.000 OA
ATOM     31  O   UNL     1      -6.939  14.198  23.977  0.00  0.00    +0.000 OA
ATOM     32  C   UNL     1      -5.376  13.462  22.020  0.00  0.00    +0.000 C 
ATOM     33  C   UNL     1      -4.261  14.465  22.280  0.00  0.00    +0.000 C 
ENDBRANCH  23  26
ENDBRANCH   4  22
TORSDOF 5
ENDMDL
MODEL 9
REMARK VINA RESULT:      -9.3      2.538      3.069
REMARK  Name = 
REMARK  6 active torsions:
REMARK  status: ('A' for Active; 'I' for Inactive)
REMARK    1  A    between atoms: C_1  and  C_2
REMARK    2  A    between atoms: C_5  and  C_6
REMARK    3  A    between atoms: N_9  and  C_10
REMARK    4  A    between atoms: C_13  and  N_14
REMARK    5  A    between atoms: C_15  and  C_17
REMARK    6  A    between atoms: C_27  and  C_28
REMARK                            x       y       z     vdW  Elec       q    Type
REMARK                         _______ _______ _______ _____ _____    ______ ____
ROOT
ATOM      1  C   UNL     1       0.665  10.379  19.918  0.00  0.00    +0.000 A 
ATOM      2  C   UNL     1       0.926   9.100  20.405  0.00  0.00    +0.000 A 
ATOM      3  C   UNL     1       1.698   8.198  19.675  0.00  0.00    +0.000 A 
ATOM      4  C   UNL     1       2.260   8.562  18.455  0.00  0.00    +0.000 A 
ATOM      5  C   UNL     1       2.108   9.883  18.016  0.00  0.00    +0.000 A 
ATOM      6  C   UNL     1       1.318  10.785  18.741  0.00  0.00    +0.000 A 
ENDROOT
BRANCH   1  10
ATOM      7  C   UNL     1      -1.924  12.640  21.063  0.00  0.00    +0.000 A 
ATOM      8  C   UNL     1      -0.918  12.657  22.031  0.00  0.00    +0.000 A 
ATOM      9  N   UNL     1       0.093  11.852  21.717  0.00  0.00    +0.000 NA
ATOM     10  N   UNL     1      -0.269  11.261  20.542  0.00  0.00    +0.000 N 
ATOM     11  C   UNL     1      -1.509  11.723  20.111  0.00  0.00    +0.000 A 
BRANCH   7  16
ATOM     12  C   UNL     1      -4.905  16.504  20.550  0.00  0.00    +0.000 C 
ATOM     13  C   UNL     1      -4.428  15.142  20.836  0.00  0.00    +0.000 A 
ATOM     14  N   UNL     1      -5.266  14.139  21.112  0.00  0.00    +0.000 NA
ATOM     15  O   UNL     1      -4.413  13.057  21.271  0.00  0.00    +0.000 OA
ATOM     16  C   UNL     1      -3.136  13.502  21.060  0.00  0.00    +0.000 A 
ATOM     17  N   UNL     1      -3.101  14.796  20.809  0.00  0.00    +0.000 NA
ENDBRANCH   7  16
BRANCH  11  18
ATOM     18  C   UNL     1      -2.096  11.349  18.815  0.00  0.00    +0.000 C 
ATOM     19  F   UNL     1      -1.551  12.003  17.763  0.00  0.00    +0.000 F 
ATOM     20  F   UNL     1      -1.937  10.033  18.537  0.00  0.00    +0.000 F 
ATOM     21  F   UNL     1      -3.422  11.629  18.767  0.00  0.00    +0.000 F 
ENDBRANCH  11  18
ENDBRANCH   1  10
BRANCH   4  22
ATOM     22  N   UNL     1       2.971   7.655  17.641  0.00  0.00    +0.000 N 
ATOM     23  C   UNL     1       3.616   6.512  18.090  0.00  0.00    +0.000 C 
ATOM     24  O   UNL     1       3.705   6.138  19.252  0.00  0.00    +0.000 OA
ATOM     25  H   UNL     1       2.854   7.767  16.642  0.00  0.00    +0.000 HD
BRANCH  23  26
ATOM     26  C   UNL     1       4.293   5.719  16.970  0.00  0.00    +0.000 C 
ATOM     27  C   UNL     1       4.677   4.295  17.402  0.00  0.00    +0.000 C 
ATOM     28  C   UNL     1       5.805   4.180  18.422  0.00  0.00    +0.000 C 
ATOM     29  S   UNL     1       7.263   5.077  17.959  0.00  0.00    +0.000 S 
ATOM     30  O   UNL     1       8.047   5.323  19.157  0.00  0.00    +0.000 OA
ATOM     31  O   UNL     1       7.851   4.406  16.819  0.00  0.00    +0.000 OA
ATOM     32  C   UNL     1       6.641   6.647  17.389  0.00  0.00    +0.000 C 
ATOM     33  C   UNL     1       5.488   6.496  16.405  0.00  0.00    +0.000 C 
ENDBRANCH  23  26
ENDBRANCH   4  22
TORSDOF 5
ENDMDL
