MODEL 1
REMARK VINA RESULT:      -7.1      0.000      0.000
REMARK  Name = 
REMARK  7 active torsions:
REMARK  status: ('A' for Active; 'I' for Inactive)
REMARK    1  A    between atoms: C_1  and  C_2
REMARK    2  A    between atoms: C_2  and  O_3
REMARK    3  A    between atoms: O_3  and  C_4
REMARK    4  A    between atoms: C_4  and  C_5
REMARK    5  A    between atoms: C_5  and  N_6
REMARK    6  A    between atoms: C_13  and  C_14
REMARK    7  A    between atoms: N_16  and  C_17
REMARK                            x       y       z     vdW  Elec       q    Type
REMARK                         _______ _______ _______ _____ _____    ______ ____
ROOT
ATOM      1  N   UNL     1       4.989   4.395  17.941  0.00  0.00    +0.000 NA
ATOM      2  C   UNL     1       4.051   3.265  17.940  0.00  0.00    +0.000 C 
ATOM      3  C   UNL     1       2.639   3.547  17.370  0.00  0.00    +0.000 C 
ATOM      4  O   UNL     1       1.731   2.532  17.845  0.00  0.00    +0.000 OA
ATOM      5  C   UNL     1       0.963   3.069  18.937  0.00  0.00    +0.000 C 
ATOM      6  C   UNL     1       1.480   4.467  19.206  0.00  0.00    +0.000 C 
ATOM      7  C   UNL     1       2.034   4.865  17.846  0.00  0.00    +0.000 C 
ATOM      8  C   UNL     1       3.048   6.008  17.824  0.00  0.00    +0.000 C 
ATOM      9  C   UNL     1       4.367   5.600  18.498  0.00  0.00    +0.000 C 
ENDROOT
BRANCH   8  10
ATOM     10  C   UNL     1       2.498   7.247  18.539  0.00  0.00    +0.000 C 
ATOM     11  O   UNL     1       2.448   7.275  19.766  0.00  0.00    +0.000 OA
ATOM     12  N   UNL     1       2.047   8.248  17.692  0.00  0.00    +0.000 N 
ATOM     13  H   UNL     1       2.079   8.076  16.696  0.00  0.00    +0.000 HD
BRANCH  12  14
ATOM     14  C   UNL     1       1.450   9.460  18.115  0.00  0.00    +0.000 A 
ATOM     15  C   UNL     1       0.094   9.605  18.409  0.00  0.00    +0.000 A 
ATOM     16  C   UNL     1      -0.428  10.855  18.741  0.00  0.00    +0.000 A 
ATOM     17  C   UNL     1       0.433  11.934  18.790  0.00  0.00    +0.000 A 
ATOM     18  N   UNL     1       1.759  11.838  18.559  0.00  0.00    +0.000 NA
ATOM     19  C   UNL     1       2.233  10.607  18.234  0.00  0.00    +0.000 A 
ENDBRANCH  12  14
ENDBRANCH   8  10
BRANCH   1  20
ATOM     20  C   UNL     1       5.720   4.570  16.676  0.00  0.00    +0.000 C 
BRANCH  20  21
ATOM     21  C   UNL     1       7.053   5.322  16.862  0.00  0.00    +0.000 C 
BRANCH  21  22
ATOM     22  O   UNL     1       6.955   6.709  16.516  0.00  0.00    +0.000 OA
BRANCH  22  24
ATOM     23  C   UNL     1       7.957   6.632  18.713  0.00  0.00    +0.000 C 
ATOM     24  C   UNL     1       7.607   7.495  17.520  0.00  0.00    +0.000 C 
ENDBRANCH  22  24
ENDBRANCH  21  22
ENDBRANCH  20  21
ENDBRANCH   1  20
TORSDOF 6
ENDMDL
MODEL 2
REMARK VINA RESULT:      -7.1      2.022      2.388
REMARK  Name = 
REMARK  7 active torsions:
REMARK  status: ('A' for Active; 'I' for Inactive)
REMARK    1  A    between atoms: C_1  and  C_2
REMARK    2  A    between atoms: C_2  and  O_3
REMARK    3  A    between atoms: O_3  and  C_4
REMARK    4  A    between atoms: C_4  and  C_5
REMARK    5  A    between atoms: C_5  and  N_6
REMARK    6  A    between atoms: C_13  and  C_14
REMARK    7  A    between atoms: N_16  and  C_17
REMARK                            x       y       z     vdW  Elec       q    Type
REMARK                         _______ _______ _______ _____ _____    ______ ____
ROOT
ATOM      1  N   UNL     1       5.005   4.560  18.798  0.00  0.00    +0.000 NA
ATOM      2  C   UNL     1       4.272   3.437  18.199  0.00  0.00    +0.000 C 
ATOM      3  C   UNL     1       2.910   3.779  17.546  0.00  0.00    +0.000 C 
ATOM      4  O   UNL     1       2.131   2.571  17.427  0.00  0.00    +0.000 OA
ATOM      5  C   UNL     1       1.162   2.535  18.490  0.00  0.00    +0.000 C 
ATOM      6  C   UNL     1       1.407   3.749  19.363  0.00  0.00    +0.000 C 
ATOM      7  C   UNL     1       2.045   4.720  18.380  0.00  0.00    +0.000 C 
ATOM      8  C   UNL     1       2.852   5.871  18.978  0.00  0.00    +0.000 C 
ATOM      9  C   UNL     1       4.132   5.363  19.659  0.00  0.00    +0.000 C 
ENDROOT
BRANCH   8  10
ATOM     10  C   UNL     1       2.026   6.649  20.009  0.00  0.00    +0.000 C 
ATOM     11  O   UNL     1       1.535   6.062  20.968  0.00  0.00    +0.000 OA
ATOM     12  N   UNL     1       1.868   7.996  19.722  0.00  0.00    +0.000 N 
ATOM     13  H   UNL     1       2.266   8.347  18.861  0.00  0.00    +0.000 HD
BRANCH  12  14
ATOM     14  C   UNL     1       1.105   8.905  20.493  0.00  0.00    +0.000 A 
ATOM     15  C   UNL     1       0.141   9.763  19.966  0.00  0.00    +0.000 A 
ATOM     16  C   UNL     1      -0.509  10.687  20.786  0.00  0.00    +0.000 A 
ATOM     17  C   UNL     1      -0.188  10.711  22.129  0.00  0.00    +0.000 A 
ATOM     18  N   UNL     1       0.703   9.871  22.696  0.00  0.00    +0.000 NA
ATOM     19  C   UNL     1       1.320   8.988  21.868  0.00  0.00    +0.000 A 
ENDBRANCH  12  14
ENDBRANCH   8  10
BRANCH   1  20
ATOM     20  C   UNL     1       5.841   5.308  17.846  0.00  0.00    +0.000 C 
BRANCH  20  21
ATOM     21  C   UNL     1       7.260   4.718  17.714  0.00  0.00    +0.000 C 
BRANCH  21  22
ATOM     22  O   UNL     1       7.698   4.639  16.352  0.00  0.00    +0.000 OA
BRANCH  22  24
ATOM     23  C   UNL     1       6.711   4.707  14.148  0.00  0.00    +0.000 C 
ATOM     24  C   UNL     1       6.635   4.123  15.542  0.00  0.00    +0.000 C 
ENDBRANCH  22  24
ENDBRANCH  21  22
ENDBRANCH  20  21
ENDBRANCH   1  20
TORSDOF 6
ENDMDL
MODEL 3
REMARK VINA RESULT:      -6.9      2.121      2.521
REMARK  Name = 
REMARK  7 active torsions:
REMARK  status: ('A' for Active; 'I' for Inactive)
REMARK    1  A    between atoms: C_1  and  C_2
REMARK    2  A    between atoms: C_2  and  O_3
REMARK    3  A    between atoms: O_3  and  C_4
REMARK    4  A    between atoms: C_4  and  C_5
REMARK    5  A    between atoms: C_5  and  N_6
REMARK    6  A    between atoms: C_13  and  C_14
REMARK    7  A    between atoms: N_16  and  C_17
REMARK                            x       y       z     vdW  Elec       q    Type
REMARK                         _______ _______ _______ _____ _____    ______ ____
ROOT
ATOM      1  N   UNL     1       5.025   5.023  18.255  0.00  0.00    +0.000 NA
ATOM      2  C   UNL     1       4.343   3.833  17.730  0.00  0.00    +0.000 C 
ATOM      3  C   UNL     1       2.871   4.026  17.290  0.00  0.00    +0.000 C 
ATOM      4  O   UNL     1       2.223   2.738  17.244  0.00  0.00    +0.000 OA
ATOM      5  C   UNL     1       1.429   2.574  18.433  0.00  0.00    +0.000 C 
ATOM      6  C   UNL     1       1.661   3.795  19.301  0.00  0.00    +0.000 C 
ATOM      7  C   UNL     1       2.037   4.848  18.269  0.00  0.00    +0.000 C 
ATOM      8  C   UNL     1       2.790   6.075  18.782  0.00  0.00    +0.000 C 
ATOM      9  C   UNL     1       4.203   5.706  19.258  0.00  0.00    +0.000 C 
ENDROOT
BRANCH   8  10
ATOM     10  C   UNL     1       2.041   6.736  19.945  0.00  0.00    +0.000 C 
ATOM     11  O   UNL     1       1.679   6.060  20.904  0.00  0.00    +0.000 OA
ATOM     12  N   UNL     1       1.792   8.089  19.774  0.00  0.00    +0.000 N 
ATOM     13  H   UNL     1       2.082   8.518  18.905  0.00  0.00    +0.000 HD
BRANCH  12  14
ATOM     14  C   UNL     1       1.073   8.902  20.682  0.00  0.00    +0.000 A 
ATOM     15  C   UNL     1       1.206   8.836  22.069  0.00  0.00    +0.000 A 
ATOM     16  C   UNL     1       0.399   9.619  22.895  0.00  0.00    +0.000 A 
ATOM     17  C   UNL     1      -0.515  10.470  22.305  0.00  0.00    +0.000 A 
ATOM     18  N   UNL     1      -0.650  10.604  20.969  0.00  0.00    +0.000 NA
ATOM     19  C   UNL     1       0.148   9.824  20.194  0.00  0.00    +0.000 A 
ENDBRANCH  12  14
ENDBRANCH   8  10
BRANCH   1  20
ATOM     20  C   UNL     1       5.626   5.876  17.218  0.00  0.00    +0.000 C 
BRANCH  20  21
ATOM     21  C   UNL     1       7.142   5.641  17.062  0.00  0.00    +0.000 C 
BRANCH  21  22
ATOM     22  O   UNL     1       7.442   4.556  16.176  0.00  0.00    +0.000 OA
BRANCH  22  24
ATOM     23  C   UNL     1       6.131   3.862  14.269  0.00  0.00    +0.000 C 
ATOM     24  C   UNL     1       7.056   4.913  14.844  0.00  0.00    +0.000 C 
ENDBRANCH  22  24
ENDBRANCH  21  22
ENDBRANCH  20  21
ENDBRANCH   1  20
TORSDOF 6
ENDMDL
MODEL 4
REMARK VINA RESULT:      -6.9      1.198      1.656
REMARK  Name = 
REMARK  7 active torsions:
REMARK  status: ('A' for Active; 'I' for Inactive)
REMARK    1  A    between atoms: C_1  and  C_2
REMARK    2  A    between atoms: C_2  and  O_3
REMARK    3  A    between atoms: O_3  and  C_4
REMARK    4  A    between atoms: C_4  and  C_5
REMARK    5  A    between atoms: C_5  and  N_6
REMARK    6  A    between atoms: C_13  and  C_14
REMARK    7  A    between atoms: N_16  and  C_17
REMARK                            x       y       z     vdW  Elec       q    Type
REMARK                         _______ _______ _______ _____ _____    ______ ____
ROOT
ATOM      1  N   UNL     1       5.331   5.219  18.704  0.00  0.00    +0.000 NA
ATOM      2  C   UNL     1       4.616   4.001  18.302  0.00  0.00    +0.000 C 
ATOM      3  C   UNL     1       3.417   4.197  17.341  0.00  0.00    +0.000 C 
ATOM      4  O   UNL     1       2.569   3.033  17.407  0.00  0.00    +0.000 OA
ATOM      5  C   UNL     1       1.435   3.329  18.244  0.00  0.00    +0.000 C 
ATOM      6  C   UNL     1       1.634   4.728  18.790  0.00  0.00    +0.000 C 
ATOM      7  C   UNL     1       2.508   5.364  17.719  0.00  0.00    +0.000 C 
ATOM      8  C   UNL     1       3.300   6.606  18.125  0.00  0.00    +0.000 C 
ATOM      9  C   UNL     1       4.399   6.262  19.142  0.00  0.00    +0.000 C 
ENDROOT
BRANCH   8  10
ATOM     10  C   UNL     1       2.382   7.669  18.739  0.00  0.00    +0.000 C 
ATOM     11  O   UNL     1       2.098   7.617  19.932  0.00  0.00    +0.000 OA
ATOM     12  N   UNL     1       1.903   8.606  17.837  0.00  0.00    +0.000 N 
ATOM     13  H   UNL     1       2.157   8.500  16.864  0.00  0.00    +0.000 HD
BRANCH  12  14
ATOM     14  C   UNL     1       1.001   9.649  18.154  0.00  0.00    +0.000 A 
ATOM     15  C   UNL     1      -0.379   9.578  17.963  0.00  0.00    +0.000 A 
ATOM     16  C   UNL     1      -1.188  10.684  18.227  0.00  0.00    +0.000 A 
ATOM     17  C   UNL     1      -0.591  11.836  18.701  0.00  0.00    +0.000 A 
ATOM     18  N   UNL     1       0.732  11.940  18.947  0.00  0.00    +0.000 NA
ATOM     19  C   UNL     1       1.491  10.847  18.674  0.00  0.00    +0.000 A 
ENDBRANCH  12  14
ENDBRANCH   8  10
BRANCH   1  20
ATOM     20  C   UNL     1       6.377   5.641  17.758  0.00  0.00    +0.000 C 
BRANCH  20  21
ATOM     21  C   UNL     1       7.504   4.599  17.618  0.00  0.00    +0.000 C 
BRANCH  21  22
ATOM     22  O   UNL     1       7.739   4.221  16.257  0.00  0.00    +0.000 OA
BRANCH  22  24
ATOM     23  C   UNL     1       6.263   4.125  14.346  0.00  0.00    +0.000 C 
ATOM     24  C   UNL     1       6.903   5.005  15.398  0.00  0.00    +0.000 C 
ENDBRANCH  22  24
ENDBRANCH  21  22
ENDBRANCH  20  21
ENDBRANCH   1  20
TORSDOF 6
ENDMDL
MODEL 5
REMARK VINA RESULT:      -6.9      0.741      1.079
REMARK  Name = 
REMARK  7 active torsions:
REMARK  status: ('A' for Active; 'I' for Inactive)
REMARK    1  A    between atoms: C_1  and  C_2
REMARK    2  A    between atoms: C_2  and  O_3
REMARK    3  A    between atoms: O_3  and  C_4
REMARK    4  A    between atoms: C_4  and  C_5
REMARK    5  A    between atoms: C_5  and  N_6
REMARK    6  A    between atoms: C_13  and  C_14
REMARK    7  A    between atoms: N_16  and  C_17
REMARK                            x       y       z     vdW  Elec       q    Type
REMARK                         _______ _______ _______ _____ _____    ______ ____
ROOT
ATOM      1  N   UNL     1       4.852   4.569  18.093  0.00  0.00    +0.000 NA
ATOM      2  C   UNL     1       3.975   3.402  18.256  0.00  0.00    +0.000 C 
ATOM      3  C   UNL     1       2.508   3.580  17.793  0.00  0.00    +0.000 C 
ATOM      4  O   UNL     1       1.694   2.566  18.417  0.00  0.00    +0.000 OA
ATOM      5  C   UNL     1       0.994   3.150  19.531  0.00  0.00    +0.000 C 
ATOM      6  C   UNL     1       1.463   4.586  19.652  0.00  0.00    +0.000 C 
ATOM      7  C   UNL     1       1.880   4.903  18.224  0.00  0.00    +0.000 C 
ATOM      8  C   UNL     1       2.831   6.083  18.031  0.00  0.00    +0.000 C 
ATOM      9  C   UNL     1       4.221   5.784  18.614  0.00  0.00    +0.000 C 
ENDROOT
BRANCH   8  10
ATOM     10  C   UNL     1       2.283   7.348  18.701  0.00  0.00    +0.000 C 
ATOM     11  O   UNL     1       2.210   7.411  19.924  0.00  0.00    +0.000 OA
ATOM     12  N   UNL     1       1.861   8.331  17.817  0.00  0.00    +0.000 N 
ATOM     13  H   UNL     1       1.910   8.130  16.827  0.00  0.00    +0.000 HD
BRANCH  12  14
ATOM     14  C   UNL     1       1.271   9.560  18.194  0.00  0.00    +0.000 A 
ATOM     15  C   UNL     1       1.985  10.738  18.414  0.00  0.00    +0.000 A 
ATOM     16  C   UNL     1       1.333  11.887  18.862  0.00  0.00    +0.000 A 
ATOM     17  C   UNL     1      -0.033  11.833  19.060  0.00  0.00    +0.000 A 
ATOM     18  N   UNL     1      -0.776  10.732  18.817  0.00  0.00    +0.000 NA
ATOM     19  C   UNL     1      -0.109   9.630  18.386  0.00  0.00    +0.000 A 
ENDBRANCH  12  14
ENDBRANCH   8  10
BRANCH   1  20
ATOM     20  C   UNL     1       5.465   4.677  16.760  0.00  0.00    +0.000 C 
BRANCH  20  21
ATOM     21  C   UNL     1       7.000   4.813  16.823  0.00  0.00    +0.000 C 
BRANCH  21  22
ATOM     22  O   UNL     1       7.459   6.091  16.367  0.00  0.00    +0.000 OA
BRANCH  22  24
ATOM     23  C   UNL     1       7.937   6.404  18.715  0.00  0.00    +0.000 C 
ATOM     24  C   UNL     1       7.395   7.029  17.448  0.00  0.00    +0.000 C 
ENDBRANCH  22  24
ENDBRANCH  21  22
ENDBRANCH  20  21
ENDBRANCH   1  20
TORSDOF 6
ENDMDL
MODEL 6
REMARK VINA RESULT:      -6.8      1.850      1.970
REMARK  Name = 
REMARK  7 active torsions:
REMARK  status: ('A' for Active; 'I' for Inactive)
REMARK    1  A    between atoms: C_1  and  C_2
REMARK    2  A    between atoms: C_2  and  O_3
REMARK    3  A    between atoms: O_3  and  C_4
REMARK    4  A    between atoms: C_4  and  C_5
REMARK    5  A    between atoms: C_5  and  N_6
REMARK    6  A    between atoms: C_13  and  C_14
REMARK    7  A    between atoms: N_16  and  C_17
REMARK                            x       y       z     vdW  Elec       q    Type
REMARK                         _______ _______ _______ _____ _____    ______ ____
ROOT
ATOM      1  N   UNL     1       5.223   4.559  18.917  0.00  0.00    +0.000 NA
ATOM      2  C   UNL     1       4.487   3.315  18.656  0.00  0.00    +0.000 C 
ATOM      3  C   UNL     1       3.337   3.404  17.623  0.00  0.00    +0.000 C 
ATOM      4  O   UNL     1       2.450   2.282  17.811  0.00  0.00    +0.000 OA
ATOM      5  C   UNL     1       1.292   2.723  18.544  0.00  0.00    +0.000 C 
ATOM      6  C   UNL     1       1.511   4.180  18.898  0.00  0.00    +0.000 C 
ATOM      7  C   UNL     1       2.450   4.635  17.791  0.00  0.00    +0.000 C 
ATOM      8  C   UNL     1       3.263   5.901  18.057  0.00  0.00    +0.000 C 
ATOM      9  C   UNL     1       4.306   5.676  19.162  0.00  0.00    +0.000 C 
ENDROOT
BRANCH   8  10
ATOM     10  C   UNL     1       2.355   7.063  18.473  0.00  0.00    +0.000 C 
ATOM     11  O   UNL     1       1.794   7.739  17.615  0.00  0.00    +0.000 OA
ATOM     12  N   UNL     1       2.284   7.278  19.841  0.00  0.00    +0.000 N 
ATOM     13  H   UNL     1       2.850   6.693  20.441  0.00  0.00    +0.000 HD
BRANCH  12  14
ATOM     14  C   UNL     1       1.556   8.320  20.461  0.00  0.00    +0.000 A 
ATOM     15  C   UNL     1       1.100   8.282  21.779  0.00  0.00    +0.000 A 
ATOM     16  C   UNL     1       0.319   9.320  22.288  0.00  0.00    +0.000 A 
ATOM     17  C   UNL     1       0.030  10.389  21.463  0.00  0.00    +0.000 A 
ATOM     18  N   UNL     1       0.486  10.496  20.197  0.00  0.00    +0.000 NA
ATOM     19  C   UNL     1       1.240   9.466  19.732  0.00  0.00    +0.000 A 
ENDBRANCH  12  14
ENDBRANCH   8  10
BRANCH   1  20
ATOM     20  C   UNL     1       6.321   4.817  17.972  0.00  0.00    +0.000 C 
BRANCH  20  21
ATOM     21  C   UNL     1       7.662   5.089  18.682  0.00  0.00    +0.000 C 
BRANCH  21  22
ATOM     22  O   UNL     1       7.922   6.488  18.850  0.00  0.00    +0.000 OA
BRANCH  22  24
ATOM     23  C   UNL     1       7.977   8.626  17.725  0.00  0.00    +0.000 C 
ATOM     24  C   UNL     1       7.497   7.192  17.677  0.00  0.00    +0.000 C 
ENDBRANCH  22  24
ENDBRANCH  21  22
ENDBRANCH  20  21
ENDBRANCH   1  20
TORSDOF 6
ENDMDL
MODEL 7
REMARK VINA RESULT:      -6.8      1.956      2.343
REMARK  Name = 
REMARK  7 active torsions:
REMARK  status: ('A' for Active; 'I' for Inactive)
REMARK    1  A    between atoms: C_1  and  C_2
REMARK    2  A    between atoms: C_2  and  O_3
REMARK    3  A    between atoms: O_3  and  C_4
REMARK    4  A    between atoms: C_4  and  C_5
REMARK    5  A    between atoms: C_5  and  N_6
REMARK    6  A    between atoms: C_13  and  C_14
REMARK    7  A    between atoms: N_16  and  C_17
REMARK                            x       y       z     vdW  Elec       q    Type
REMARK                         _______ _______ _______ _____ _____    ______ ____
ROOT
ATOM      1  N   UNL     1       5.448   5.113  19.129  0.00  0.00    +0.000 NA
ATOM      2  C   UNL     1       4.893   3.825  18.693  0.00  0.00    +0.000 C 
ATOM      3  C   UNL     1       3.854   3.881  17.546  0.00  0.00    +0.000 C 
ATOM      4  O   UNL     1       3.089   2.658  17.548  0.00  0.00    +0.000 OA
ATOM      5  C   UNL     1       1.817   2.905  18.176  0.00  0.00    +0.000 C 
ATOM      6  C   UNL     1       1.828   4.341  18.662  0.00  0.00    +0.000 C 
ATOM      7  C   UNL     1       2.817   4.990  17.706  0.00  0.00    +0.000 C 
ATOM      8  C   UNL     1       3.445   6.308  18.157  0.00  0.00    +0.000 C 
ATOM      9  C   UNL     1       4.387   6.100  19.352  0.00  0.00    +0.000 C 
ENDROOT
BRANCH   8  10
ATOM     10  C   UNL     1       2.369   7.325  18.554  0.00  0.00    +0.000 C 
ATOM     11  O   UNL     1       1.733   7.915  17.686  0.00  0.00    +0.000 OA
ATOM     12  N   UNL     1       2.241   7.523  19.920  0.00  0.00    +0.000 N 
ATOM     13  H   UNL     1       2.874   7.025  20.533  0.00  0.00    +0.000 HD
BRANCH  12  14
ATOM     14  C   UNL     1       1.357   8.447  20.526  0.00  0.00    +0.000 A 
ATOM     15  C   UNL     1       0.598   8.175  21.665  0.00  0.00    +0.000 A 
ATOM     16  C   UNL     1      -0.310   9.116  22.151  0.00  0.00    +0.000 A 
ATOM     17  C   UNL     1      -0.422  10.324  21.489  0.00  0.00    +0.000 A 
ATOM     18  N   UNL     1       0.323  10.653  20.412  0.00  0.00    +0.000 NA
ATOM     19  C   UNL     1       1.194   9.712  19.963  0.00  0.00    +0.000 A 
ENDBRANCH  12  14
ENDBRANCH   8  10
BRANCH   1  20
ATOM     20  C   UNL     1       6.600   5.570  18.336  0.00  0.00    +0.000 C 
BRANCH  20  21
ATOM     21  C   UNL     1       7.279   4.422  17.562  0.00  0.00    +0.000 C 
BRANCH  21  22
ATOM     22  O   UNL     1       7.684   4.810  16.244  0.00  0.00    +0.000 OA
BRANCH  22  24
ATOM     23  C   UNL     1       6.088   4.080  14.582  0.00  0.00    +0.000 C 
ATOM     24  C   UNL     1       6.530   5.206  15.492  0.00  0.00    +0.000 C 
ENDBRANCH  22  24
ENDBRANCH  21  22
ENDBRANCH  20  21
ENDBRANCH   1  20
TORSDOF 6
ENDMDL
MODEL 8
REMARK VINA RESULT:      -6.8      2.707      6.492
REMARK  Name = 
REMARK  7 active torsions:
REMARK  status: ('A' for Active; 'I' for Inactive)
REMARK    1  A    between atoms: C_1  and  C_2
REMARK    2  A    between atoms: C_2  and  O_3
REMARK    3  A    between atoms: O_3  and  C_4
REMARK    4  A    between atoms: C_4  and  C_5
REMARK    5  A    between atoms: C_5  and  N_6
REMARK    6  A    between atoms: C_13  and  C_14
REMARK    7  A    between atoms: N_16  and  C_17
REMARK                            x       y       z     vdW  Elec       q    Type
REMARK                         _______ _______ _______ _____ _____    ______ ____
ROOT
ATOM      1  N   UNL     1       1.726   6.543  19.821  0.00  0.00    +0.000 NA
ATOM      2  C   UNL     1       1.087   5.392  20.472  0.00  0.00    +0.000 C 
ATOM      3  C   UNL     1       2.040   4.358  21.122  0.00  0.00    +0.000 C 
ATOM      4  O   UNL     1       1.331   3.114  21.297  0.00  0.00    +0.000 OA
ATOM      5  C   UNL     1       1.712   2.209  20.244  0.00  0.00    +0.000 C 
ATOM      6  C   UNL     1       2.647   2.962  19.320  0.00  0.00    +0.000 C 
ATOM      7  C   UNL     1       3.246   4.001  20.257  0.00  0.00    +0.000 C 
ATOM      8  C   UNL     1       3.875   5.232  19.606  0.00  0.00    +0.000 C 
ATOM      9  C   UNL     1       2.813   6.116  18.935  0.00  0.00    +0.000 C 
ENDROOT
BRANCH   8  10
ATOM     10  C   UNL     1       4.912   4.830  18.552  0.00  0.00    +0.000 C 
ATOM     11  O   UNL     1       5.907   4.191  18.883  0.00  0.00    +0.000 OA
ATOM     12  N   UNL     1       4.638   5.285  17.271  0.00  0.00    +0.000 N 
ATOM     13  H   UNL     1       3.818   5.863  17.140  0.00  0.00    +0.000 HD
BRANCH  12  14
ATOM     14  C   UNL     1       5.471   5.088  16.145  0.00  0.00    +0.000 A 
ATOM     15  C   UNL     1       5.175   4.221  15.093  0.00  0.00    +0.000 A 
ATOM     16  C   UNL     1       6.091   4.025  14.058  0.00  0.00    +0.000 A 
ATOM     17  C   UNL     1       7.281   4.725  14.094  0.00  0.00    +0.000 A 
ATOM     18  N   UNL     1       7.595   5.609  15.065  0.00  0.00    +0.000 NA
ATOM     19  C   UNL     1       6.683   5.772  16.058  0.00  0.00    +0.000 A 
ENDBRANCH  12  14
ENDBRANCH   8  10
BRANCH   1  20
ATOM     20  C   UNL     1       2.034   7.655  20.735  0.00  0.00    +0.000 C 
BRANCH  20  21
ATOM     21  C   UNL     1       0.774   8.230  21.413  0.00  0.00    +0.000 C 
BRANCH  21  22
ATOM     22  O   UNL     1       0.249   9.370  20.722  0.00  0.00    +0.000 OA
BRANCH  22  24
ATOM     23  C   UNL     1      -0.391   9.689  23.030  0.00  0.00    +0.000 C 
ATOM     24  C   UNL     1      -0.194  10.340  21.678  0.00  0.00    +0.000 C 
ENDBRANCH  22  24
ENDBRANCH  21  22
ENDBRANCH  20  21
ENDBRANCH   1  20
TORSDOF 6
ENDMDL
MODEL 9
REMARK VINA RESULT:      -6.7      2.117      4.384
REMARK  Name = 
REMARK  7 active torsions:
REMARK  status: ('A' for Active; 'I' for Inactive)
REMARK    1  A    between atoms: C_1  and  C_2
REMARK    2  A    between atoms: C_2  and  O_3
REMARK    3  A    between atoms: O_3  and  C_4
REMARK    4  A    between atoms: C_4  and  C_5
REMARK    5  A    between atoms: C_5  and  N_6
REMARK    6  A    between atoms: C_13  and  C_14
REMARK    7  A    between atoms: N_16  and  C_17
REMARK                            x       y       z     vdW  Elec       q    Type
REMARK                         _______ _______ _______ _____ _____    ______ ____
ROOT
ATOM      1  N   UNL     1       3.227   3.470  17.290  0.00  0.00    +0.000 NA
ATOM      2  C   UNL     1       4.658   3.658  17.021  0.00  0.00    +0.000 C 
ATOM      3  C   UNL     1       5.436   4.532  18.036  0.00  0.00    +0.000 C 
ATOM      4  O   UNL     1       6.656   4.992  17.419  0.00  0.00    +0.000 OA
ATOM      5  C   UNL     1       6.476   6.354  16.990  0.00  0.00    +0.000 C 
ATOM      6  C   UNL     1       5.038   6.732  17.285  0.00  0.00    +0.000 C 
ATOM      7  C   UNL     1       4.701   5.806  18.444  0.00  0.00    +0.000 C 
ATOM      8  C   UNL     1       3.218   5.556  18.716  0.00  0.00    +0.000 C 
ATOM      9  C   UNL     1       2.570   4.748  17.582  0.00  0.00    +0.000 C 
ENDROOT
BRANCH   8  10
ATOM     10  C   UNL     1       2.456   6.877  18.871  0.00  0.00    +0.000 C 
ATOM     11  O   UNL     1       2.201   7.557  17.882  0.00  0.00    +0.000 OA
ATOM     12  N   UNL     1       2.150   7.214  20.181  0.00  0.00    +0.000 N 
ATOM     13  H   UNL     1       2.476   6.601  20.917  0.00  0.00    +0.000 HD
BRANCH  12  14
ATOM     14  C   UNL     1       1.500   8.406  20.581  0.00  0.00    +0.000 A 
ATOM     15  C   UNL     1       1.015   9.368  19.697  0.00  0.00    +0.000 A 
ATOM     16  C   UNL     1       0.458  10.555  20.178  0.00  0.00    +0.000 A 
ATOM     17  C   UNL     1       0.384  10.738  21.545  0.00  0.00    +0.000 A 
ATOM     18  N   UNL     1       0.797   9.817  22.442  0.00  0.00    +0.000 NA
ATOM     19  C   UNL     1       1.337   8.677  21.939  0.00  0.00    +0.000 A 
ENDBRANCH  12  14
ENDBRANCH   8  10
BRANCH   1  20
ATOM     20  C   UNL     1       2.929   2.363  18.212  0.00  0.00    +0.000 C 
BRANCH  20  21
ATOM     21  C   UNL     1       1.440   2.309  18.611  0.00  0.00    +0.000 C 
BRANCH  21  22
ATOM     22  O   UNL     1       1.254   2.118  20.018  0.00  0.00    +0.000 OA
BRANCH  22  24
ATOM     23  C   UNL     1       2.196   3.601  21.677  0.00  0.00    +0.000 C 
ATOM     24  C   UNL     1       1.101   3.393  20.653  0.00  0.00    +0.000 C 
ENDBRANCH  22  24
ENDBRANCH  21  22
ENDBRANCH  20  21
ENDBRANCH   1  20
TORSDOF 6
ENDMDL
