MODEL 1
REMARK VINA RESULT:      -8.3      0.000      0.000
REMARK  Name = 
REMARK  7 active torsions:
REMARK  status: ('A' for Active; 'I' for Inactive)
REMARK    1  A    between atoms: C_1  and  C_2
REMARK    2  A    between atoms: C_5  and  C_6
REMARK    3  A    between atoms: C_8  and  O_9
REMARK    4  A    between atoms: C_10  and  N_11
REMARK    5  A    between atoms: C_13  and  C_14
REMARK    6  A    between atoms: N_24  and  C_25
REMARK    7  A    between atoms: C_25  and  C_26
REMARK                            x       y       z     vdW  Elec       q    Type
REMARK                         _______ _______ _______ _____ _____    ______ ____
ROOT
ATOM      1  C   UNL     1      -1.016   9.886  20.657  0.00  0.00    +0.000 C 
ATOM      2  C   UNL     1      -0.303   8.812  21.512  0.00  0.00    +0.000 C 
ATOM      3  C   UNL     1       1.231   8.853  21.483  0.00  0.00    +0.000 C 
ATOM      4  C   UNL     1       1.833   9.262  20.116  0.00  0.00    +0.000 C 
ATOM      5  C   UNL     1       0.968  10.240  19.278  0.00  0.00    +0.000 C 
ATOM      6  N   UNL     1      -0.456   9.872  19.278  0.00  0.00    +0.000 NA
ENDROOT
BRANCH   1  11
ATOM      7  C   UNL     1      -1.123  14.938  23.670  0.00  0.00    +0.000 C 
ATOM      8  C   UNL     1      -1.107  13.654  22.896  0.00  0.00    +0.000 A 
ATOM      9  C   UNL     1      -0.748  13.652  21.553  0.00  0.00    +0.000 A 
ATOM     10  C   UNL     1      -0.784  12.466  20.816  0.00  0.00    +0.000 A 
ATOM     11  C   UNL     1      -1.129  11.232  21.390  0.00  0.00    +0.000 A 
ATOM     12  C   UNL     1      -1.512  11.254  22.740  0.00  0.00    +0.000 A 
ATOM     13  C   UNL     1      -1.516  12.447  23.475  0.00  0.00    +0.000 A 
ENDBRANCH   1  11
BRANCH   4  14
ATOM     14  N   UNL     1       2.085   8.065  19.321  0.00  0.00    +0.000 N 
ATOM     15  C   UNL     1       2.329   6.815  19.789  0.00  0.00    +0.000 A 
ATOM     16  C   UNL     1       2.484   6.059  18.660  0.00  0.00    +0.000 A 
ATOM     17  N   UNL     1       2.358   6.860  17.559  0.00  0.00    +0.000 NA
ATOM     18  N   UNL     1       2.097   8.096  17.977  0.00  0.00    +0.000 NA
BRANCH  16  19
ATOM     19  C   UNL     1       2.790   4.644  18.666  0.00  0.00    +0.000 A 
ATOM     20  C   UNL     1       3.757   4.120  19.543  0.00  0.00    +0.000 A 
ATOM     21  C   UNL     1       4.096   2.770  19.495  0.00  0.00    +0.000 A 
ATOM     22  C   UNL     1       3.464   1.949  18.572  0.00  0.00    +0.000 A 
ATOM     23  F   UNL     1       3.803   0.656  18.509  0.00  0.00    +0.000 F 
ATOM     24  C   UNL     1       2.494   2.446  17.709  0.00  0.00    +0.000 A 
ATOM     25  C   UNL     1       2.148   3.804  17.754  0.00  0.00    +0.000 A 
ENDBRANCH  16  19
ENDBRANCH   4  14
BRANCH   3  26
ATOM     26  O   UNL     1       1.754   9.682  22.533  0.00  0.00    +0.000 OA
ATOM     27  H   UNL     1       1.485   9.307  23.392  0.00  0.00    +0.000 HD
ENDBRANCH   3  26
BRANCH   6  28
ATOM     28  C   UNL     1      -1.309  10.571  18.294  0.00  0.00    +0.000 C 
BRANCH  28  29
ATOM     29  C   UNL     1      -2.644   9.903  17.802  0.00  0.00    +0.000 C 
ATOM     30  C   UNL     1      -3.978  10.640  18.084  0.00  0.00    +0.000 C 
ATOM     31  C   UNL     1      -4.437  11.691  17.060  0.00  0.00    +0.000 C 
ATOM     32  C   UNL     1      -4.212  11.287  15.607  0.00  0.00    +0.000 C 
ATOM     33  C   UNL     1      -2.789  10.793  15.408  0.00  0.00    +0.000 C 
ATOM     34  C   UNL     1      -2.536   9.581  16.297  0.00  0.00    +0.000 C 
ENDBRANCH  28  29
ENDBRANCH   6  28
TORSDOF 6
ENDMDL
MODEL 2
REMARK VINA RESULT:      -8.1      0.411      1.212
REMARK  Name = 
REMARK  7 active torsions:
REMARK  status: ('A' for Active; 'I' for Inactive)
REMARK    1  A    between atoms: C_1  and  C_2
REMARK    2  A    between atoms: C_5  and  C_6
REMARK    3  A    between atoms: C_8  and  O_9
REMARK    4  A    between atoms: C_10  and  N_11
REMARK    5  A    between atoms: C_13  and  C_14
REMARK    6  A    between atoms: N_24  and  C_25
REMARK    7  A    between atoms: C_25  and  C_26
REMARK                            x       y       z     vdW  Elec       q    Type
REMARK                         _______ _______ _______ _____ _____    ______ ____
ROOT
ATOM      1  C   UNL     1      -1.054   9.853  20.585  0.00  0.00    +0.000 C 
ATOM      2  C   UNL     1      -0.306   8.792  21.427  0.00  0.00    +0.000 C 
ATOM      3  C   UNL     1       1.223   8.914  21.438  0.00  0.00    +0.000 C 
ATOM      4  C   UNL     1       1.835   9.396  20.100  0.00  0.00    +0.000 C 
ATOM      5  C   UNL     1       0.940  10.352  19.268  0.00  0.00    +0.000 C 
ATOM      6  N   UNL     1      -0.462   9.910  19.222  0.00  0.00    +0.000 NA
ENDROOT
BRANCH   1  11
ATOM      7  C   UNL     1      -2.218  14.852  23.461  0.00  0.00    +0.000 C 
ATOM      8  C   UNL     1      -1.908  13.580  22.730  0.00  0.00    +0.000 A 
ATOM      9  C   UNL     1      -1.524  12.445  23.434  0.00  0.00    +0.000 A 
ATOM     10  C   UNL     1      -1.183  11.274  22.752  0.00  0.00    +0.000 A 
ATOM     11  C   UNL     1      -1.256  11.168  21.355  0.00  0.00    +0.000 A 
ATOM     12  C   UNL     1      -1.622  12.329  20.656  0.00  0.00    +0.000 A 
ATOM     13  C   UNL     1      -1.927  13.519  21.332  0.00  0.00    +0.000 A 
ENDBRANCH   1  11
BRANCH   4  14
ATOM     14  N   UNL     1       2.169   8.238  19.277  0.00  0.00    +0.000 N 
ATOM     15  C   UNL     1       2.309   6.955  19.697  0.00  0.00    +0.000 A 
ATOM     16  C   UNL     1       2.608   6.260  18.557  0.00  0.00    +0.000 A 
ATOM     17  N   UNL     1       2.665   7.128  17.501  0.00  0.00    +0.000 NA
ATOM     18  N   UNL     1       2.379   8.346  17.953  0.00  0.00    +0.000 NA
BRANCH  16  19
ATOM     19  C   UNL     1       2.873   4.838  18.519  0.00  0.00    +0.000 A 
ATOM     20  C   UNL     1       2.004   3.962  17.842  0.00  0.00    +0.000 A 
ATOM     21  C   UNL     1       2.227   2.588  17.868  0.00  0.00    +0.000 A 
ATOM     22  C   UNL     1       3.319   2.095  18.567  0.00  0.00    +0.000 A 
ATOM     23  F   UNL     1       3.524   0.774  18.611  0.00  0.00    +0.000 F 
ATOM     24  C   UNL     1       4.197   2.947  19.228  0.00  0.00    +0.000 A 
ATOM     25  C   UNL     1       3.978   4.331  19.204  0.00  0.00    +0.000 A 
ENDBRANCH  16  19
ENDBRANCH   4  14
BRANCH   3  26
ATOM     26  O   UNL     1       1.676   9.737  22.525  0.00  0.00    +0.000 OA
ATOM     27  H   UNL     1       2.392   9.270  22.995  0.00  0.00    +0.000 HD
ENDBRANCH   3  26
BRANCH   6  28
ATOM     28  C   UNL     1      -1.327  10.594  18.237  0.00  0.00    +0.000 C 
BRANCH  28  29
ATOM     29  C   UNL     1      -2.665   9.916  17.768  0.00  0.00    +0.000 C 
ATOM     30  C   UNL     1      -3.993  10.684  17.992  0.00  0.00    +0.000 C 
ATOM     31  C   UNL     1      -4.426  11.680  16.903  0.00  0.00    +0.000 C 
ATOM     32  C   UNL     1      -4.190  11.190  15.479  0.00  0.00    +0.000 C 
ATOM     33  C   UNL     1      -2.771  10.668  15.326  0.00  0.00    +0.000 C 
ATOM     34  C   UNL     1      -2.545   9.506  16.286  0.00  0.00    +0.000 C 
ENDBRANCH  28  29
ENDBRANCH   6  28
TORSDOF 6
ENDMDL
MODEL 3
REMARK VINA RESULT:      -7.7      2.981      4.480
REMARK  Name = 
REMARK  7 active torsions:
REMARK  status: ('A' for Active; 'I' for Inactive)
REMARK    1  A    between atoms: C_1  and  C_2
REMARK    2  A    between atoms: C_5  and  C_6
REMARK    3  A    between atoms: C_8  and  O_9
REMARK    4  A    between atoms: C_10  and  N_11
REMARK    5  A    between atoms: C_13  and  C_14
REMARK    6  A    between atoms: N_24  and  C_25
REMARK    7  A    between atoms: C_25  and  C_26
REMARK                            x       y       z     vdW  Elec       q    Type
REMARK                         _______ _______ _______ _____ _____    ______ ____
ROOT
ATOM      1  C   UNL     1      -3.759  12.775  21.417  0.00  0.00    +0.000 C 
ATOM      2  C   UNL     1      -3.182  12.334  22.784  0.00  0.00    +0.000 C 
ATOM      3  C   UNL     1      -1.739  12.773  23.065  0.00  0.00    +0.000 C 
ATOM      4  C   UNL     1      -0.821  12.786  21.818  0.00  0.00    +0.000 C 
ATOM      5  C   UNL     1      -1.531  13.106  20.476  0.00  0.00    +0.000 C 
ATOM      6  N   UNL     1      -2.811  12.396  20.335  0.00  0.00    +0.000 NA
ENDROOT
BRANCH   1  11
ATOM      7  C   UNL     1      -5.790  18.271  21.944  0.00  0.00    +0.000 C 
ATOM      8  C   UNL     1      -5.274  16.870  21.797  0.00  0.00    +0.000 A 
ATOM      9  C   UNL     1      -4.011  16.643  21.266  0.00  0.00    +0.000 A 
ATOM     10  C   UNL     1      -3.549  15.338  21.077  0.00  0.00    +0.000 A 
ATOM     11  C   UNL     1      -4.300  14.213  21.451  0.00  0.00    +0.000 A 
ATOM     12  C   UNL     1      -5.583  14.457  21.964  0.00  0.00    +0.000 A 
ATOM     13  C   UNL     1      -6.068  15.763  22.119  0.00  0.00    +0.000 A 
ENDBRANCH   1  11
BRANCH   4  14
ATOM     14  N   UNL     1      -0.155  11.494  21.695  0.00  0.00    +0.000 N 
ATOM     15  C   UNL     1       0.260  10.898  20.549  0.00  0.00    +0.000 A 
ATOM     16  C   UNL     1       0.828   9.726  20.966  0.00  0.00    +0.000 A 
ATOM     17  N   UNL     1       0.721   9.632  22.327  0.00  0.00    +0.000 NA
ATOM     18  N   UNL     1       0.125  10.735  22.770  0.00  0.00    +0.000 NA
BRANCH  16  19
ATOM     19  C   UNL     1       1.394   8.735  20.075  0.00  0.00    +0.000 A 
ATOM     20  C   UNL     1       1.806   7.481  20.563  0.00  0.00    +0.000 A 
ATOM     21  C   UNL     1       2.413   6.559  19.714  0.00  0.00    +0.000 A 
ATOM     22  C   UNL     1       2.602   6.893  18.381  0.00  0.00    +0.000 A 
ATOM     23  F   UNL     1       3.204   6.017  17.568  0.00  0.00    +0.000 F 
ATOM     24  C   UNL     1       2.186   8.121  17.878  0.00  0.00    +0.000 A 
ATOM     25  C   UNL     1       1.573   9.052  18.728  0.00  0.00    +0.000 A 
ENDBRANCH  16  19
ENDBRANCH   4  14
BRANCH   3  26
ATOM     26  O   UNL     1      -1.698  14.042  23.736  0.00  0.00    +0.000 OA
ATOM     27  H   UNL     1      -0.972  14.573  23.359  0.00  0.00    +0.000 HD
ENDBRANCH   3  26
BRANCH   6  28
ATOM     28  C   UNL     1      -3.422  12.419  18.989  0.00  0.00    +0.000 C 
BRANCH  28  29
ATOM     29  C   UNL     1      -3.924  11.080  18.336  0.00  0.00    +0.000 C 
ATOM     30  C   UNL     1      -4.559  11.148  16.923  0.00  0.00    +0.000 C 
ATOM     31  C   UNL     1      -3.610  11.071  15.716  0.00  0.00    +0.000 C 
ATOM     32  C   UNL     1      -2.480  10.059  15.874  0.00  0.00    +0.000 C 
ATOM     33  C   UNL     1      -1.784  10.245  17.212  0.00  0.00    +0.000 C 
ATOM     34  C   UNL     1      -2.784  10.041  18.344  0.00  0.00    +0.000 C 
ENDBRANCH  28  29
ENDBRANCH   6  28
TORSDOF 6
ENDMDL
MODEL 4
REMARK VINA RESULT:      -7.7      1.556      2.055
REMARK  Name = 
REMARK  7 active torsions:
REMARK  status: ('A' for Active; 'I' for Inactive)
REMARK    1  A    between atoms: C_1  and  C_2
REMARK    2  A    between atoms: C_5  and  C_6
REMARK    3  A    between atoms: C_8  and  O_9
REMARK    4  A    between atoms: C_10  and  N_11
REMARK    5  A    between atoms: C_13  and  C_14
REMARK    6  A    between atoms: N_24  and  C_25
REMARK    7  A    between atoms: C_25  and  C_26
REMARK                            x       y       z     vdW  Elec       q    Type
REMARK                         _______ _______ _______ _____ _____    ______ ____
ROOT
ATOM      1  C   UNL     1      -1.106  10.924  19.666  0.00  0.00    +0.000 C 
ATOM      2  C   UNL     1      -0.621  10.510  21.076  0.00  0.00    +0.000 C 
ATOM      3  C   UNL     1       0.898  10.355  21.234  0.00  0.00    +0.000 C 
ATOM      4  C   UNL     1       1.615   9.790  19.984  0.00  0.00    +0.000 C 
ATOM      5  C   UNL     1       0.964  10.154  18.624  0.00  0.00    +0.000 C 
ATOM      6  N   UNL     1      -0.500  10.020  18.650  0.00  0.00    +0.000 NA
ENDROOT
BRANCH   1  11
ATOM      7  C   UNL     1      -0.523  16.752  19.123  0.00  0.00    +0.000 C 
ATOM      8  C   UNL     1      -0.681  15.267  19.252  0.00  0.00    +0.000 A 
ATOM      9  C   UNL     1      -0.115  14.420  18.306  0.00  0.00    +0.000 A 
ATOM     10  C   UNL     1      -0.306  13.038  18.393  0.00  0.00    +0.000 A 
ATOM     11  C   UNL     1      -1.020  12.442  19.444  0.00  0.00    +0.000 A 
ATOM     12  C   UNL     1      -1.605  13.311  20.377  0.00  0.00    +0.000 A 
ATOM     13  C   UNL     1      -1.451  14.700  20.274  0.00  0.00    +0.000 A 
ENDBRANCH   1  11
BRANCH   4  14
ATOM     14  N   UNL     1       1.694   8.337  20.088  0.00  0.00    +0.000 N 
ATOM     15  C   UNL     1       2.295   7.490  19.214  0.00  0.00    +0.000 A 
ATOM     16  C   UNL     1       2.105   6.251  19.763  0.00  0.00    +0.000 A 
ATOM     17  N   UNL     1       1.385   6.375  20.919  0.00  0.00    +0.000 NA
ATOM     18  N   UNL     1       1.148   7.669  21.119  0.00  0.00    +0.000 NA
BRANCH  16  19
ATOM     19  C   UNL     1       2.558   5.017  19.158  0.00  0.00    +0.000 A 
ATOM     20  C   UNL     1       3.671   4.328  19.676  0.00  0.00    +0.000 A 
ATOM     21  C   UNL     1       4.143   3.179  19.048  0.00  0.00    +0.000 A 
ATOM     22  C   UNL     1       3.500   2.721  17.907  0.00  0.00    +0.000 A 
ATOM     23  F   UNL     1       3.965   1.628  17.290  0.00  0.00    +0.000 F 
ATOM     24  C   UNL     1       2.389   3.379  17.391  0.00  0.00    +0.000 A 
ATOM     25  C   UNL     1       1.909   4.536  18.020  0.00  0.00    +0.000 A 
ENDBRANCH  16  19
ENDBRANCH   4  14
BRANCH   3  26
ATOM     26  O   UNL     1       1.509  11.585  21.654  0.00  0.00    +0.000 OA
ATOM     27  H   UNL     1       1.179  12.309  21.091  0.00  0.00    +0.000 HD
ENDBRANCH   3  26
BRANCH   6  28
ATOM     28  C   UNL     1      -1.182  10.076  17.339  0.00  0.00    +0.000 C 
BRANCH  28  29
ATOM     29  C   UNL     1      -2.675   9.602  17.214  0.00  0.00    +0.000 C 
ATOM     30  C   UNL     1      -3.717  10.199  18.194  0.00  0.00    +0.000 C 
ATOM     31  C   UNL     1      -4.384  11.527  17.797  0.00  0.00    +0.000 C 
ATOM     32  C   UNL     1      -4.749  11.625  16.320  0.00  0.00    +0.000 C 
ATOM     33  C   UNL     1      -3.565  11.230  15.454  0.00  0.00    +0.000 C 
ATOM     34  C   UNL     1      -3.158   9.794  15.761  0.00  0.00    +0.000 C 
ENDBRANCH  28  29
ENDBRANCH   6  28
TORSDOF 6
ENDMDL
MODEL 5
REMARK VINA RESULT:      -7.6      2.968      4.838
REMARK  Name = 
REMARK  7 active torsions:
REMARK  status: ('A' for Active; 'I' for Inactive)
REMARK    1  A    between atoms: C_1  and  C_2
REMARK    2  A    between atoms: C_5  and  C_6
REMARK    3  A    between atoms: C_8  and  O_9
REMARK    4  A    between atoms: C_10  and  N_11
REMARK    5  A    between atoms: C_13  and  C_14
REMARK    6  A    between atoms: N_24  and  C_25
REMARK    7  A    between atoms: C_25  and  C_26
REMARK                            x       y       z     vdW  Elec       q    Type
REMARK                         _______ _______ _______ _____ _____    ______ ____
ROOT
ATOM      1  C   UNL     1       1.177  13.909  20.424  0.00  0.00    +0.000 C 
ATOM      2  C   UNL     1       2.426  13.221  19.822  0.00  0.00    +0.000 C 
ATOM      3  C   UNL     1       2.159  12.286  18.635  0.00  0.00    +0.000 C 
ATOM      4  C   UNL     1       0.827  11.502  18.728  0.00  0.00    +0.000 C 
ATOM      5  C   UNL     1      -0.321  12.231  19.474  0.00  0.00    +0.000 C 
ATOM      6  N   UNL     1       0.138  12.882  20.710  0.00  0.00    +0.000 NA
ENDROOT
BRANCH   1  11
ATOM      7  C   UNL     1      -0.303  18.524  17.090  0.00  0.00    +0.000 C 
ATOM      8  C   UNL     1       0.072  17.355  17.951  0.00  0.00    +0.000 A 
ATOM      9  C   UNL     1      -0.908  16.653  18.642  0.00  0.00    +0.000 A 
ATOM     10  C   UNL     1      -0.555  15.597  19.486  0.00  0.00    +0.000 A 
ATOM     11  C   UNL     1       0.772  15.167  19.641  0.00  0.00    +0.000 A 
ATOM     12  C   UNL     1       1.752  15.901  18.956  0.00  0.00    +0.000 A 
ATOM     13  C   UNL     1       1.409  16.986  18.137  0.00  0.00    +0.000 A 
ENDBRANCH   1  11
BRANCH   4  14
ATOM     14  N   UNL     1       1.066  10.219  19.381  0.00  0.00    +0.000 N 
ATOM     15  C   UNL     1       1.652   9.124  18.834  0.00  0.00    +0.000 A 
ATOM     16  C   UNL     1       1.651   8.203  19.845  0.00  0.00    +0.000 A 
ATOM     17  N   UNL     1       1.052   8.745  20.949  0.00  0.00    +0.000 NA
ATOM     18  N   UNL     1       0.706   9.995  20.658  0.00  0.00    +0.000 NA
BRANCH  16  19
ATOM     19  C   UNL     1       2.161   6.855  19.716  0.00  0.00    +0.000 A 
ATOM     20  C   UNL     1       1.814   5.861  20.650  0.00  0.00    +0.000 A 
ATOM     21  C   UNL     1       2.363   4.585  20.559  0.00  0.00    +0.000 A 
ATOM     22  C   UNL     1       3.254   4.306  19.533  0.00  0.00    +0.000 A 
ATOM     23  F   UNL     1       3.799   3.086  19.455  0.00  0.00    +0.000 F 
ATOM     24  C   UNL     1       3.596   5.270  18.591  0.00  0.00    +0.000 A 
ATOM     25  C   UNL     1       3.045   6.556  18.677  0.00  0.00    +0.000 A 
ENDBRANCH  16  19
ENDBRANCH   4  14
BRANCH   3  26
ATOM     26  O   UNL     1       2.246  12.987  17.385  0.00  0.00    +0.000 OA
ATOM     27  H   UNL     1       1.536  13.655  17.349  0.00  0.00    +0.000 HD
ENDBRANCH   3  26
BRANCH   6  28
ATOM     28  C   UNL     1      -0.920  13.362  21.624  0.00  0.00    +0.000 C 
BRANCH  28  29
ATOM     29  C   UNL     1      -2.261  12.553  21.761  0.00  0.00    +0.000 C 
ATOM     30  C   UNL     1      -2.698  12.097  23.177  0.00  0.00    +0.000 C 
ATOM     31  C   UNL     1      -3.519  13.087  24.019  0.00  0.00    +0.000 C 
ATOM     32  C   UNL     1      -4.574  13.854  23.229  0.00  0.00    +0.000 C 
ATOM     33  C   UNL     1      -3.964  14.450  21.971  0.00  0.00    +0.000 C 
ATOM     34  C   UNL     1      -3.408  13.337  21.091  0.00  0.00    +0.000 C 
ENDBRANCH  28  29
ENDBRANCH   6  28
TORSDOF 6
ENDMDL
MODEL 6
REMARK VINA RESULT:      -7.6      1.686      1.895
REMARK  Name = 
REMARK  7 active torsions:
REMARK  status: ('A' for Active; 'I' for Inactive)
REMARK    1  A    between atoms: C_1  and  C_2
REMARK    2  A    between atoms: C_5  and  C_6
REMARK    3  A    between atoms: C_8  and  O_9
REMARK    4  A    between atoms: C_10  and  N_11
REMARK    5  A    between atoms: C_13  and  C_14
REMARK    6  A    between atoms: N_24  and  C_25
REMARK    7  A    between atoms: C_25  and  C_26
REMARK                            x       y       z     vdW  Elec       q    Type
REMARK                         _______ _______ _______ _____ _____    ______ ____
ROOT
ATOM      1  C   UNL     1      -1.031   9.781  20.577  0.00  0.00    +0.000 C 
ATOM      2  C   UNL     1      -0.451   8.799  21.623  0.00  0.00    +0.000 C 
ATOM      3  C   UNL     1       1.075   8.832  21.786  0.00  0.00    +0.000 C 
ATOM      4  C   UNL     1       1.851   9.093  20.472  0.00  0.00    +0.000 C 
ATOM      5  C   UNL     1       1.117   9.981  19.434  0.00  0.00    +0.000 C 
ATOM      6  N   UNL     1      -0.302   9.620  19.290  0.00  0.00    +0.000 NA
ENDROOT
BRANCH   1  11
ATOM      7  C   UNL     1      -1.355  15.179  22.894  0.00  0.00    +0.000 C 
ATOM      8  C   UNL     1      -1.285  13.804  22.300  0.00  0.00    +0.000 A 
ATOM      9  C   UNL     1      -1.220  13.641  20.921  0.00  0.00    +0.000 A 
ATOM     10  C   UNL     1      -1.209  12.360  20.362  0.00  0.00    +0.000 A 
ATOM     11  C   UNL     1      -1.213  11.196  21.147  0.00  0.00    +0.000 A 
ATOM     12  C   UNL     1      -1.303  11.376  22.536  0.00  0.00    +0.000 A 
ATOM     13  C   UNL     1      -1.354  12.658  23.101  0.00  0.00    +0.000 A 
ENDBRANCH   1  11
BRANCH   4  14
ATOM     14  N   UNL     1       2.182   7.818  19.844  0.00  0.00    +0.000 N 
ATOM     15  C   UNL     1       3.015   7.621  18.792  0.00  0.00    +0.000 A 
ATOM     16  C   UNL     1       2.996   6.268  18.597  0.00  0.00    +0.000 A 
ATOM     17  N   UNL     1       2.148   5.693  19.504  0.00  0.00    +0.000 NA
ATOM     18  N   UNL     1       1.660   6.657  20.279  0.00  0.00    +0.000 NA
BRANCH  16  19
ATOM     19  C   UNL     1       3.728   5.587  17.550  0.00  0.00    +0.000 A 
ATOM     20  C   UNL     1       3.618   4.194  17.384  0.00  0.00    +0.000 A 
ATOM     21  C   UNL     1       4.378   3.537  16.420  0.00  0.00    +0.000 A 
ATOM     22  C   UNL     1       5.240   4.275  15.623  0.00  0.00    +0.000 A 
ATOM     23  F   UNL     1       5.987   3.643  14.709  0.00  0.00    +0.000 F 
ATOM     24  C   UNL     1       5.349   5.654  15.761  0.00  0.00    +0.000 A 
ATOM     25  C   UNL     1       4.586   6.321  16.730  0.00  0.00    +0.000 A 
ENDBRANCH  16  19
ENDBRANCH   4  14
BRANCH   3  26
ATOM     26  O   UNL     1       1.474   9.764  22.803  0.00  0.00    +0.000 OA
ATOM     27  H   UNL     1       2.406  10.011  22.654  0.00  0.00    +0.000 HD
ENDBRANCH   3  26
BRANCH   6  28
ATOM     28  C   UNL     1      -1.012  10.216  18.139  0.00  0.00    +0.000 C 
BRANCH  28  29
ATOM     29  C   UNL     1      -2.425   9.668  17.723  0.00  0.00    +0.000 C 
ATOM     30  C   UNL     1      -3.681  10.389  18.277  0.00  0.00    +0.000 C 
ATOM     31  C   UNL     1      -4.210  11.597  17.487  0.00  0.00    +0.000 C 
ATOM     32  C   UNL     1      -4.179  11.415  15.973  0.00  0.00    +0.000 C 
ATOM     33  C   UNL     1      -2.814  10.919  15.526  0.00  0.00    +0.000 C 
ATOM     34  C   UNL     1      -2.513   9.578  16.186  0.00  0.00    +0.000 C 
ENDBRANCH  28  29
ENDBRANCH   6  28
TORSDOF 6
ENDMDL
MODEL 7
REMARK VINA RESULT:      -7.5      2.659      4.770
REMARK  Name = 
REMARK  7 active torsions:
REMARK  status: ('A' for Active; 'I' for Inactive)
REMARK    1  A    between atoms: C_1  and  C_2
REMARK    2  A    between atoms: C_5  and  C_6
REMARK    3  A    between atoms: C_8  and  O_9
REMARK    4  A    between atoms: C_10  and  N_11
REMARK    5  A    between atoms: C_13  and  C_14
REMARK    6  A    between atoms: N_24  and  C_25
REMARK    7  A    between atoms: C_25  and  C_26
REMARK                            x       y       z     vdW  Elec       q    Type
REMARK                         _______ _______ _______ _____ _____    ______ ____
ROOT
ATOM      1  C   UNL     1       0.731  13.488  20.388  0.00  0.00    +0.000 C 
ATOM      2  C   UNL     1       2.125  13.047  19.879  0.00  0.00    +0.000 C 
ATOM      3  C   UNL     1       2.127  12.237  18.575  0.00  0.00    +0.000 C 
ATOM      4  C   UNL     1       0.918  11.281  18.416  0.00  0.00    +0.000 C 
ATOM      5  C   UNL     1      -0.397  11.760  19.085  0.00  0.00    +0.000 C 
ATOM      6  N   UNL     1      -0.175  12.309  20.430  0.00  0.00    +0.000 NA
ENDROOT
BRANCH   1  11
ATOM      7  C   UNL     1      -1.127  18.578  18.095  0.00  0.00    +0.000 C 
ATOM      8  C   UNL     1      -0.655  17.275  18.668  0.00  0.00    +0.000 A 
ATOM      9  C   UNL     1       0.616  16.799  18.368  0.00  0.00    +0.000 A 
ATOM     10  C   UNL     1       1.038  15.560  18.856  0.00  0.00    +0.000 A 
ATOM     11  C   UNL     1       0.239  14.770  19.697  0.00  0.00    +0.000 A 
ATOM     12  C   UNL     1      -1.050  15.251  19.971  0.00  0.00    +0.000 A 
ATOM     13  C   UNL     1      -1.495  16.476  19.452  0.00  0.00    +0.000 A 
ENDBRANCH   1  11
BRANCH   4  14
ATOM     14  N   UNL     1       1.265   9.971  18.955  0.00  0.00    +0.000 N 
ATOM     15  C   UNL     1       1.867   8.951  18.292  0.00  0.00    +0.000 A 
ATOM     16  C   UNL     1       1.981   7.962  19.229  0.00  0.00    +0.000 A 
ATOM     17  N   UNL     1       1.432   8.390  20.407  0.00  0.00    +0.000 NA
ATOM     18  N   UNL     1       1.004   9.637  20.232  0.00  0.00    +0.000 NA
BRANCH  16  19
ATOM     19  C   UNL     1       2.548   6.656  18.967  0.00  0.00    +0.000 A 
ATOM     20  C   UNL     1       2.173   5.541  19.740  0.00  0.00    +0.000 A 
ATOM     21  C   UNL     1       2.774   4.303  19.528  0.00  0.00    +0.000 A 
ATOM     22  C   UNL     1       3.743   4.184  18.542  0.00  0.00    +0.000 A 
ATOM     23  F   UNL     1       4.337   3.000  18.351  0.00  0.00    +0.000 F 
ATOM     24  C   UNL     1       4.114   5.270  17.758  0.00  0.00    +0.000 A 
ATOM     25  C   UNL     1       3.511   6.519  17.967  0.00  0.00    +0.000 A 
ENDBRANCH  16  19
ENDBRANCH   4  14
BRANCH   3  26
ATOM     26  O   UNL     1       2.250  13.090  17.427  0.00  0.00    +0.000 OA
ATOM     27  H   UNL     1       1.420  13.051  16.916  0.00  0.00    +0.000 HD
ENDBRANCH   3  26
BRANCH   6  28
ATOM     28  C   UNL     1      -1.385  12.533  21.249  0.00  0.00    +0.000 C 
BRANCH  28  29
ATOM     29  C   UNL     1      -1.270  12.590  22.816  0.00  0.00    +0.000 C 
ATOM     30  C   UNL     1      -1.158  13.980  23.492  0.00  0.00    +0.000 C 
ATOM     31  C   UNL     1      -2.468  14.712  23.827  0.00  0.00    +0.000 C 
ATOM     32  C   UNL     1      -3.566  13.808  24.378  0.00  0.00    +0.000 C 
ATOM     33  C   UNL     1      -3.736  12.583  23.495  0.00  0.00    +0.000 C 
ATOM     34  C   UNL     1      -2.431  11.796  23.449  0.00  0.00    +0.000 C 
ENDBRANCH  28  29
ENDBRANCH   6  28
TORSDOF 6
ENDMDL
MODEL 8
REMARK VINA RESULT:      -7.5      2.602      4.013
REMARK  Name = 
REMARK  7 active torsions:
REMARK  status: ('A' for Active; 'I' for Inactive)
REMARK    1  A    between atoms: C_1  and  C_2
REMARK    2  A    between atoms: C_5  and  C_6
REMARK    3  A    between atoms: C_8  and  O_9
REMARK    4  A    between atoms: C_10  and  N_11
REMARK    5  A    between atoms: C_13  and  C_14
REMARK    6  A    between atoms: N_24  and  C_25
REMARK    7  A    between atoms: C_25  and  C_26
REMARK                            x       y       z     vdW  Elec       q    Type
REMARK                         _______ _______ _______ _____ _____    ______ ____
ROOT
ATOM      1  C   UNL     1      -0.960  12.103  19.565  0.00  0.00    +0.000 C 
ATOM      2  C   UNL     1      -1.401  10.636  19.786  0.00  0.00    +0.000 C 
ATOM      3  C   UNL     1      -0.451   9.780  20.635  0.00  0.00    +0.000 C 
ATOM      4  C   UNL     1       1.050  10.103  20.434  0.00  0.00    +0.000 C 
ATOM      5  C   UNL     1       1.369  11.580  20.080  0.00  0.00    +0.000 C 
ATOM      6  N   UNL     1       0.445  12.127  19.075  0.00  0.00    +0.000 NA
ENDROOT
BRANCH   1  11
ATOM      7  C   UNL     1      -2.666  15.283  24.211  0.00  0.00    +0.000 C 
ATOM      8  C   UNL     1      -2.223  14.482  23.022  0.00  0.00    +0.000 A 
ATOM      9  C   UNL     1      -0.938  13.958  22.972  0.00  0.00    +0.000 A 
ATOM     10  C   UNL     1      -0.505  13.258  21.843  0.00  0.00    +0.000 A 
ATOM     11  C   UNL     1      -1.343  13.009  20.745  0.00  0.00    +0.000 A 
ATOM     12  C   UNL     1      -2.630  13.566  20.799  0.00  0.00    +0.000 A 
ATOM     13  C   UNL     1      -3.057  14.303  21.913  0.00  0.00    +0.000 A 
ENDBRANCH   1  11
BRANCH   4  14
ATOM     14  N   UNL     1       1.592   9.245  19.386  0.00  0.00    +0.000 N 
ATOM     15  C   UNL     1       1.927   7.935  19.499  0.00  0.00    +0.000 A 
ATOM     16  C   UNL     1       2.368   7.592  18.251  0.00  0.00    +0.000 A 
ATOM     17  N   UNL     1       2.315   8.690  17.436  0.00  0.00    +0.000 NA
ATOM     18  N   UNL     1       1.822   9.703  18.142  0.00  0.00    +0.000 NA
BRANCH  16  19
ATOM     19  C   UNL     1       2.862   6.279  17.896  0.00  0.00    +0.000 A 
ATOM     20  C   UNL     1       2.032   5.146  17.998  0.00  0.00    +0.000 A 
ATOM     21  C   UNL     1       2.534   3.877  17.721  0.00  0.00    +0.000 A 
ATOM     22  C   UNL     1       3.861   3.746  17.340  0.00  0.00    +0.000 A 
ATOM     23  F   UNL     1       4.352   2.525  17.094  0.00  0.00    +0.000 F 
ATOM     24  C   UNL     1       4.691   4.854  17.218  0.00  0.00    +0.000 A 
ATOM     25  C   UNL     1       4.190   6.135  17.494  0.00  0.00    +0.000 A 
ENDBRANCH  16  19
ENDBRANCH   4  14
BRANCH   3  26
ATOM     26  O   UNL     1      -0.797   9.836  22.028  0.00  0.00    +0.000 OA
ATOM     27  H   UNL     1      -0.462   9.032  22.467  0.00  0.00    +0.000 HD
ENDBRANCH   3  26
BRANCH   6  28
ATOM     28  C   UNL     1       0.831  13.422  18.474  0.00  0.00    +0.000 C 
BRANCH  28  29
ATOM     29  C   UNL     1       1.958  14.289  19.143  0.00  0.00    +0.000 C 
ATOM     30  C   UNL     1       3.298  14.459  18.383  0.00  0.00    +0.000 C 
ATOM     31  C   UNL     1       3.393  15.602  17.360  0.00  0.00    +0.000 C 
ATOM     32  C   UNL     1       2.733  16.901  17.812  0.00  0.00    +0.000 C 
ATOM     33  C   UNL     1       1.329  16.631  18.326  0.00  0.00    +0.000 C 
ATOM     34  C   UNL     1       1.391  15.676  19.513  0.00  0.00    +0.000 C 
ENDBRANCH  28  29
ENDBRANCH   6  28
TORSDOF 6
ENDMDL
MODEL 9
REMARK VINA RESULT:      -7.4      2.748      4.742
REMARK  Name = 
REMARK  7 active torsions:
REMARK  status: ('A' for Active; 'I' for Inactive)
REMARK    1  A    between atoms: C_1  and  C_2
REMARK    2  A    between atoms: C_5  and  C_6
REMARK    3  A    between atoms: C_8  and  O_9
REMARK    4  A    between atoms: C_10  and  N_11
REMARK    5  A    between atoms: C_13  and  C_14
REMARK    6  A    between atoms: N_24  and  C_25
REMARK    7  A    between atoms: C_25  and  C_26
REMARK                            x       y       z     vdW  Elec       q    Type
REMARK                         _______ _______ _______ _____ _____    ______ ____
ROOT
ATOM      1  C   UNL     1       0.977  13.310  20.472  0.00  0.00    +0.000 C 
ATOM      2  C   UNL     1       2.369  12.909  19.928  0.00  0.00    +0.000 C 
ATOM      3  C   UNL     1       2.378  12.290  18.524  0.00  0.00    +0.000 C 
ATOM      4  C   UNL     1       1.151  11.398  18.213  0.00  0.00    +0.000 C 
ATOM      5  C   UNL     1      -0.166  11.811  18.920  0.00  0.00    +0.000 C 
ATOM      6  N   UNL     1       0.043  12.160  20.334  0.00  0.00    +0.000 NA
ENDROOT
BRANCH   1  11
ATOM      7  C   UNL     1      -0.377  18.631  18.359  0.00  0.00    +0.000 C 
ATOM      8  C   UNL     1      -0.044  17.274  18.903  0.00  0.00    +0.000 A 
ATOM      9  C   UNL     1      -0.590  16.135  18.324  0.00  0.00    +0.000 A 
ATOM     10  C   UNL     1      -0.325  14.873  18.862  0.00  0.00    +0.000 A 
ATOM     11  C   UNL     1       0.528  14.688  19.961  0.00  0.00    +0.000 A 
ATOM     12  C   UNL     1       1.053  15.849  20.550  0.00  0.00    +0.000 A 
ATOM     13  C   UNL     1       0.759  17.120  20.039  0.00  0.00    +0.000 A 
ENDBRANCH   1  11
BRANCH   4  14
ATOM     14  N   UNL     1       1.457  10.016  18.567  0.00  0.00    +0.000 N 
ATOM     15  C   UNL     1       2.147   9.118  17.820  0.00  0.00    +0.000 A 
ATOM     16  C   UNL     1       2.171   7.988  18.590  0.00  0.00    +0.000 A 
ATOM     17  N   UNL     1       1.485   8.218  19.751  0.00  0.00    +0.000 NA
ATOM     18  N   UNL     1       1.059   9.479  19.734  0.00  0.00    +0.000 NA
BRANCH  16  19
ATOM     19  C   UNL     1       2.785   6.742  18.185  0.00  0.00    +0.000 A 
ATOM     20  C   UNL     1       4.048   6.730  17.563  0.00  0.00    +0.000 A 
ATOM     21  C   UNL     1       4.601   5.534  17.114  0.00  0.00    +0.000 A 
ATOM     22  C   UNL     1       3.893   4.355  17.292  0.00  0.00    +0.000 A 
ATOM     23  F   UNL     1       4.414   3.207  16.842  0.00  0.00    +0.000 F 
ATOM     24  C   UNL     1       2.652   4.344  17.919  0.00  0.00    +0.000 A 
ATOM     25  C   UNL     1       2.091   5.546  18.374  0.00  0.00    +0.000 A 
ENDBRANCH  16  19
ENDBRANCH   4  14
BRANCH   3  26
ATOM     26  O   UNL     1       2.544  13.293  17.510  0.00  0.00    +0.000 OA
ATOM     27  H   UNL     1       3.384  13.762  17.666  0.00  0.00    +0.000 HD
ENDBRANCH   3  26
BRANCH   6  28
ATOM     28  C   UNL     1      -1.178  12.298  21.156  0.00  0.00    +0.000 C 
BRANCH  28  29
ATOM     29  C   UNL     1      -1.056  12.447  22.716  0.00  0.00    +0.000 C 
ATOM     30  C   UNL     1      -1.044  13.877  23.316  0.00  0.00    +0.000 C 
ATOM     31  C   UNL     1      -2.403  14.526  23.626  0.00  0.00    +0.000 C 
ATOM     32  C   UNL     1      -3.426  13.574  24.236  0.00  0.00    +0.000 C 
ATOM     33  C   UNL     1      -3.511  12.295  23.421  0.00  0.00    +0.000 C 
ATOM     34  C   UNL     1      -2.151  11.605  23.403  0.00  0.00    +0.000 C 
ENDBRANCH  28  29
ENDBRANCH   6  28
TORSDOF 6
ENDMDL
