MODEL 1
REMARK VINA RESULT:      -7.1      0.000      0.000
REMARK  Name = 
REMARK  6 active torsions:
REMARK  status: ('A' for Active; 'I' for Inactive)
REMARK    1  A    between atoms: C_1  and  O_2
REMARK    2  A    between atoms: O_2  and  C_3
REMARK    3  A    between atoms: C_3  and  C_5
REMARK    4  A    between atoms: C_7  and  O_8
REMARK    5  A    between atoms: N_10  and  C_11
REMARK    6  A    between atoms: C_11  and  C_12
REMARK                            x       y       z     vdW  Elec       q    Type
REMARK                         _______ _______ _______ _____ _____    ______ ____
ROOT
ATOM      1  C   UNL     1       6.456   5.751  17.643  0.00  0.00    +0.000 C 
ATOM      2  C   UNL     1       6.993   4.466  17.017  0.00  0.00    +0.000 C 
ATOM      3  C   UNL     1       5.889   4.051  16.075  0.00  0.00    +0.000 C 
ATOM      4  C   UNL     1       5.393   5.382  15.524  0.00  0.00    +0.000 C 
ATOM      5  N   UNL     1       5.596   6.382  16.592  0.00  0.00    +0.000 NA
ENDROOT
BRANCH   1   6
ATOM      6  C   UNL     1       7.567   6.700  18.117  0.00  0.00    +0.000 C 
ATOM      7  O   UNL     1       8.283   6.526  19.094  0.00  0.00    +0.000 OA
BRANCH   6   9
ATOM      8  C   UNL     1       8.049   8.985  17.809  0.00  0.00    +0.000 C 
ATOM      9  O   UNL     1       7.722   7.725  17.222  0.00  0.00    +0.000 OA
ENDBRANCH   6   9
ENDBRANCH   1   6
BRANCH   3  10
ATOM     10  O   UNL     1       4.874   3.359  16.801  0.00  0.00    +0.000 OA
ATOM     11  H   UNL     1       4.611   2.576  16.286  0.00  0.00    +0.000 HD
ENDBRANCH   3  10
BRANCH   5  12
ATOM     12  C   UNL     1       4.347   6.890  17.186  0.00  0.00    +0.000 C 
BRANCH  12  13
ATOM     13  C   UNL     1       3.674   5.879  18.064  0.00  0.00    +0.000 A 
ATOM     14  C   UNL     1       3.957   5.521  19.368  0.00  0.00    +0.000 A 
ATOM     15  N   UNL     1       3.098   4.497  19.671  0.00  0.00    +0.000 N 
ATOM     16  C   UNL     1       3.000   3.732  20.831  0.00  0.00    +0.000 A 
ATOM     17  C   UNL     1       2.076   2.758  20.898  0.00  0.00    +0.000 A 
ATOM     18  C   UNL     1       1.195   2.544  19.761  0.00  0.00    +0.000 A 
ATOM     19  C   UNL     1       1.298   3.285  18.639  0.00  0.00    +0.000 A 
ATOM     20  C   UNL     1       2.293   4.302  18.553  0.00  0.00    +0.000 A 
ATOM     21  N   UNL     1       2.625   5.121  17.577  0.00  0.00    +0.000 NA
ENDBRANCH  12  13
ENDBRANCH   5  12
TORSDOF 5
ENDMDL
MODEL 2
REMARK VINA RESULT:      -7.0      2.041      3.413
REMARK  Name = 
REMARK  6 active torsions:
REMARK  status: ('A' for Active; 'I' for Inactive)
REMARK    1  A    between atoms: C_1  and  O_2
REMARK    2  A    between atoms: O_2  and  C_3
REMARK    3  A    between atoms: C_3  and  C_5
REMARK    4  A    between atoms: C_7  and  O_8
REMARK    5  A    between atoms: N_10  and  C_11
REMARK    6  A    between atoms: C_11  and  C_12
REMARK                            x       y       z     vdW  Elec       q    Type
REMARK                         _______ _______ _______ _____ _____    ______ ____
ROOT
ATOM      1  C   UNL     1       5.823   5.322  15.879  0.00  0.00    +0.000 C 
ATOM      2  C   UNL     1       5.035   6.585  15.534  0.00  0.00    +0.000 C 
ATOM      3  C   UNL     1       4.826   7.241  16.877  0.00  0.00    +0.000 C 
ATOM      4  C   UNL     1       6.139   6.964  17.600  0.00  0.00    +0.000 C 
ATOM      5  N   UNL     1       6.640   5.675  17.084  0.00  0.00    +0.000 NA
ENDROOT
BRANCH   1   6
ATOM      6  C   UNL     1       6.700   4.824  14.720  0.00  0.00    +0.000 C 
ATOM      7  O   UNL     1       7.731   5.353  14.329  0.00  0.00    +0.000 OA
BRANCH   6   9
ATOM      8  C   UNL     1       6.138   3.536  12.830  0.00  0.00    +0.000 C 
ATOM      9  O   UNL     1       6.222   3.629  14.252  0.00  0.00    +0.000 OA
ENDBRANCH   6   9
ENDBRANCH   1   6
BRANCH   3  10
ATOM     10  O   UNL     1       3.713   6.640  17.538  0.00  0.00    +0.000 OA
ATOM     11  H   UNL     1       3.891   5.688  17.628  0.00  0.00    +0.000 HD
ENDBRANCH   3  10
BRANCH   5  12
ATOM     12  C   UNL     1       6.605   4.578  18.068  0.00  0.00    +0.000 C 
BRANCH  12  13
ATOM     13  C   UNL     1       5.209   4.138  18.390  0.00  0.00    +0.000 A 
ATOM     14  C   UNL     1       4.378   3.279  17.699  0.00  0.00    +0.000 A 
ATOM     15  N   UNL     1       3.187   3.283  18.378  0.00  0.00    +0.000 N 
ATOM     16  C   UNL     1       1.989   2.638  18.078  0.00  0.00    +0.000 A 
ATOM     17  C   UNL     1       0.934   2.800  18.894  0.00  0.00    +0.000 A 
ATOM     18  C   UNL     1       1.081   3.632  20.077  0.00  0.00    +0.000 A 
ATOM     19  C   UNL     1       2.242   4.257  20.361  0.00  0.00    +0.000 A 
ATOM     20  C   UNL     1       3.356   4.109  19.485  0.00  0.00    +0.000 A 
ATOM     21  N   UNL     1       4.564   4.634  19.508  0.00  0.00    +0.000 NA
ENDBRANCH  12  13
ENDBRANCH   5  12
TORSDOF 5
ENDMDL
MODEL 3
REMARK VINA RESULT:      -7.0      1.861      2.416
REMARK  Name = 
REMARK  6 active torsions:
REMARK  status: ('A' for Active; 'I' for Inactive)
REMARK    1  A    between atoms: C_1  and  O_2
REMARK    2  A    between atoms: O_2  and  C_3
REMARK    3  A    between atoms: C_3  and  C_5
REMARK    4  A    between atoms: C_7  and  O_8
REMARK    5  A    between atoms: N_10  and  C_11
REMARK    6  A    between atoms: C_11  and  C_12
REMARK                            x       y       z     vdW  Elec       q    Type
REMARK                         _______ _______ _______ _____ _____    ______ ____
ROOT
ATOM      1  C   UNL     1       6.919   4.310  15.875  0.00  0.00    +0.000 C 
ATOM      2  C   UNL     1       7.336   4.903  14.531  0.00  0.00    +0.000 C 
ATOM      3  C   UNL     1       6.257   4.425  13.590  0.00  0.00    +0.000 C 
ATOM      4  C   UNL     1       5.000   4.501  14.448  0.00  0.00    +0.000 C 
ATOM      5  N   UNL     1       5.423   4.246  15.839  0.00  0.00    +0.000 NA
ENDROOT
BRANCH   1   6
ATOM      6  C   UNL     1       7.428   5.121  17.076  0.00  0.00    +0.000 C 
ATOM      7  O   UNL     1       7.717   4.664  18.173  0.00  0.00    +0.000 OA
BRANCH   6   9
ATOM      8  C   UNL     1       7.638   7.354  17.797  0.00  0.00    +0.000 C 
ATOM      9  O   UNL     1       7.623   6.426  16.711  0.00  0.00    +0.000 OA
ENDBRANCH   6   9
ENDBRANCH   1   6
BRANCH   3  10
ATOM     10  O   UNL     1       6.541   3.091  13.171  0.00  0.00    +0.000 OA
ATOM     11  H   UNL     1       5.714   2.581  13.196  0.00  0.00    +0.000 HD
ENDBRANCH   3  10
BRANCH   5  12
ATOM     12  C   UNL     1       4.950   2.964  16.388  0.00  0.00    +0.000 C 
BRANCH  12  13
ATOM     13  C   UNL     1       4.087   3.140  17.601  0.00  0.00    +0.000 A 
ATOM     14  C   UNL     1       3.321   2.210  18.276  0.00  0.00    +0.000 A 
ATOM     15  N   UNL     1       2.670   2.906  19.262  0.00  0.00    +0.000 N 
ATOM     16  C   UNL     1       1.729   2.464  20.189  0.00  0.00    +0.000 A 
ATOM     17  C   UNL     1       1.209   3.341  21.065  0.00  0.00    +0.000 A 
ATOM     18  C   UNL     1       1.659   4.724  21.027  0.00  0.00    +0.000 A 
ATOM     19  C   UNL     1       2.567   5.146  20.124  0.00  0.00    +0.000 A 
ATOM     20  C   UNL     1       3.102   4.225  19.177  0.00  0.00    +0.000 A 
ATOM     21  N   UNL     1       3.953   4.386  18.185  0.00  0.00    +0.000 NA
ENDBRANCH  12  13
ENDBRANCH   5  12
TORSDOF 5
ENDMDL
MODEL 4
REMARK VINA RESULT:      -6.9      1.868      2.286
REMARK  Name = 
REMARK  6 active torsions:
REMARK  status: ('A' for Active; 'I' for Inactive)
REMARK    1  A    between atoms: C_1  and  O_2
REMARK    2  A    between atoms: O_2  and  C_3
REMARK    3  A    between atoms: C_3  and  C_5
REMARK    4  A    between atoms: C_7  and  O_8
REMARK    5  A    between atoms: N_10  and  C_11
REMARK    6  A    between atoms: C_11  and  C_12
REMARK                            x       y       z     vdW  Elec       q    Type
REMARK                         _______ _______ _______ _____ _____    ______ ____
ROOT
ATOM      1  C   UNL     1       6.881   4.223  15.767  0.00  0.00    +0.000 C 
ATOM      2  C   UNL     1       7.368   4.757  14.421  0.00  0.00    +0.000 C 
ATOM      3  C   UNL     1       6.281   4.331  13.464  0.00  0.00    +0.000 C 
ATOM      4  C   UNL     1       5.012   4.511  14.290  0.00  0.00    +0.000 C 
ATOM      5  N   UNL     1       5.386   4.259  15.696  0.00  0.00    +0.000 NA
ENDROOT
BRANCH   1   6
ATOM      6  C   UNL     1       7.417   5.025  16.963  0.00  0.00    +0.000 C 
ATOM      7  O   UNL     1       7.696   4.565  18.061  0.00  0.00    +0.000 OA
BRANCH   6   9
ATOM      8  C   UNL     1       7.428   7.286  17.622  0.00  0.00    +0.000 C 
ATOM      9  O   UNL     1       7.647   6.323  16.591  0.00  0.00    +0.000 OA
ENDBRANCH   6   9
ENDBRANCH   1   6
BRANCH   3  10
ATOM     10  O   UNL     1       6.484   2.972  13.081  0.00  0.00    +0.000 OA
ATOM     11  H   UNL     1       5.614   2.544  13.007  0.00  0.00    +0.000 HD
ENDBRANCH   3  10
BRANCH   5  12
ATOM     12  C   UNL     1       4.814   3.024  16.259  0.00  0.00    +0.000 C 
BRANCH  12  13
ATOM     13  C   UNL     1       3.972   3.281  17.472  0.00  0.00    +0.000 A 
ATOM     14  C   UNL     1       3.947   4.380  18.307  0.00  0.00    +0.000 A 
ATOM     15  N   UNL     1       3.058   4.073  19.306  0.00  0.00    +0.000 N 
ATOM     16  C   UNL     1       2.703   4.805  20.437  0.00  0.00    +0.000 A 
ATOM     17  C   UNL     1       1.807   4.290  21.296  0.00  0.00    +0.000 A 
ATOM     18  C   UNL     1       1.221   2.991  21.007  0.00  0.00    +0.000 A 
ATOM     19  C   UNL     1       1.571   2.286  19.912  0.00  0.00    +0.000 A 
ATOM     20  C   UNL     1       2.541   2.815  19.012  0.00  0.00    +0.000 A 
ATOM     21  N   UNL     1       3.078   2.322  17.915  0.00  0.00    +0.000 NA
ENDBRANCH  12  13
ENDBRANCH   5  12
TORSDOF 5
ENDMDL
MODEL 5
REMARK VINA RESULT:      -6.9      3.176      4.703
REMARK  Name = 
REMARK  6 active torsions:
REMARK  status: ('A' for Active; 'I' for Inactive)
REMARK    1  A    between atoms: C_1  and  O_2
REMARK    2  A    between atoms: O_2  and  C_3
REMARK    3  A    between atoms: C_3  and  C_5
REMARK    4  A    between atoms: C_7  and  O_8
REMARK    5  A    between atoms: N_10  and  C_11
REMARK    6  A    between atoms: C_11  and  C_12
REMARK                            x       y       z     vdW  Elec       q    Type
REMARK                         _______ _______ _______ _____ _____    ______ ____
ROOT
ATOM      1  C   UNL     1       4.158   3.603  18.598  0.00  0.00    +0.000 C 
ATOM      2  C   UNL     1       3.805   2.400  17.725  0.00  0.00    +0.000 C 
ATOM      3  C   UNL     1       2.300   2.330  17.824  0.00  0.00    +0.000 C 
ATOM      4  C   UNL     1       1.891   3.798  17.837  0.00  0.00    +0.000 C 
ATOM      5  N   UNL     1       2.992   4.536  18.488  0.00  0.00    +0.000 NA
ENDROOT
BRANCH   1   6
ATOM      6  C   UNL     1       5.473   4.281  18.186  0.00  0.00    +0.000 C 
ATOM      7  O   UNL     1       6.477   4.369  18.880  0.00  0.00    +0.000 OA
BRANCH   6   9
ATOM      8  C   UNL     1       6.552   4.353  16.094  0.00  0.00    +0.000 C 
ATOM      9  O   UNL     1       5.405   4.680  16.878  0.00  0.00    +0.000 OA
ENDBRANCH   6   9
ENDBRANCH   1   6
BRANCH   3  10
ATOM     10  O   UNL     1       1.928   1.658  19.026  0.00  0.00    +0.000 OA
ATOM     11  H   UNL     1       1.562   0.789  18.789  0.00  0.00    +0.000 HD
ENDBRANCH   3  10
BRANCH   5  12
ATOM     12  C   UNL     1       2.648   5.088  19.810  0.00  0.00    +0.000 C 
BRANCH  12  13
ATOM     13  C   UNL     1       2.250   6.531  19.745  0.00  0.00    +0.000 A 
ATOM     14  C   UNL     1       1.645   7.320  20.704  0.00  0.00    +0.000 A 
ATOM     15  N   UNL     1       1.429   8.536  20.109  0.00  0.00    +0.000 N 
ATOM     16  C   UNL     1       0.797   9.672  20.609  0.00  0.00    +0.000 A 
ATOM     17  C   UNL     1       0.689  10.760  19.828  0.00  0.00    +0.000 A 
ATOM     18  C   UNL     1       1.253  10.723  18.489  0.00  0.00    +0.000 A 
ATOM     19  C   UNL     1       1.861   9.620  18.009  0.00  0.00    +0.000 A 
ATOM     20  C   UNL     1       1.955   8.454  18.823  0.00  0.00    +0.000 A 
ATOM     21  N   UNL     1       2.451   7.258  18.585  0.00  0.00    +0.000 NA
ENDBRANCH  12  13
ENDBRANCH   5  12
TORSDOF 5
ENDMDL
MODEL 6
REMARK VINA RESULT:      -6.8      2.058      3.272
REMARK  Name = 
REMARK  6 active torsions:
REMARK  status: ('A' for Active; 'I' for Inactive)
REMARK    1  A    between atoms: C_1  and  O_2
REMARK    2  A    between atoms: O_2  and  C_3
REMARK    3  A    between atoms: C_3  and  C_5
REMARK    4  A    between atoms: C_7  and  O_8
REMARK    5  A    between atoms: N_10  and  C_11
REMARK    6  A    between atoms: C_11  and  C_12
REMARK                            x       y       z     vdW  Elec       q    Type
REMARK                         _______ _______ _______ _____ _____    ______ ____
ROOT
ATOM      1  C   UNL     1       5.927   5.286  15.661  0.00  0.00    +0.000 C 
ATOM      2  C   UNL     1       5.103   6.541  15.380  0.00  0.00    +0.000 C 
ATOM      3  C   UNL     1       4.904   7.139  16.751  0.00  0.00    +0.000 C 
ATOM      4  C   UNL     1       6.236   6.867  17.439  0.00  0.00    +0.000 C 
ATOM      5  N   UNL     1       6.758   5.611  16.863  0.00  0.00    +0.000 NA
ENDROOT
BRANCH   1   6
ATOM      6  C   UNL     1       6.793   4.854  14.467  0.00  0.00    +0.000 C 
ATOM      7  O   UNL     1       7.802   5.425  14.077  0.00  0.00    +0.000 OA
BRANCH   6   9
ATOM      8  C   UNL     1       6.347   3.579  12.538  0.00  0.00    +0.000 C 
ATOM      9  O   UNL     1       6.338   3.665  13.964  0.00  0.00    +0.000 OA
ENDBRANCH   6   9
ENDBRANCH   1   6
BRANCH   3  10
ATOM     10  O   UNL     1       3.818   6.485  17.407  0.00  0.00    +0.000 OA
ATOM     11  H   UNL     1       3.989   6.497  18.365  0.00  0.00    +0.000 HD
ENDBRANCH   3  10
BRANCH   5  12
ATOM     12  C   UNL     1       6.768   4.477  17.803  0.00  0.00    +0.000 C 
BRANCH  12  13
ATOM     13  C   UNL     1       5.393   4.098  18.263  0.00  0.00    +0.000 A 
ATOM     14  C   UNL     1       4.793   4.294  19.492  0.00  0.00    +0.000 A 
ATOM     15  N   UNL     1       3.565   3.690  19.410  0.00  0.00    +0.000 N 
ATOM     16  C   UNL     1       2.581   3.539  20.384  0.00  0.00    +0.000 A 
ATOM     17  C   UNL     1       1.446   2.890  20.075  0.00  0.00    +0.000 A 
ATOM     18  C   UNL     1       1.273   2.379  18.725  0.00  0.00    +0.000 A 
ATOM     19  C   UNL     1       2.231   2.524  17.787  0.00  0.00    +0.000 A 
ATOM     20  C   UNL     1       3.447   3.189  18.117  0.00  0.00    +0.000 A 
ATOM     21  N   UNL     1       4.536   3.423  17.414  0.00  0.00    +0.000 NA
ENDBRANCH  12  13
ENDBRANCH   5  12
TORSDOF 5
ENDMDL
MODEL 7
REMARK VINA RESULT:      -6.8      2.361      3.292
REMARK  Name = 
REMARK  6 active torsions:
REMARK  status: ('A' for Active; 'I' for Inactive)
REMARK    1  A    between atoms: C_1  and  O_2
REMARK    2  A    between atoms: O_2  and  C_3
REMARK    3  A    between atoms: C_3  and  C_5
REMARK    4  A    between atoms: C_7  and  O_8
REMARK    5  A    between atoms: N_10  and  C_11
REMARK    6  A    between atoms: C_11  and  C_12
REMARK                            x       y       z     vdW  Elec       q    Type
REMARK                         _______ _______ _______ _____ _____    ______ ____
ROOT
ATOM      1  C   UNL     1       6.661   5.315  17.349  0.00  0.00    +0.000 C 
ATOM      2  C   UNL     1       7.378   4.801  16.103  0.00  0.00    +0.000 C 
ATOM      3  C   UNL     1       6.264   4.192  15.287  0.00  0.00    +0.000 C 
ATOM      4  C   UNL     1       5.101   5.146  15.534  0.00  0.00    +0.000 C 
ATOM      5  N   UNL     1       5.284   5.689  16.895  0.00  0.00    +0.000 NA
ENDROOT
BRANCH   1   6
ATOM      6  C   UNL     1       7.383   6.496  18.016  0.00  0.00    +0.000 C 
ATOM      7  O   UNL     1       8.074   6.431  19.023  0.00  0.00    +0.000 OA
BRANCH   6   9
ATOM      8  C   UNL     1       7.970   8.758  17.721  0.00  0.00    +0.000 C 
ATOM      9  O   UNL     1       7.237   7.625  17.255  0.00  0.00    +0.000 OA
ENDBRANCH   6   9
ENDBRANCH   1   6
BRANCH   3  10
ATOM     10  O   UNL     1       5.987   2.875  15.760  0.00  0.00    +0.000 OA
ATOM     11  H   UNL     1       6.597   2.258  15.319  0.00  0.00    +0.000 HD
ENDBRANCH   3  10
BRANCH   5  12
ATOM     12  C   UNL     1       4.278   5.227  17.867  0.00  0.00    +0.000 C 
BRANCH  12  13
ATOM     13  C   UNL     1       3.372   6.329  18.325  0.00  0.00    +0.000 A 
ATOM     14  C   UNL     1       2.945   7.455  17.647  0.00  0.00    +0.000 A 
ATOM     15  N   UNL     1       2.198   8.173  18.544  0.00  0.00    +0.000 N 
ATOM     16  C   UNL     1       1.584   9.415  18.399  0.00  0.00    +0.000 A 
ATOM     17  C   UNL     1       0.905   9.936  19.434  0.00  0.00    +0.000 A 
ATOM     18  C   UNL     1       0.817   9.177  20.672  0.00  0.00    +0.000 A 
ATOM     19  C   UNL     1       1.416   7.977  20.808  0.00  0.00    +0.000 A 
ATOM     20  C   UNL     1       2.160   7.431  19.721  0.00  0.00    +0.000 A 
ATOM     21  N   UNL     1       2.860   6.322  19.610  0.00  0.00    +0.000 NA
ENDBRANCH  12  13
ENDBRANCH   5  12
TORSDOF 5
ENDMDL
MODEL 8
REMARK VINA RESULT:      -6.8      3.167      4.743
REMARK  Name = 
REMARK  6 active torsions:
REMARK  status: ('A' for Active; 'I' for Inactive)
REMARK    1  A    between atoms: C_1  and  O_2
REMARK    2  A    between atoms: O_2  and  C_3
REMARK    3  A    between atoms: C_3  and  C_5
REMARK    4  A    between atoms: C_7  and  O_8
REMARK    5  A    between atoms: N_10  and  C_11
REMARK    6  A    between atoms: C_11  and  C_12
REMARK                            x       y       z     vdW  Elec       q    Type
REMARK                         _______ _______ _______ _____ _____    ______ ____
ROOT
ATOM      1  C   UNL     1       4.057   3.442  18.573  0.00  0.00    +0.000 C 
ATOM      2  C   UNL     1       3.560   2.242  17.769  0.00  0.00    +0.000 C 
ATOM      3  C   UNL     1       2.065   2.278  17.979  0.00  0.00    +0.000 C 
ATOM      4  C   UNL     1       1.757   3.771  17.973  0.00  0.00    +0.000 C 
ATOM      5  N   UNL     1       2.950   4.449  18.517  0.00  0.00    +0.000 NA
ENDROOT
BRANCH   1   6
ATOM      6  C   UNL     1       5.380   4.016  18.043  0.00  0.00    +0.000 C 
ATOM      7  O   UNL     1       5.600   4.346  16.885  0.00  0.00    +0.000 OA
BRANCH   6   9
ATOM      8  C   UNL     1       6.755   5.547  19.188  0.00  0.00    +0.000 C 
ATOM      9  O   UNL     1       6.253   4.215  19.078  0.00  0.00    +0.000 OA
ENDBRANCH   6   9
ENDBRANCH   1   6
BRANCH   3  10
ATOM     10  O   UNL     1       1.741   1.668  19.227  0.00  0.00    +0.000 OA
ATOM     11  H   UNL     1       2.270   2.097  19.922  0.00  0.00    +0.000 HD
ENDBRANCH   3  10
BRANCH   5  12
ATOM     12  C   UNL     1       2.744   5.061  19.841  0.00  0.00    +0.000 C 
BRANCH  12  13
ATOM     13  C   UNL     1       2.314   6.494  19.752  0.00  0.00    +0.000 A 
ATOM     14  C   UNL     1       1.688   7.284  20.696  0.00  0.00    +0.000 A 
ATOM     15  N   UNL     1       1.447   8.485  20.082  0.00  0.00    +0.000 N 
ATOM     16  C   UNL     1       0.787   9.614  20.562  0.00  0.00    +0.000 A 
ATOM     17  C   UNL     1       0.658  10.687  19.763  0.00  0.00    +0.000 A 
ATOM     18  C   UNL     1       1.228  10.643  18.426  0.00  0.00    +0.000 A 
ATOM     19  C   UNL     1       1.863   9.546  17.966  0.00  0.00    +0.000 A 
ATOM     20  C   UNL     1       1.980   8.395  18.799  0.00  0.00    +0.000 A 
ATOM     21  N   UNL     1       2.503   7.207  18.582  0.00  0.00    +0.000 NA
ENDBRANCH  12  13
ENDBRANCH   5  12
TORSDOF 5
ENDMDL
MODEL 9
REMARK VINA RESULT:      -6.8      1.466      2.100
REMARK  Name = 
REMARK  6 active torsions:
REMARK  status: ('A' for Active; 'I' for Inactive)
REMARK    1  A    between atoms: C_1  and  O_2
REMARK    2  A    between atoms: O_2  and  C_3
REMARK    3  A    between atoms: C_3  and  C_5
REMARK    4  A    between atoms: C_7  and  O_8
REMARK    5  A    between atoms: N_10  and  C_11
REMARK    6  A    between atoms: C_11  and  C_12
REMARK                            x       y       z     vdW  Elec       q    Type
REMARK                         _______ _______ _______ _____ _____    ______ ____
ROOT
ATOM      1  C   UNL     1       6.942   6.733  17.723  0.00  0.00    +0.000 C 
ATOM      2  C   UNL     1       7.816   5.746  18.496  0.00  0.00    +0.000 C 
ATOM      3  C   UNL     1       7.489   4.418  17.857  0.00  0.00    +0.000 C 
ATOM      4  C   UNL     1       7.329   4.779  16.385  0.00  0.00    +0.000 C 
ATOM      5  N   UNL     1       6.817   6.163  16.344  0.00  0.00    +0.000 NA
ENDROOT
BRANCH   1   6
ATOM      6  C   UNL     1       7.516   8.158  17.703  0.00  0.00    +0.000 C 
ATOM      7  O   UNL     1       7.056   9.101  17.075  0.00  0.00    +0.000 OA
BRANCH   6   9
ATOM      8  C   UNL     1       8.945   9.592  18.905  0.00  0.00    +0.000 C 
ATOM      9  O   UNL     1       8.559   8.256  18.584  0.00  0.00    +0.000 OA
ENDBRANCH   6   9
ENDBRANCH   1   6
BRANCH   3  10
ATOM     10  O   UNL     1       6.283   3.900  18.417  0.00  0.00    +0.000 OA
ATOM     11  H   UNL     1       6.255   4.144  19.358  0.00  0.00    +0.000 HD
ENDBRANCH   3  10
BRANCH   5  12
ATOM     12  C   UNL     1       5.429   6.277  15.864  0.00  0.00    +0.000 C 
BRANCH  12  13
ATOM     13  C   UNL     1       4.425   6.114  16.965  0.00  0.00    +0.000 A 
ATOM     14  C   UNL     1       3.898   7.061  17.821  0.00  0.00    +0.000 A 
ATOM     15  N   UNL     1       3.086   6.374  18.687  0.00  0.00    +0.000 N 
ATOM     16  C   UNL     1       2.362   6.836  19.783  0.00  0.00    +0.000 A 
ATOM     17  C   UNL     1       1.636   5.965  20.504  0.00  0.00    +0.000 A 
ATOM     18  C   UNL     1       1.616   4.566  20.105  0.00  0.00    +0.000 A 
ATOM     19  C   UNL     1       2.323   4.124  19.046  0.00  0.00    +0.000 A 
ATOM     20  C   UNL     1       3.115   5.040  18.293  0.00  0.00    +0.000 A 
ATOM     21  N   UNL     1       3.914   4.863  17.262  0.00  0.00    +0.000 NA
ENDBRANCH  12  13
ENDBRANCH   5  12
TORSDOF 5
ENDMDL
