MODEL 1
REMARK VINA RESULT:      -7.2      0.000      0.000
REMARK  Name = 
REMARK  3 active torsions:
REMARK  status: ('A' for Active; 'I' for Inactive)
REMARK    1  A    between atoms: C_1  and  N_2
REMARK    2  A    between atoms: C_6  and  C_7
REMARK    3  A    between atoms: C_16  and  C_17
REMARK                            x       y       z     vdW  Elec       q    Type
REMARK                         _______ _______ _______ _____ _____    ______ ____
ROOT
ATOM      1  C   UNL     1       3.631   1.135  18.906  0.00  0.00    +0.000 C 
ATOM      2  N   UNL     1       3.992   2.557  18.993  0.00  0.00    +0.000 N 
ATOM      3  C   UNL     1       3.530   3.067  20.240  0.00  0.00    +0.000 C 
ATOM      4  O   UNL     1       3.488   2.471  21.315  0.00  0.00    +0.000 OA
ATOM      5  O   UNL     1       3.068   4.326  20.102  0.00  0.00    +0.000 OA
ATOM      6  C   UNL     1       3.774   4.805  18.978  0.00  0.00    +0.000 C 
ATOM      7  C   UNL     1       5.243   5.082  19.519  0.00  0.00    +0.000 C 
ATOM      8  C   UNL     1       3.080   6.036  18.433  0.00  0.00    +0.000 C 
ATOM      9  C   UNL     1       4.021   6.699  17.474  0.00  0.00    +0.000 C 
ATOM     10  C   UNL     1       4.724   5.676  16.587  0.00  0.00    +0.000 A 
ATOM     11  C   UNL     1       5.482   6.265  15.556  0.00  0.00    +0.000 A 
ATOM     12  C   UNL     1       6.148   5.477  14.638  0.00  0.00    +0.000 A 
ATOM     13  C   UNL     1       6.078   4.080  14.784  0.00  0.00    +0.000 A 
ATOM     14  C   UNL     1       5.360   3.465  15.836  0.00  0.00    +0.000 A 
ATOM     15  C   UNL     1       4.697   4.232  16.812  0.00  0.00    +0.000 A 
ATOM     16  C   UNL     1       3.752   3.638  17.944  0.00  0.00    +0.000 C 
ATOM     17  C   UNL     1       2.469   3.248  17.177  0.00  0.00    +0.000 C 
ENDROOT
TORSDOF 0
ENDMDL
MODEL 2
REMARK VINA RESULT:      -7.1      1.071      1.076
REMARK  Name = 
REMARK  3 active torsions:
REMARK  status: ('A' for Active; 'I' for Inactive)
REMARK    1  A    between atoms: C_1  and  N_2
REMARK    2  A    between atoms: C_6  and  C_7
REMARK    3  A    between atoms: C_16  and  C_17
REMARK                            x       y       z     vdW  Elec       q    Type
REMARK                         _______ _______ _______ _____ _____    ______ ____
ROOT
ATOM      1  C   UNL     1       2.229   2.012  19.392  0.00  0.00    +0.000 C 
ATOM      2  N   UNL     1       2.890   3.326  19.391  0.00  0.00    +0.000 N 
ATOM      3  C   UNL     1       2.500   4.030  20.565  0.00  0.00    +0.000 C 
ATOM      4  O   UNL     1       2.284   3.555  21.678  0.00  0.00    +0.000 OA
ATOM      5  O   UNL     1       2.332   5.342  20.303  0.00  0.00    +0.000 OA
ATOM      6  C   UNL     1       3.172   5.557  19.190  0.00  0.00    +0.000 C 
ATOM      7  C   UNL     1       4.643   5.558  19.794  0.00  0.00    +0.000 C 
ATOM      8  C   UNL     1       2.788   6.855  18.512  0.00  0.00    +0.000 C 
ATOM      9  C   UNL     1       3.891   7.213  17.562  0.00  0.00    +0.000 C 
ATOM     10  C   UNL     1       4.387   5.988  16.800  0.00  0.00    +0.000 A 
ATOM     11  C   UNL     1       5.299   6.307  15.773  0.00  0.00    +0.000 A 
ATOM     12  C   UNL     1       5.812   5.316  14.960  0.00  0.00    +0.000 A 
ATOM     13  C   UNL     1       5.430   3.985  15.208  0.00  0.00    +0.000 A 
ATOM     14  C   UNL     1       4.552   3.635  16.260  0.00  0.00    +0.000 A 
ATOM     15  C   UNL     1       4.035   4.610  17.133  0.00  0.00    +0.000 A 
ATOM     16  C   UNL     1       2.937   4.336  18.249  0.00  0.00    +0.000 C 
ATOM     17  C   UNL     1       1.632   4.165  17.440  0.00  0.00    +0.000 C 
ENDROOT
TORSDOF 0
ENDMDL
MODEL 3
REMARK VINA RESULT:      -6.9      1.857      2.156
REMARK  Name = 
REMARK  3 active torsions:
REMARK  status: ('A' for Active; 'I' for Inactive)
REMARK    1  A    between atoms: C_1  and  N_2
REMARK    2  A    between atoms: C_6  and  C_7
REMARK    3  A    between atoms: C_16  and  C_17
REMARK                            x       y       z     vdW  Elec       q    Type
REMARK                         _______ _______ _______ _____ _____    ______ ____
ROOT
ATOM      1  C   UNL     1       4.480   1.645  20.828  0.00  0.00    +0.000 C 
ATOM      2  N   UNL     1       3.742   2.872  20.497  0.00  0.00    +0.000 N 
ATOM      3  C   UNL     1       2.409   2.745  20.981  0.00  0.00    +0.000 C 
ATOM      4  O   UNL     1       2.045   2.177  22.009  0.00  0.00    +0.000 OA
ATOM      5  O   UNL     1       1.531   3.298  20.121  0.00  0.00    +0.000 OA
ATOM      6  C   UNL     1       2.307   4.266  19.449  0.00  0.00    +0.000 C 
ATOM      7  C   UNL     1       2.475   5.444  20.504  0.00  0.00    +0.000 C 
ATOM      8  C   UNL     1       1.602   4.682  18.174  0.00  0.00    +0.000 C 
ATOM      9  C   UNL     1       2.271   5.925  17.672  0.00  0.00    +0.000 C 
ATOM     10  C   UNL     1       3.788   5.828  17.793  0.00  0.00    +0.000 A 
ATOM     11  C   UNL     1       4.463   6.899  17.172  0.00  0.00    +0.000 A 
ATOM     12  C   UNL     1       5.843   6.941  17.155  0.00  0.00    +0.000 A 
ATOM     13  C   UNL     1       6.550   5.911  17.801  0.00  0.00    +0.000 A 
ATOM     14  C   UNL     1       5.896   4.850  18.469  0.00  0.00    +0.000 A 
ATOM     15  C   UNL     1       4.492   4.788  18.541  0.00  0.00    +0.000 A 
ATOM     16  C   UNL     1       3.668   3.570  19.141  0.00  0.00    +0.000 C 
ATOM     17  C   UNL     1       3.801   2.473  18.061  0.00  0.00    +0.000 C 
ENDROOT
TORSDOF 0
ENDMDL
MODEL 4
REMARK VINA RESULT:      -6.7      1.680      1.763
REMARK  Name = 
REMARK  3 active torsions:
REMARK  status: ('A' for Active; 'I' for Inactive)
REMARK    1  A    between atoms: C_1  and  N_2
REMARK    2  A    between atoms: C_6  and  C_7
REMARK    3  A    between atoms: C_16  and  C_17
REMARK                            x       y       z     vdW  Elec       q    Type
REMARK                         _______ _______ _______ _____ _____    ______ ____
ROOT
ATOM      1  C   UNL     1       3.639   1.388  18.908  0.00  0.00    +0.000 C 
ATOM      2  N   UNL     1       3.476   2.835  19.111  0.00  0.00    +0.000 N 
ATOM      3  C   UNL     1       2.169   3.078  19.620  0.00  0.00    +0.000 C 
ATOM      4  O   UNL     1       1.531   2.366  20.394  0.00  0.00    +0.000 OA
ATOM      5  O   UNL     1       1.652   4.207  19.096  0.00  0.00    +0.000 OA
ATOM      6  C   UNL     1       2.798   4.961  18.767  0.00  0.00    +0.000 C 
ATOM      7  C   UNL     1       3.337   5.498  20.163  0.00  0.00    +0.000 C 
ATOM      8  C   UNL     1       2.417   6.058  17.794  0.00  0.00    +0.000 C 
ATOM      9  C   UNL     1       3.560   7.024  17.731  0.00  0.00    +0.000 C 
ATOM     10  C   UNL     1       4.901   6.297  17.686  0.00  0.00    +0.000 A 
ATOM     11  C   UNL     1       5.990   7.160  17.450  0.00  0.00    +0.000 A 
ATOM     12  C   UNL     1       7.271   6.655  17.338  0.00  0.00    +0.000 A 
ATOM     13  C   UNL     1       7.459   5.271  17.502  0.00  0.00    +0.000 A 
ATOM     14  C   UNL     1       6.388   4.391  17.784  0.00  0.00    +0.000 A 
ATOM     15  C   UNL     1       5.074   4.869  17.941  0.00  0.00    +0.000 A 
ATOM     16  C   UNL     1       3.790   3.949  18.117  0.00  0.00    +0.000 C 
ATOM     17  C   UNL     1       3.561   3.371  16.702  0.00  0.00    +0.000 C 
ENDROOT
TORSDOF 0
ENDMDL
MODEL 5
REMARK VINA RESULT:      -6.7      2.693      4.383
REMARK  Name = 
REMARK  3 active torsions:
REMARK  status: ('A' for Active; 'I' for Inactive)
REMARK    1  A    between atoms: C_1  and  N_2
REMARK    2  A    between atoms: C_6  and  C_7
REMARK    3  A    between atoms: C_16  and  C_17
REMARK                            x       y       z     vdW  Elec       q    Type
REMARK                         _______ _______ _______ _____ _____    ______ ____
ROOT
ATOM      1  C   UNL     1       7.886   4.487  17.796  0.00  0.00    +0.000 C 
ATOM      2  N   UNL     1       6.641   5.126  17.346  0.00  0.00    +0.000 N 
ATOM      3  C   UNL     1       6.935   6.457  16.938  0.00  0.00    +0.000 C 
ATOM      4  O   UNL     1       7.957   6.853  16.379  0.00  0.00    +0.000 OA
ATOM      5  O   UNL     1       5.944   7.299  17.294  0.00  0.00    +0.000 OA
ATOM      6  C   UNL     1       4.815   6.455  17.358  0.00  0.00    +0.000 C 
ATOM      7  C   UNL     1       4.440   6.175  15.838  0.00  0.00    +0.000 C 
ATOM      8  C   UNL     1       3.717   7.141  18.144  0.00  0.00    +0.000 C 
ATOM      9  C   UNL     1       2.449   6.379  17.908  0.00  0.00    +0.000 C 
ATOM     10  C   UNL     1       2.689   4.873  17.949  0.00  0.00    +0.000 A 
ATOM     11  C   UNL     1       1.497   4.121  17.908  0.00  0.00    +0.000 A 
ATOM     12  C   UNL     1       1.536   2.742  17.980  0.00  0.00    +0.000 A 
ATOM     13  C   UNL     1       2.792   2.114  18.057  0.00  0.00    +0.000 A 
ATOM     14  C   UNL     1       4.004   2.844  18.054  0.00  0.00    +0.000 A 
ATOM     15  C   UNL     1       4.009   4.247  17.947  0.00  0.00    +0.000 A 
ATOM     16  C   UNL     1       5.303   5.161  18.078  0.00  0.00    +0.000 C 
ATOM     17  C   UNL     1       5.615   5.135  19.591  0.00  0.00    +0.000 C 
ENDROOT
TORSDOF 0
ENDMDL
MODEL 6
REMARK VINA RESULT:      -6.7      1.779      2.949
REMARK  Name = 
REMARK  3 active torsions:
REMARK  status: ('A' for Active; 'I' for Inactive)
REMARK    1  A    between atoms: C_1  and  N_2
REMARK    2  A    between atoms: C_6  and  C_7
REMARK    3  A    between atoms: C_16  and  C_17
REMARK                            x       y       z     vdW  Elec       q    Type
REMARK                         _______ _______ _______ _____ _____    ______ ____
ROOT
ATOM      1  C   UNL     1       2.712   3.555  21.660  0.00  0.00    +0.000 C 
ATOM      2  N   UNL     1       2.752   4.061  20.280  0.00  0.00    +0.000 N 
ATOM      3  C   UNL     1       1.491   3.814  19.669  0.00  0.00    +0.000 C 
ATOM      4  O   UNL     1       0.386   3.851  20.208  0.00  0.00    +0.000 OA
ATOM      5  O   UNL     1       1.644   3.464  18.376  0.00  0.00    +0.000 OA
ATOM      6  C   UNL     1       2.872   4.065  18.025  0.00  0.00    +0.000 C 
ATOM      7  C   UNL     1       2.531   5.611  17.879  0.00  0.00    +0.000 C 
ATOM      8  C   UNL     1       3.399   3.431  16.755  0.00  0.00    +0.000 C 
ATOM      9  C   UNL     1       4.502   4.302  16.238  0.00  0.00    +0.000 C 
ATOM     10  C   UNL     1       5.407   4.782  17.368  0.00  0.00    +0.000 A 
ATOM     11  C   UNL     1       6.556   5.458  16.909  0.00  0.00    +0.000 A 
ATOM     12  C   UNL     1       7.501   5.921  17.804  0.00  0.00    +0.000 A 
ATOM     13  C   UNL     1       7.267   5.733  19.178  0.00  0.00    +0.000 A 
ATOM     14  C   UNL     1       6.100   5.098  19.666  0.00  0.00    +0.000 A 
ATOM     15  C   UNL     1       5.097   4.644  18.789  0.00  0.00    +0.000 A 
ATOM     16  C   UNL     1       3.826   3.797  19.229  0.00  0.00    +0.000 C 
ATOM     17  C   UNL     1       4.406   2.394  19.518  0.00  0.00    +0.000 C 
ENDROOT
TORSDOF 0
ENDMDL
MODEL 7
REMARK VINA RESULT:      -6.5      2.443      4.676
REMARK  Name = 
REMARK  3 active torsions:
REMARK  status: ('A' for Active; 'I' for Inactive)
REMARK    1  A    between atoms: C_1  and  N_2
REMARK    2  A    between atoms: C_6  and  C_7
REMARK    3  A    between atoms: C_16  and  C_17
REMARK                            x       y       z     vdW  Elec       q    Type
REMARK                         _______ _______ _______ _____ _____    ______ ____
ROOT
ATOM      1  C   UNL     1       5.486   4.138  15.727  0.00  0.00    +0.000 C 
ATOM      2  N   UNL     1       4.530   4.924  16.520  0.00  0.00    +0.000 N 
ATOM      3  C   UNL     1       4.927   6.290  16.486  0.00  0.00    +0.000 C 
ATOM      4  O   UNL     1       5.443   6.890  15.544  0.00  0.00    +0.000 OA
ATOM      5  O   UNL     1       4.717   6.881  17.680  0.00  0.00    +0.000 OA
ATOM      6  C   UNL     1       3.671   6.114  18.236  0.00  0.00    +0.000 C 
ATOM      7  C   UNL     1       2.373   6.573  17.442  0.00  0.00    +0.000 C 
ATOM      8  C   UNL     1       3.598   6.368  19.728  0.00  0.00    +0.000 C 
ATOM      9  C   UNL     1       2.296   5.814  20.218  0.00  0.00    +0.000 C 
ATOM     10  C   UNL     1       1.996   4.458  19.587  0.00  0.00    +0.000 A 
ATOM     11  C   UNL     1       0.871   3.822  20.151  0.00  0.00    +0.000 A 
ATOM     12  C   UNL     1       0.488   2.566  19.721  0.00  0.00    +0.000 A 
ATOM     13  C   UNL     1       1.225   1.962  18.687  0.00  0.00    +0.000 A 
ATOM     14  C   UNL     1       2.330   2.599  18.074  0.00  0.00    +0.000 A 
ATOM     15  C   UNL     1       2.731   3.892  18.459  0.00  0.00    +0.000 A 
ATOM     16  C   UNL     1       4.037   4.629  17.933  0.00  0.00    +0.000 C 
ATOM     17  C   UNL     1       5.185   3.902  18.669  0.00  0.00    +0.000 C 
ENDROOT
TORSDOF 0
ENDMDL
MODEL 8
REMARK VINA RESULT:      -6.5      2.995      4.839
REMARK  Name = 
REMARK  3 active torsions:
REMARK  status: ('A' for Active; 'I' for Inactive)
REMARK    1  A    between atoms: C_1  and  N_2
REMARK    2  A    between atoms: C_6  and  C_7
REMARK    3  A    between atoms: C_16  and  C_17
REMARK                            x       y       z     vdW  Elec       q    Type
REMARK                         _______ _______ _______ _____ _____    ______ ____
ROOT
ATOM      1  C   UNL     1       5.387   4.012  13.740  0.00  0.00    +0.000 C 
ATOM      2  N   UNL     1       5.723   4.778  14.948  0.00  0.00    +0.000 N 
ATOM      3  C   UNL     1       7.084   5.188  14.862  0.00  0.00    +0.000 C 
ATOM      4  O   UNL     1       7.697   5.516  13.847  0.00  0.00    +0.000 OA
ATOM      5  O   UNL     1       7.681   5.125  16.069  0.00  0.00    +0.000 OA
ATOM      6  C   UNL     1       6.604   5.274  16.967  0.00  0.00    +0.000 C 
ATOM      7  C   UNL     1       6.235   6.819  16.895  0.00  0.00    +0.000 C 
ATOM      8  C   UNL     1       7.029   4.810  18.345  0.00  0.00    +0.000 C 
ATOM      9  C   UNL     1       5.998   5.287  19.322  0.00  0.00    +0.000 C 
ATOM     10  C   UNL     1       4.585   5.098  18.776  0.00  0.00    +0.000 A 
ATOM     11  C   UNL     1       3.583   5.370  19.729  0.00  0.00    +0.000 A 
ATOM     12  C   UNL     1       2.249   5.207  19.408  0.00  0.00    +0.000 A 
ATOM     13  C   UNL     1       1.923   4.800  18.102  0.00  0.00    +0.000 A 
ATOM     14  C   UNL     1       2.908   4.565  17.115  0.00  0.00    +0.000 A 
ATOM     15  C   UNL     1       4.275   4.754  17.390  0.00  0.00    +0.000 A 
ATOM     16  C   UNL     1       5.459   4.381  16.398  0.00  0.00    +0.000 C 
ATOM     17  C   UNL     1       5.515   2.839  16.462  0.00  0.00    +0.000 C 
ENDROOT
TORSDOF 0
ENDMDL
MODEL 9
REMARK VINA RESULT:      -6.4      2.546      4.700
REMARK  Name = 
REMARK  3 active torsions:
REMARK  status: ('A' for Active; 'I' for Inactive)
REMARK    1  A    between atoms: C_1  and  N_2
REMARK    2  A    between atoms: C_6  and  C_7
REMARK    3  A    between atoms: C_16  and  C_17
REMARK                            x       y       z     vdW  Elec       q    Type
REMARK                         _______ _______ _______ _____ _____    ______ ____
ROOT
ATOM      1  C   UNL     1       8.018   4.364  17.818  0.00  0.00    +0.000 C 
ATOM      2  N   UNL     1       6.631   4.541  17.361  0.00  0.00    +0.000 N 
ATOM      3  C   UNL     1       6.632   5.409  16.234  0.00  0.00    +0.000 C 
ATOM      4  O   UNL     1       7.486   5.479  15.351  0.00  0.00    +0.000 OA
ATOM      5  O   UNL     1       5.565   6.233  16.262  0.00  0.00    +0.000 OA
ATOM      6  C   UNL     1       4.620   5.506  17.016  0.00  0.00    +0.000 C 
ATOM      7  C   UNL     1       4.101   4.377  16.024  0.00  0.00    +0.000 C 
ATOM      8  C   UNL     1       3.532   6.444  17.499  0.00  0.00    +0.000 C 
ATOM      9  C   UNL     1       2.397   5.602  17.996  0.00  0.00    +0.000 C 
ATOM     10  C   UNL     1       2.899   4.415  18.812  0.00  0.00    +0.000 A 
ATOM     11  C   UNL     1       1.863   3.699  19.444  0.00  0.00    +0.000 A 
ATOM     12  C   UNL     1       2.151   2.620  20.256  0.00  0.00    +0.000 A 
ATOM     13  C   UNL     1       3.497   2.237  20.404  0.00  0.00    +0.000 A 
ATOM     14  C   UNL     1       4.551   2.912  19.745  0.00  0.00    +0.000 A 
ATOM     15  C   UNL     1       4.297   3.994  18.881  0.00  0.00    +0.000 A 
ATOM     16  C   UNL     1       5.417   4.901  18.212  0.00  0.00    +0.000 C 
ATOM     17  C   UNL     1       5.926   5.772  19.381  0.00  0.00    +0.000 C 
ENDROOT
TORSDOF 0
ENDMDL
