MODEL 1
REMARK VINA RESULT:      -6.9      0.000      0.000
REMARK  Name = 
REMARK  4 active torsions:
REMARK  status: ('A' for Active; 'I' for Inactive)
REMARK    1  A    between atoms: N_1  and  C_2
REMARK    2  A    between atoms: N_5  and  C_6
REMARK    3  A    between atoms: C_15  and  C_16
REMARK    4  A    between atoms: C_16  and  O_18
REMARK                            x       y       z     vdW  Elec       q    Type
REMARK                         _______ _______ _______ _____ _____    ______ ____
ROOT
ATOM      1  C   UNL     1      -4.597  11.464  18.545  0.00  0.00    +0.000 A 
ATOM      2  N   UNL     1      -3.885  12.206  19.450  0.00  0.00    +0.000 NA
ATOM      3  C   UNL     1      -4.459  12.848  20.515  0.00  0.00    +0.000 A 
ATOM      4  C   UNL     1      -5.857  12.739  20.694  0.00  0.00    +0.000 A 
ATOM      5  C   UNL     1      -6.606  11.983  19.782  0.00  0.00    +0.000 A 
ATOM      6  C   UNL     1      -5.991  11.351  18.713  0.00  0.00    +0.000 A 
ATOM      7  F   UNL     1      -6.776  10.645  17.864  0.00  0.00    +0.000 F 
ATOM      8  C   UNL     1      -6.480  13.384  21.771  0.00  0.00    +0.000 A 
ATOM      9  O   UNL     1      -7.689  13.285  21.915  0.00  0.00    +0.000 OA
ATOM     10  C   UNL     1      -5.715  14.141  22.677  0.00  0.00    +0.000 A 
ATOM     11  C   UNL     1      -4.327  14.217  22.461  0.00  0.00    +0.000 A 
ATOM     12  N   UNL     1      -3.706  13.588  21.407  0.00  0.00    +0.000 N 
ATOM     13  C   UNL     1      -2.262  13.742  21.276  0.00  0.00    +0.000 A 
ATOM     14  N   UNL     1      -1.527  13.234  20.252  0.00  0.00    +0.000 NA
ATOM     15  C   UNL     1      -0.208  13.547  20.377  0.00  0.00    +0.000 A 
ATOM     16  C   UNL     1       0.788  13.170  19.472  0.00  0.00    +0.000 A 
ATOM     17  C   UNL     1       2.115  13.568  19.720  0.00  0.00    +0.000 A 
ATOM     18  C   UNL     1       2.434  14.329  20.862  0.00  0.00    +0.000 A 
ATOM     19  C   UNL     1       1.427  14.702  21.766  0.00  0.00    +0.000 A 
ATOM     20  C   UNL     1       0.123  14.298  21.494  0.00  0.00    +0.000 A 
ATOM     21  S   UNL     1      -1.267  14.597  22.371  0.00  0.00    +0.000 S 
ENDROOT
BRANCH   1  25
ATOM     22  C   UNL     1      -3.430  10.070  15.304  0.00  0.00    +0.000 C 
ATOM     23  C   UNL     1      -2.289   9.686  16.222  0.00  0.00    +0.000 C 
ATOM     24  C   UNL     1      -2.968   9.734  17.584  0.00  0.00    +0.000 C 
ATOM     25  N   UNL     1      -3.918  10.825  17.457  0.00  0.00    +0.000 N 
ATOM     26  C   UNL     1      -4.096  11.213  16.075  0.00  0.00    +0.000 C 
BRANCH  22  27
ATOM     27  N   UNL     1      -3.002  10.456  13.961  0.00  0.00    +0.000 NA
ATOM     28  H   UNL     1      -3.588   9.945  13.262  0.00  0.00    +0.000 HD
ATOM     29  H   UNL     1      -2.006  10.175  13.812  0.00  0.00    +0.000 HD
ENDBRANCH  22  27
ENDBRANCH   1  25
BRANCH  10  30
ATOM     30  C   UNL     1      -6.370  14.851  23.836  0.00  0.00    +0.000 C 
ATOM     31  O   UNL     1      -6.014  15.981  24.135  0.00  0.00    +0.000 OA
BRANCH  30  32
ATOM     32  O   UNL     1      -7.350  14.293  24.583  0.00  0.00    +0.000 OA
ATOM     33  H   UNL     1      -8.095  13.788  24.241  0.00  0.00    +0.000 HD
ENDBRANCH  30  32
ENDBRANCH  10  30
TORSDOF 4
ENDMDL
MODEL 2
REMARK VINA RESULT:      -6.7      0.967      1.110
REMARK  Name = 
REMARK  4 active torsions:
REMARK  status: ('A' for Active; 'I' for Inactive)
REMARK    1  A    between atoms: N_1  and  C_2
REMARK    2  A    between atoms: N_5  and  C_6
REMARK    3  A    between atoms: C_15  and  C_16
REMARK    4  A    between atoms: C_16  and  O_18
REMARK                            x       y       z     vdW  Elec       q    Type
REMARK                         _______ _______ _______ _____ _____    ______ ____
ROOT
ATOM      1  C   UNL     1      -4.152  11.526  18.500  0.00  0.00    +0.000 A 
ATOM      2  N   UNL     1      -3.272  12.265  19.245  0.00  0.00    +0.000 NA
ATOM      3  C   UNL     1      -3.629  12.938  20.383  0.00  0.00    +0.000 A 
ATOM      4  C   UNL     1      -4.974  12.867  20.814  0.00  0.00    +0.000 A 
ATOM      5  C   UNL     1      -5.892  12.116  20.069  0.00  0.00    +0.000 A 
ATOM      6  C   UNL     1      -5.495  11.451  18.919  0.00  0.00    +0.000 A 
ATOM      7  F   UNL     1      -6.436  10.751  18.241  0.00  0.00    +0.000 F 
ATOM      8  C   UNL     1      -5.377  13.546  21.972  0.00  0.00    +0.000 A 
ATOM      9  O   UNL     1      -6.541  13.480  22.335  0.00  0.00    +0.000 OA
ATOM     10  C   UNL     1      -4.444  14.299  22.709  0.00  0.00    +0.000 A 
ATOM     11  C   UNL     1      -3.116  14.335  22.244  0.00  0.00    +0.000 A 
ATOM     12  N   UNL     1      -2.711  13.674  21.109  0.00  0.00    +0.000 N 
ATOM     13  C   UNL     1      -1.311  13.789  20.716  0.00  0.00    +0.000 A 
ATOM     14  N   UNL     1      -0.786  13.246  19.586  0.00  0.00    +0.000 NA
ATOM     15  C   UNL     1       0.541  13.528  19.464  0.00  0.00    +0.000 A 
ATOM     16  C   UNL     1       1.347  13.112  18.402  0.00  0.00    +0.000 A 
ATOM     17  C   UNL     1       2.705  13.480  18.397  0.00  0.00    +0.000 A 
ATOM     18  C   UNL     1       3.243  14.252  19.447  0.00  0.00    +0.000 A 
ATOM     19  C   UNL     1       2.425  14.664  20.510  0.00  0.00    +0.000 A 
ATOM     20  C   UNL     1       1.085  14.289  20.487  0.00  0.00    +0.000 A 
ATOM     21  S   UNL     1      -0.117  14.637  21.595  0.00  0.00    +0.000 S 
ENDROOT
BRANCH   1  25
ATOM     22  C   UNL     1      -3.617  10.060  15.127  0.00  0.00    +0.000 C 
ATOM     23  C   UNL     1      -2.348   9.642  15.839  0.00  0.00    +0.000 C 
ATOM     24  C   UNL     1      -2.777   9.728  17.297  0.00  0.00    +0.000 C 
ATOM     25  N   UNL     1      -3.696  10.853  17.320  0.00  0.00    +0.000 N 
ATOM     26  C   UNL     1      -4.098  11.235  15.984  0.00  0.00    +0.000 C 
BRANCH  22  27
ATOM     27  N   UNL     1      -3.416  10.418  13.725  0.00  0.00    +0.000 NA
ATOM     28  H   UNL     1      -2.593   9.887  13.357  0.00  0.00    +0.000 HD
ATOM     29  H   UNL     1      -3.201  11.438  13.646  0.00  0.00    +0.000 HD
ENDBRANCH  22  27
ENDBRANCH   1  25
BRANCH  10  30
ATOM     30  C   UNL     1      -4.862  15.044  23.953  0.00  0.00    +0.000 C 
ATOM     31  O   UNL     1      -4.016  15.416  24.750  0.00  0.00    +0.000 OA
BRANCH  30  32
ATOM     32  O   UNL     1      -6.154  15.326  24.243  0.00  0.00    +0.000 OA
ATOM     33  H   UNL     1      -6.844  15.511  23.598  0.00  0.00    +0.000 HD
ENDBRANCH  30  32
ENDBRANCH  10  30
TORSDOF 4
ENDMDL
MODEL 3
REMARK VINA RESULT:      -6.3      2.970      4.571
REMARK  Name = 
REMARK  4 active torsions:
REMARK  status: ('A' for Active; 'I' for Inactive)
REMARK    1  A    between atoms: N_1  and  C_2
REMARK    2  A    between atoms: N_5  and  C_6
REMARK    3  A    between atoms: C_15  and  C_16
REMARK    4  A    between atoms: C_16  and  O_18
REMARK                            x       y       z     vdW  Elec       q    Type
REMARK                         _______ _______ _______ _____ _____    ______ ____
ROOT
ATOM      1  C   UNL     1      -5.511  13.678  21.424  0.00  0.00    +0.000 A 
ATOM      2  N   UNL     1      -4.172  13.399  21.505  0.00  0.00    +0.000 NA
ATOM      3  C   UNL     1      -3.354  13.916  22.474  0.00  0.00    +0.000 A 
ATOM      4  C   UNL     1      -3.917  14.778  23.443  0.00  0.00    +0.000 A 
ATOM      5  C   UNL     1      -5.284  15.075  23.381  0.00  0.00    +0.000 A 
ATOM      6  C   UNL     1      -6.081  14.538  22.383  0.00  0.00    +0.000 A 
ATOM      7  F   UNL     1      -7.394  14.874  22.376  0.00  0.00    +0.000 F 
ATOM      8  C   UNL     1      -3.109  15.327  24.448  0.00  0.00    +0.000 A 
ATOM      9  O   UNL     1      -3.605  16.073  25.279  0.00  0.00    +0.000 OA
ATOM     10  C   UNL     1      -1.737  15.022  24.495  0.00  0.00    +0.000 A 
ATOM     11  C   UNL     1      -1.223  14.155  23.513  0.00  0.00    +0.000 A 
ATOM     12  N   UNL     1      -2.006  13.611  22.523  0.00  0.00    +0.000 N 
ATOM     13  C   UNL     1      -1.365  12.732  21.552  0.00  0.00    +0.000 A 
ATOM     14  N   UNL     1      -1.998  12.177  20.485  0.00  0.00    +0.000 NA
ATOM     15  C   UNL     1      -1.151  11.416  19.739  0.00  0.00    +0.000 A 
ATOM     16  C   UNL     1      -1.515  10.729  18.577  0.00  0.00    +0.000 A 
ATOM     17  C   UNL     1      -0.535   9.982  17.897  0.00  0.00    +0.000 A 
ATOM     18  C   UNL     1       0.788   9.925  18.380  0.00  0.00    +0.000 A 
ATOM     19  C   UNL     1       1.143  10.618  19.549  0.00  0.00    +0.000 A 
ATOM     20  C   UNL     1       0.154  11.351  20.200  0.00  0.00    +0.000 A 
ATOM     21  S   UNL     1       0.281  12.274  21.587  0.00  0.00    +0.000 S 
ENDROOT
BRANCH   1  25
ATOM     22  C   UNL     1      -7.405  12.834  18.340  0.00  0.00    +0.000 C 
ATOM     23  C   UNL     1      -7.541  11.551  19.134  0.00  0.00    +0.000 C 
ATOM     24  C   UNL     1      -7.284  12.045  20.551  0.00  0.00    +0.000 C 
ATOM     25  N   UNL     1      -6.297  13.096  20.377  0.00  0.00    +0.000 N 
ATOM     26  C   UNL     1      -6.182  13.488  18.989  0.00  0.00    +0.000 C 
BRANCH  22  27
ATOM     27  N   UNL     1      -7.248  12.623  16.903  0.00  0.00    +0.000 NA
ATOM     28  H   UNL     1      -6.228  12.611  16.674  0.00  0.00    +0.000 HD
ATOM     29  H   UNL     1      -7.686  13.414  16.378  0.00  0.00    +0.000 HD
ENDBRANCH  22  27
ENDBRANCH   1  25
BRANCH  10  30
ATOM     30  C   UNL     1      -0.850  15.613  25.564  0.00  0.00    +0.000 C 
ATOM     31  O   UNL     1       0.210  16.134  25.253  0.00  0.00    +0.000 OA
BRANCH  30  32
ATOM     32  O   UNL     1      -1.169  15.593  26.879  0.00  0.00    +0.000 OA
ATOM     33  H   UNL     1      -1.079  14.835  27.465  0.00  0.00    +0.000 HD
ENDBRANCH  30  32
ENDBRANCH  10  30
TORSDOF 4
ENDMDL
MODEL 4
REMARK VINA RESULT:      -6.3      3.014      4.871
REMARK  Name = 
REMARK  4 active torsions:
REMARK  status: ('A' for Active; 'I' for Inactive)
REMARK    1  A    between atoms: N_1  and  C_2
REMARK    2  A    between atoms: N_5  and  C_6
REMARK    3  A    between atoms: C_15  and  C_16
REMARK    4  A    between atoms: C_16  and  O_18
REMARK                            x       y       z     vdW  Elec       q    Type
REMARK                         _______ _______ _______ _____ _____    ______ ____
ROOT
ATOM      1  C   UNL     1      -5.516  13.234  22.264  0.00  0.00    +0.000 A 
ATOM      2  N   UNL     1      -4.158  13.214  22.083  0.00  0.00    +0.000 NA
ATOM      3  C   UNL     1      -3.292  14.003  22.791  0.00  0.00    +0.000 A 
ATOM      4  C   UNL     1      -3.822  14.883  23.762  0.00  0.00    +0.000 A 
ATOM      5  C   UNL     1      -5.207  14.920  23.967  0.00  0.00    +0.000 A 
ATOM      6  C   UNL     1      -6.054  14.109  23.228  0.00  0.00    +0.000 A 
ATOM      7  F   UNL     1      -7.384  14.202  23.470  0.00  0.00    +0.000 F 
ATOM      8  C   UNL     1      -2.966  15.708  24.505  0.00  0.00    +0.000 A 
ATOM      9  O   UNL     1      -3.435  16.466  25.340  0.00  0.00    +0.000 OA
ATOM     10  C   UNL     1      -1.577  15.662  24.286  0.00  0.00    +0.000 A 
ATOM     11  C   UNL     1      -1.095  14.767  23.312  0.00  0.00    +0.000 A 
ATOM     12  N   UNL     1      -1.927  13.954  22.578  0.00  0.00    +0.000 N 
ATOM     13  C   UNL     1      -1.318  13.071  21.590  0.00  0.00    +0.000 A 
ATOM     14  N   UNL     1      -2.018  12.263  20.750  0.00  0.00    +0.000 NA
ATOM     15  C   UNL     1      -1.192  11.565  19.923  0.00  0.00    +0.000 A 
ATOM     16  C   UNL     1      -1.624  10.663  18.947  0.00  0.00    +0.000 A 
ATOM     17  C   UNL     1      -0.662  10.011  18.153  0.00  0.00    +0.000 A 
ATOM     18  C   UNL     1       0.713  10.261  18.342  0.00  0.00    +0.000 A 
ATOM     19  C   UNL     1       1.136  11.169  19.326  0.00  0.00    +0.000 A 
ATOM     20  C   UNL     1       0.163  11.801  20.094  0.00  0.00    +0.000 A 
ATOM     21  S   UNL     1       0.362  12.923  21.315  0.00  0.00    +0.000 S 
ENDROOT
BRANCH   1  25
ATOM     22  C   UNL     1      -7.319  11.333  19.630  0.00  0.00    +0.000 C 
ATOM     23  C   UNL     1      -7.897  10.720  20.889  0.00  0.00    +0.000 C 
ATOM     24  C   UNL     1      -7.619  11.813  21.911  0.00  0.00    +0.000 C 
ATOM     25  N   UNL     1      -6.352  12.376  21.480  0.00  0.00    +0.000 N 
ATOM     26  C   UNL     1      -6.013  11.949  20.139  0.00  0.00    +0.000 C 
BRANCH  22  27
ATOM     27  N   UNL     1      -7.117  10.373  18.546  0.00  0.00    +0.000 NA
ATOM     28  H   UNL     1      -6.140  10.004  18.602  0.00  0.00    +0.000 HD
ATOM     29  H   UNL     1      -7.226  10.852  17.623  0.00  0.00    +0.000 HD
ENDBRANCH  22  27
ENDBRANCH   1  25
BRANCH  10  30
ATOM     30  C   UNL     1      -0.642  16.550  25.069  0.00  0.00    +0.000 C 
ATOM     31  O   UNL     1       0.204  16.050  25.794  0.00  0.00    +0.000 OA
BRANCH  30  32
ATOM     32  O   UNL     1      -0.691  17.901  25.015  0.00  0.00    +0.000 OA
ATOM     33  H   UNL     1      -0.122  18.502  25.506  0.00  0.00    +0.000 HD
ENDBRANCH  30  32
ENDBRANCH  10  30
TORSDOF 4
ENDMDL
MODEL 5
REMARK VINA RESULT:      -6.3      3.380      6.510
REMARK  Name = 
REMARK  4 active torsions:
REMARK  status: ('A' for Active; 'I' for Inactive)
REMARK    1  A    between atoms: N_1  and  C_2
REMARK    2  A    between atoms: N_5  and  C_6
REMARK    3  A    between atoms: C_15  and  C_16
REMARK    4  A    between atoms: C_16  and  O_18
REMARK                            x       y       z     vdW  Elec       q    Type
REMARK                         _______ _______ _______ _____ _____    ______ ____
ROOT
ATOM      1  C   UNL     1      -3.294  13.893  22.233  0.00  0.00    +0.000 A 
ATOM      2  N   UNL     1      -2.227  13.741  21.389  0.00  0.00    +0.000 NA
ATOM      3  C   UNL     1      -2.296  13.060  20.203  0.00  0.00    +0.000 A 
ATOM      4  C   UNL     1      -3.532  12.485  19.827  0.00  0.00    +0.000 A 
ATOM      5  C   UNL     1      -4.638  12.629  20.674  0.00  0.00    +0.000 A 
ATOM      6  C   UNL     1      -4.530  13.322  21.869  0.00  0.00    +0.000 A 
ATOM      7  F   UNL     1      -5.636  13.415  22.645  0.00  0.00    +0.000 F 
ATOM      8  C   UNL     1      -3.640  11.778  18.622  0.00  0.00    +0.000 A 
ATOM      9  O   UNL     1      -4.712  11.284  18.307  0.00  0.00    +0.000 OA
ATOM     10  C   UNL     1      -2.519  11.639  17.783  0.00  0.00    +0.000 A 
ATOM     11  C   UNL     1      -1.312  12.233  18.196  0.00  0.00    +0.000 A 
ATOM     12  N   UNL     1      -1.196  12.928  19.377  0.00  0.00    +0.000 N 
ATOM     13  C   UNL     1       0.107  13.494  19.708  0.00  0.00    +0.000 A 
ATOM     14  N   UNL     1       0.385  14.147  20.868  0.00  0.00    +0.000 NA
ATOM     15  C   UNL     1       1.685  14.552  20.916  0.00  0.00    +0.000 A 
ATOM     16  C   UNL     1       2.264  15.238  21.986  0.00  0.00    +0.000 A 
ATOM     17  C   UNL     1       3.624  15.592  21.908  0.00  0.00    +0.000 A 
ATOM     18  C   UNL     1       4.387  15.263  20.769  0.00  0.00    +0.000 A 
ATOM     19  C   UNL     1       3.795  14.574  19.699  0.00  0.00    +0.000 A 
ATOM     20  C   UNL     1       2.449  14.234  19.804  0.00  0.00    +0.000 A 
ATOM     21  S   UNL     1       1.491  13.413  18.709  0.00  0.00    +0.000 S 
ENDROOT
BRANCH   1  25
ATOM     22  C   UNL     1      -2.458  15.171  25.621  0.00  0.00    +0.000 C 
ATOM     23  C   UNL     1      -3.242  16.333  25.049  0.00  0.00    +0.000 C 
ATOM     24  C   UNL     1      -4.039  15.647  23.948  0.00  0.00    +0.000 C 
ATOM     25  N   UNL     1      -3.136  14.621  23.457  0.00  0.00    +0.000 N 
ATOM     26  C   UNL     1      -2.022  14.421  24.359  0.00  0.00    +0.000 C 
BRANCH  22  27
ATOM     27  N   UNL     1      -1.336  15.576  26.465  0.00  0.00    +0.000 NA
ATOM     28  H   UNL     1      -0.443  15.335  25.976  0.00  0.00    +0.000 HD
ATOM     29  H   UNL     1      -1.360  15.046  27.366  0.00  0.00    +0.000 HD
ENDBRANCH  22  27
ENDBRANCH   1  25
BRANCH  10  30
ATOM     30  C   UNL     1      -2.615  10.873  16.486  0.00  0.00    +0.000 C 
ATOM     31  O   UNL     1      -2.270   9.702  16.447  0.00  0.00    +0.000 OA
BRANCH  30  32
ATOM     32  O   UNL     1      -3.068  11.424  15.337  0.00  0.00    +0.000 OA
ATOM     33  H   UNL     1      -3.893  11.198  14.895  0.00  0.00    +0.000 HD
ENDBRANCH  30  32
ENDBRANCH  10  30
TORSDOF 4
ENDMDL
MODEL 6
REMARK VINA RESULT:      -6.3      5.090      7.256
REMARK  Name = 
REMARK  4 active torsions:
REMARK  status: ('A' for Active; 'I' for Inactive)
REMARK    1  A    between atoms: N_1  and  C_2
REMARK    2  A    between atoms: N_5  and  C_6
REMARK    3  A    between atoms: C_15  and  C_16
REMARK    4  A    between atoms: C_16  and  O_18
REMARK                            x       y       z     vdW  Elec       q    Type
REMARK                         _______ _______ _______ _____ _____    ______ ____
ROOT
ATOM      1  C   UNL     1      -1.688  13.180  22.603  0.00  0.00    +0.000 A 
ATOM      2  N   UNL     1      -0.706  13.076  21.654  0.00  0.00    +0.000 NA
ATOM      3  C   UNL     1      -0.132  11.886  21.293  0.00  0.00    +0.000 A 
ATOM      4  C   UNL     1      -0.575  10.703  21.928  0.00  0.00    +0.000 A 
ATOM      5  C   UNL     1      -1.580  10.785  22.900  0.00  0.00    +0.000 A 
ATOM      6  C   UNL     1      -2.135  12.008  23.244  0.00  0.00    +0.000 A 
ATOM      7  F   UNL     1      -3.096  12.016  24.199  0.00  0.00    +0.000 F 
ATOM      8  C   UNL     1      -0.009   9.468  21.585  0.00  0.00    +0.000 A 
ATOM      9  O   UNL     1      -0.397   8.453  22.142  0.00  0.00    +0.000 OA
ATOM     10  C   UNL     1       1.002   9.402  20.609  0.00  0.00    +0.000 A 
ATOM     11  C   UNL     1       1.406  10.605  20.000  0.00  0.00    +0.000 A 
ATOM     12  N   UNL     1       0.857  11.822  20.329  0.00  0.00    +0.000 N 
ATOM     13  C   UNL     1       1.360  13.005  19.640  0.00  0.00    +0.000 A 
ATOM     14  N   UNL     1       0.959  14.276  19.908  0.00  0.00    +0.000 NA
ATOM     15  C   UNL     1       1.607  15.182  19.126  0.00  0.00    +0.000 A 
ATOM     16  C   UNL     1       1.411  16.564  19.181  0.00  0.00    +0.000 A 
ATOM     17  C   UNL     1       2.154  17.390  18.317  0.00  0.00    +0.000 A 
ATOM     18  C   UNL     1       3.078  16.832  17.410  0.00  0.00    +0.000 A 
ATOM     19  C   UNL     1       3.268  15.442  17.362  0.00  0.00    +0.000 A 
ATOM     20  C   UNL     1       2.521  14.650  18.230  0.00  0.00    +0.000 A 
ATOM     21  S   UNL     1       2.541  12.988  18.405  0.00  0.00    +0.000 S 
ENDROOT
BRANCH   1  25
ATOM     22  C   UNL     1      -3.190  16.579  22.666  0.00  0.00    +0.000 C 
ATOM     23  C   UNL     1      -3.048  16.288  24.146  0.00  0.00    +0.000 C 
ATOM     24  C   UNL     1      -1.971  15.213  24.140  0.00  0.00    +0.000 C 
ATOM     25  N   UNL     1      -2.236  14.465  22.923  0.00  0.00    +0.000 N 
ATOM     26  C   UNL     1      -3.149  15.175  22.055  0.00  0.00    +0.000 C 
BRANCH  22  27
ATOM     27  N   UNL     1      -4.404  17.318  22.325  0.00  0.00    +0.000 NA
ATOM     28  H   UNL     1      -4.785  16.943  21.427  0.00  0.00    +0.000 HD
ATOM     29  H   UNL     1      -4.175  18.328  22.179  0.00  0.00    +0.000 HD
ENDBRANCH  22  27
ENDBRANCH   1  25
BRANCH  10  30
ATOM     30  C   UNL     1       1.630   8.082  20.235  0.00  0.00    +0.000 C 
ATOM     31  O   UNL     1       2.046   7.908  19.100  0.00  0.00    +0.000 OA
BRANCH  30  32
ATOM     32  O   UNL     1       1.758   7.055  21.106  0.00  0.00    +0.000 OA
ATOM     33  H   UNL     1       1.375   7.018  21.988  0.00  0.00    +0.000 HD
ENDBRANCH  30  32
ENDBRANCH  10  30
TORSDOF 4
ENDMDL
MODEL 7
REMARK VINA RESULT:      -6.3      8.638     12.094
REMARK  Name = 
REMARK  4 active torsions:
REMARK  status: ('A' for Active; 'I' for Inactive)
REMARK    1  A    between atoms: N_1  and  C_2
REMARK    2  A    between atoms: N_5  and  C_6
REMARK    3  A    between atoms: C_15  and  C_16
REMARK    4  A    between atoms: C_16  and  O_18
REMARK                            x       y       z     vdW  Elec       q    Type
REMARK                         _______ _______ _______ _____ _____    ______ ____
ROOT
ATOM      1  C   UNL     1       9.036  15.006  20.442  0.00  0.00    +0.000 A 
ATOM      2  N   UNL     1       7.700  14.893  20.721  0.00  0.00    +0.000 NA
ATOM      3  C   UNL     1       7.213  14.225  21.813  0.00  0.00    +0.000 A 
ATOM      4  C   UNL     1       8.134  13.623  22.701  0.00  0.00    +0.000 A 
ATOM      5  C   UNL     1       9.506  13.728  22.437  0.00  0.00    +0.000 A 
ATOM      6  C   UNL     1       9.962  14.408  21.319  0.00  0.00    +0.000 A 
ATOM      7  F   UNL     1      11.301  14.463  21.118  0.00  0.00    +0.000 F 
ATOM      8  C   UNL     1       7.673  12.930  23.828  0.00  0.00    +0.000 A 
ATOM      9  O   UNL     1       8.477  12.412  24.587  0.00  0.00    +0.000 OA
ATOM     10  C   UNL     1       6.292  12.831  24.078  0.00  0.00    +0.000 A 
ATOM     11  C   UNL     1       5.414  13.450  23.170  0.00  0.00    +0.000 A 
ATOM     12  N   UNL     1       5.857  14.133  22.061  0.00  0.00    +0.000 N 
ATOM     13  C   UNL     1       4.856  14.728  21.183  0.00  0.00    +0.000 A 
ATOM     14  N   UNL     1       5.143  15.373  20.022  0.00  0.00    +0.000 NA
ATOM     15  C   UNL     1       4.014  15.810  19.399  0.00  0.00    +0.000 A 
ATOM     16  C   UNL     1       3.993  16.498  18.183  0.00  0.00    +0.000 A 
ATOM     17  C   UNL     1       2.752  16.888  17.645  0.00  0.00    +0.000 A 
ATOM     18  C   UNL     1       1.552  16.593  18.324  0.00  0.00    +0.000 A 
ATOM     19  C   UNL     1       1.583  15.903  19.546  0.00  0.00    +0.000 A 
ATOM     20  C   UNL     1       2.825  15.526  20.052  0.00  0.00    +0.000 A 
ATOM     21  S   UNL     1       3.170  14.695  21.460  0.00  0.00    +0.000 S 
ENDROOT
BRANCH   1  25
ATOM     22  C   UNL     1      10.588  16.245  17.301  0.00  0.00    +0.000 C 
ATOM     23  C   UNL     1       9.603  17.354  17.604  0.00  0.00    +0.000 C 
ATOM     24  C   UNL     1       9.383  17.162  19.098  0.00  0.00    +0.000 C 
ATOM     25  N   UNL     1       9.461  15.722  19.276  0.00  0.00    +0.000 N 
ATOM     26  C   UNL     1      10.018  15.075  18.108  0.00  0.00    +0.000 C 
BRANCH  22  27
ATOM     27  N   UNL     1      10.721  15.948  15.876  0.00  0.00    +0.000 NA
ATOM     28  H   UNL     1      10.404  14.966  15.706  0.00  0.00    +0.000 HD
ATOM     29  H   UNL     1      11.725  16.014  15.592  0.00  0.00    +0.000 HD
ENDBRANCH  22  27
ENDBRANCH   1  25
BRANCH  10  30
ATOM     30  C   UNL     1       5.777  12.079  25.281  0.00  0.00    +0.000 C 
ATOM     31  O   UNL     1       4.963  12.606  26.023  0.00  0.00    +0.000 OA
BRANCH  30  32
ATOM     32  O   UNL     1       6.179  10.825  25.593  0.00  0.00    +0.000 OA
ATOM     33  H   UNL     1       6.119  10.058  25.015  0.00  0.00    +0.000 HD
ENDBRANCH  30  32
ENDBRANCH  10  30
TORSDOF 4
ENDMDL
MODEL 8
REMARK VINA RESULT:      -6.3      3.810      7.260
REMARK  Name = 
REMARK  4 active torsions:
REMARK  status: ('A' for Active; 'I' for Inactive)
REMARK    1  A    between atoms: N_1  and  C_2
REMARK    2  A    between atoms: N_5  and  C_6
REMARK    3  A    between atoms: C_15  and  C_16
REMARK    4  A    between atoms: C_16  and  O_18
REMARK                            x       y       z     vdW  Elec       q    Type
REMARK                         _______ _______ _______ _____ _____    ______ ____
ROOT
ATOM      1  C   UNL     1      -3.706  14.663  23.198  0.00  0.00    +0.000 A 
ATOM      2  N   UNL     1      -2.937  14.150  22.186  0.00  0.00    +0.000 NA
ATOM      3  C   UNL     1      -1.598  14.404  22.057  0.00  0.00    +0.000 A 
ATOM      4  C   UNL     1      -0.972  15.233  23.016  0.00  0.00    +0.000 A 
ATOM      5  C   UNL     1      -1.738  15.767  24.061  0.00  0.00    +0.000 A 
ATOM      6  C   UNL     1      -3.093  15.492  24.158  0.00  0.00    +0.000 A 
ATOM      7  F   UNL     1      -3.775  16.048  25.187  0.00  0.00    +0.000 F 
ATOM      8  C   UNL     1       0.396  15.516  22.914  0.00  0.00    +0.000 A 
ATOM      9  O   UNL     1       0.926  16.236  23.747  0.00  0.00    +0.000 OA
ATOM     10  C   UNL     1       1.151  14.976  21.857  0.00  0.00    +0.000 A 
ATOM     11  C   UNL     1       0.487  14.152  20.930  0.00  0.00    +0.000 A 
ATOM     12  N   UNL     1      -0.856  13.868  21.021  0.00  0.00    +0.000 N 
ATOM     13  C   UNL     1      -1.441  13.008  19.998  0.00  0.00    +0.000 A 
ATOM     14  N   UNL     1      -2.762  12.698  19.924  0.00  0.00    +0.000 NA
ATOM     15  C   UNL     1      -3.029  11.893  18.859  0.00  0.00    +0.000 A 
ATOM     16  C   UNL     1      -4.298  11.417  18.521  0.00  0.00    +0.000 A 
ATOM     17  C   UNL     1      -4.434  10.595  17.386  0.00  0.00    +0.000 A 
ATOM     18  C   UNL     1      -3.309  10.256  16.607  0.00  0.00    +0.000 A 
ATOM     19  C   UNL     1      -2.038  10.739  16.955  0.00  0.00    +0.000 A 
ATOM     20  C   UNL     1      -1.933  11.552  18.081  0.00  0.00    +0.000 A 
ATOM     21  S   UNL     1      -0.571  12.273  18.725  0.00  0.00    +0.000 S 
ENDROOT
BRANCH   1  25
ATOM     22  C   UNL     1      -7.090  13.127  23.213  0.00  0.00    +0.000 C 
ATOM     23  C   UNL     1      -7.412  14.562  23.573  0.00  0.00    +0.000 C 
ATOM     24  C   UNL     1      -6.186  15.289  23.039  0.00  0.00    +0.000 C 
ATOM     25  N   UNL     1      -5.102  14.349  23.260  0.00  0.00    +0.000 N 
ATOM     26  C   UNL     1      -5.604  13.028  23.572  0.00  0.00    +0.000 C 
BRANCH  22  27
ATOM     27  N   UNL     1      -7.915  12.144  23.911  0.00  0.00    +0.000 NA
ATOM     28  H   UNL     1      -7.969  11.276  23.331  0.00  0.00    +0.000 HD
ATOM     29  H   UNL     1      -8.887  12.514  24.026  0.00  0.00    +0.000 HD
ENDBRANCH  22  27
ENDBRANCH   1  25
BRANCH  10  30
ATOM     30  C   UNL     1       2.624  15.278  21.726  0.00  0.00    +0.000 C 
ATOM     31  O   UNL     1       3.015  16.008  20.828  0.00  0.00    +0.000 OA
BRANCH  30  32
ATOM     32  O   UNL     1       3.558  14.772  22.564  0.00  0.00    +0.000 OA
ATOM     33  H   UNL     1       3.501  13.925  23.018  0.00  0.00    +0.000 HD
ENDBRANCH  30  32
ENDBRANCH  10  30
TORSDOF 4
ENDMDL
MODEL 9
REMARK VINA RESULT:      -6.2      4.082      5.559
REMARK  Name = 
REMARK  4 active torsions:
REMARK  status: ('A' for Active; 'I' for Inactive)
REMARK    1  A    between atoms: N_1  and  C_2
REMARK    2  A    between atoms: N_5  and  C_6
REMARK    3  A    between atoms: C_15  and  C_16
REMARK    4  A    between atoms: C_16  and  O_18
REMARK                            x       y       z     vdW  Elec       q    Type
REMARK                         _______ _______ _______ _____ _____    ______ ____
ROOT
ATOM      1  C   UNL     1      -1.361  16.427  20.303  0.00  0.00    +0.000 A 
ATOM      2  N   UNL     1      -1.274  15.085  20.562  0.00  0.00    +0.000 NA
ATOM      3  C   UNL     1      -1.981  14.462  21.557  0.00  0.00    +0.000 A 
ATOM      4  C   UNL     1      -2.847  15.242  22.358  0.00  0.00    +0.000 A 
ATOM      5  C   UNL     1      -2.954  16.616  22.110  0.00  0.00    +0.000 A 
ATOM      6  C   UNL     1      -2.220  17.213  21.097  0.00  0.00    +0.000 A 
ATOM      7  F   UNL     1      -2.364  18.548  20.919  0.00  0.00    +0.000 F 
ATOM      8  C   UNL     1      -3.584  14.640  23.386  0.00  0.00    +0.000 A 
ATOM      9  O   UNL     1      -4.327  15.323  24.074  0.00  0.00    +0.000 OA
ATOM     10  C   UNL     1      -3.463  13.258  23.625  0.00  0.00    +0.000 A 
ATOM     11  C   UNL     1      -2.593  12.523  22.799  0.00  0.00    +0.000 A 
ATOM     12  N   UNL     1      -1.866  13.104  21.787  0.00  0.00    +0.000 N 
ATOM     13  C   UNL     1      -0.988  12.246  20.999  0.00  0.00    +0.000 A 
ATOM     14  N   UNL     1      -0.164  12.692  20.015  0.00  0.00    +0.000 NA
ATOM     15  C   UNL     1       0.553  11.674  19.462  0.00  0.00    +0.000 A 
ATOM     16  C   UNL     1       1.487  11.827  18.435  0.00  0.00    +0.000 A 
ATOM     17  C   UNL     1       2.164  10.689  17.958  0.00  0.00    +0.000 A 
ATOM     18  C   UNL     1       1.901   9.417  18.506  0.00  0.00    +0.000 A 
ATOM     19  C   UNL     1       0.960   9.273  19.537  0.00  0.00    +0.000 A 
ATOM     20  C   UNL     1       0.307  10.417  19.991  0.00  0.00    +0.000 A 
ATOM     21  S   UNL     1      -0.840  10.555  21.197  0.00  0.00    +0.000 S 
ENDROOT
BRANCH   1  25
ATOM     22  C   UNL     1       1.239  17.822  18.045  0.00  0.00    +0.000 C 
ATOM     23  C   UNL     1       0.015  17.866  17.154  0.00  0.00    +0.000 C 
ATOM     24  C   UNL     1      -1.107  17.843  18.182  0.00  0.00    +0.000 C 
ATOM     25  N   UNL     1      -0.586  16.999  19.243  0.00  0.00    +0.000 N 
ATOM     26  C   UNL     1       0.837  16.784  19.097  0.00  0.00    +0.000 C 
BRANCH  22  27
ATOM     27  N   UNL     1       2.470  17.474  17.338  0.00  0.00    +0.000 NA
ATOM     28  H   UNL     1       2.635  16.446  17.434  0.00  0.00    +0.000 HD
ATOM     29  H   UNL     1       3.282  17.971  17.774  0.00  0.00    +0.000 HD
ENDBRANCH  22  27
ENDBRANCH   1  25
BRANCH  10  30
ATOM     30  C   UNL     1      -4.241  12.595  24.735  0.00  0.00    +0.000 C 
ATOM     31  O   UNL     1      -5.140  11.814  24.463  0.00  0.00    +0.000 OA
BRANCH  30  32
ATOM     32  O   UNL     1      -3.996  12.826  26.045  0.00  0.00    +0.000 OA
ATOM     33  H   UNL     1      -3.579  13.615  26.406  0.00  0.00    +0.000 HD
ENDBRANCH  30  32
ENDBRANCH  10  30
TORSDOF 4
ENDMDL
