MODEL 1
REMARK VINA RESULT:      -8.4      0.000      0.000
REMARK  Name = 
REMARK  3 active torsions:
REMARK  status: ('A' for Active; 'I' for Inactive)
REMARK    1  A    between atoms: C_4  and  C_5
REMARK    2  A    between atoms: C_12  and  S_13
REMARK    3  A    between atoms: S_13  and  C_16
REMARK                            x       y       z     vdW  Elec       q    Type
REMARK                         _______ _______ _______ _____ _____    ______ ____
ROOT
ATOM      1  N   UNL     1       7.040   6.036  16.088  0.00  0.00    +0.000 N 
ATOM      2  C   UNL     1       5.826   5.826  16.611  0.00  0.00    +0.000 A 
ATOM      3  N   UNL     1       5.148   6.744  17.246  0.00  0.00    +0.000 NA
ATOM      4  C   UNL     1       3.905   6.253  17.648  0.00  0.00    +0.000 A 
ATOM      5  C   UNL     1       3.676   4.927  17.313  0.00  0.00    +0.000 A 
ATOM      6  S   UNL     1       5.062   4.307  16.496  0.00  0.00    +0.000 S 
ATOM      7  H   UNL     1       7.529   6.879  16.359  0.00  0.00    +0.000 HD
ATOM      8  H   UNL     1       7.627   5.246  15.849  0.00  0.00    +0.000 HD
ENDROOT
BRANCH   4   9
ATOM      9  C   UNL     1       2.961   7.172  18.288  0.00  0.00    +0.000 A 
ATOM     10  C   UNL     1       2.555   6.914  19.608  0.00  0.00    +0.000 A 
ATOM     11  C   UNL     1       1.719   7.805  20.292  0.00  0.00    +0.000 A 
ATOM     12  C   UNL     1       1.284   8.963  19.658  0.00  0.00    +0.000 A 
ATOM     13 BR   UNL     1       0.222  10.213  20.595  0.00  0.00    +0.000 Br
ATOM     14  C   UNL     1       1.632   9.209  18.334  0.00  0.00    +0.000 A 
ATOM     15  C   UNL     1       2.443   8.301  17.645  0.00  0.00    +0.000 A 
ENDBRANCH   4   9
BRANCH   5  16
ATOM     16  S   UNL     1       2.333   3.784  17.485  0.00  0.00    +0.000 S 
ATOM     17  O   UNL     1       1.139   4.547  17.178  0.00  0.00    +0.000 OA
ATOM     18  O   UNL     1       2.670   2.593  16.726  0.00  0.00    +0.000 OA
BRANCH  16  19
ATOM     19  C   UNL     1       2.232   3.286  19.189  0.00  0.00    +0.000 A 
ATOM     20  C   UNL     1       3.402   2.862  19.829  0.00  0.00    +0.000 A 
ATOM     21  C   UNL     1       3.362   2.514  21.180  0.00  0.00    +0.000 A 
ATOM     22  C   UNL     1       2.158   2.578  21.882  0.00  0.00    +0.000 A 
ATOM     23  C   UNL     1       0.988   2.978  21.234  0.00  0.00    +0.000 A 
ATOM     24  C   UNL     1       1.019   3.331  19.884  0.00  0.00    +0.000 A 
ENDBRANCH  16  19
ENDBRANCH   5  16
TORSDOF 3
ENDMDL
MODEL 2
REMARK VINA RESULT:      -8.3      0.064      1.034
REMARK  Name = 
REMARK  3 active torsions:
REMARK  status: ('A' for Active; 'I' for Inactive)
REMARK    1  A    between atoms: C_4  and  C_5
REMARK    2  A    between atoms: C_12  and  S_13
REMARK    3  A    between atoms: S_13  and  C_16
REMARK                            x       y       z     vdW  Elec       q    Type
REMARK                         _______ _______ _______ _____ _____    ______ ____
ROOT
ATOM      1  N   UNL     1       7.001   6.058  16.011  0.00  0.00    +0.000 N 
ATOM      2  C   UNL     1       5.800   5.842  16.562  0.00  0.00    +0.000 A 
ATOM      3  N   UNL     1       5.125   6.763  17.198  0.00  0.00    +0.000 NA
ATOM      4  C   UNL     1       3.896   6.264  17.631  0.00  0.00    +0.000 A 
ATOM      5  C   UNL     1       3.675   4.931  17.320  0.00  0.00    +0.000 A 
ATOM      6  S   UNL     1       5.051   4.314  16.485  0.00  0.00    +0.000 S 
ATOM      7  H   UNL     1       7.486   6.910  16.261  0.00  0.00    +0.000 HD
ATOM      8  H   UNL     1       7.591   5.271  15.772  0.00  0.00    +0.000 HD
ENDROOT
BRANCH   4   9
ATOM      9  C   UNL     1       2.954   7.182  18.277  0.00  0.00    +0.000 A 
ATOM     10  C   UNL     1       2.537   6.910  19.591  0.00  0.00    +0.000 A 
ATOM     11  C   UNL     1       1.703   7.797  20.280  0.00  0.00    +0.000 A 
ATOM     12  C   UNL     1       1.283   8.968  19.660  0.00  0.00    +0.000 A 
ATOM     13 BR   UNL     1       0.224  10.214  20.606  0.00  0.00    +0.000 Br
ATOM     14  C   UNL     1       1.643   9.230  18.342  0.00  0.00    +0.000 A 
ATOM     15  C   UNL     1       2.451   8.324  17.646  0.00  0.00    +0.000 A 
ENDBRANCH   4   9
BRANCH   5  16
ATOM     16  S   UNL     1       2.348   3.776  17.535  0.00  0.00    +0.000 S 
ATOM     17  O   UNL     1       1.140   4.520  17.237  0.00  0.00    +0.000 OA
ATOM     18  O   UNL     1       2.685   2.576  16.791  0.00  0.00    +0.000 OA
BRANCH  16  19
ATOM     19  C   UNL     1       2.283   3.307  19.249  0.00  0.00    +0.000 A 
ATOM     20  C   UNL     1       1.067   3.433  19.930  0.00  0.00    +0.000 A 
ATOM     21  C   UNL     1       0.976   3.025  21.261  0.00  0.00    +0.000 A 
ATOM     22  C   UNL     1       2.096   2.505  21.910  0.00  0.00    +0.000 A 
ATOM     23  C   UNL     1       3.314   2.403  21.236  0.00  0.00    +0.000 A 
ATOM     24  C   UNL     1       3.414   2.805  19.903  0.00  0.00    +0.000 A 
ENDBRANCH  16  19
ENDBRANCH   5  16
TORSDOF 3
ENDMDL
MODEL 3
REMARK VINA RESULT:      -8.3      0.198      1.045
REMARK  Name = 
REMARK  3 active torsions:
REMARK  status: ('A' for Active; 'I' for Inactive)
REMARK    1  A    between atoms: C_4  and  C_5
REMARK    2  A    between atoms: C_12  and  S_13
REMARK    3  A    between atoms: S_13  and  C_16
REMARK                            x       y       z     vdW  Elec       q    Type
REMARK                         _______ _______ _______ _____ _____    ______ ____
ROOT
ATOM      1  N   UNL     1       6.994   5.809  15.823  0.00  0.00    +0.000 N 
ATOM      2  C   UNL     1       5.810   5.630  16.421  0.00  0.00    +0.000 A 
ATOM      3  N   UNL     1       5.208   6.558  17.116  0.00  0.00    +0.000 NA
ATOM      4  C   UNL     1       3.977   6.103  17.589  0.00  0.00    +0.000 A 
ATOM      5  C   UNL     1       3.679   4.793  17.245  0.00  0.00    +0.000 A 
ATOM      6  S   UNL     1       4.986   4.142  16.328  0.00  0.00    +0.000 S 
ATOM      7  H   UNL     1       7.530   6.628  16.078  0.00  0.00    +0.000 HD
ATOM      8  H   UNL     1       7.535   5.005  15.532  0.00  0.00    +0.000 HD
ENDROOT
BRANCH   4   9
ATOM      9  C   UNL     1       3.110   7.040  18.307  0.00  0.00    +0.000 A 
ATOM     10  C   UNL     1       2.696   8.214  17.656  0.00  0.00    +0.000 A 
ATOM     11  C   UNL     1       1.803   9.100  18.269  0.00  0.00    +0.000 A 
ATOM     12  C   UNL     1       1.315   8.816  19.540  0.00  0.00    +0.000 A 
ATOM     13 BR   UNL     1       0.046   9.961  20.345  0.00  0.00    +0.000 Br
ATOM     14  C   UNL     1       1.753   7.685  20.221  0.00  0.00    +0.000 A 
ATOM     15  C   UNL     1       2.670   6.818  19.616  0.00  0.00    +0.000 A 
ENDBRANCH   4   9
BRANCH   5  16
ATOM     16  S   UNL     1       2.309   3.694  17.483  0.00  0.00    +0.000 S 
ATOM     17  O   UNL     1       1.128   4.489  17.209  0.00  0.00    +0.000 OA
ATOM     18  O   UNL     1       2.581   2.483  16.730  0.00  0.00    +0.000 OA
BRANCH  16  19
ATOM     19  C   UNL     1       2.257   3.223  19.196  0.00  0.00    +0.000 A 
ATOM     20  C   UNL     1       3.430   2.745  19.792  0.00  0.00    +0.000 A 
ATOM     21  C   UNL     1       3.431   2.416  21.148  0.00  0.00    +0.000 A 
ATOM     22  C   UNL     1       2.263   2.552  21.900  0.00  0.00    +0.000 A 
ATOM     23  C   UNL     1       1.089   3.006  21.297  0.00  0.00    +0.000 A 
ATOM     24  C   UNL     1       1.080   3.341  19.942  0.00  0.00    +0.000 A 
ENDBRANCH  16  19
ENDBRANCH   5  16
TORSDOF 3
ENDMDL
MODEL 4
REMARK VINA RESULT:      -8.3      0.221      1.472
REMARK  Name = 
REMARK  3 active torsions:
REMARK  status: ('A' for Active; 'I' for Inactive)
REMARK    1  A    between atoms: C_4  and  C_5
REMARK    2  A    between atoms: C_12  and  S_13
REMARK    3  A    between atoms: S_13  and  C_16
REMARK                            x       y       z     vdW  Elec       q    Type
REMARK                         _______ _______ _______ _____ _____    ______ ____
ROOT
ATOM      1  N   UNL     1       6.982   5.819  15.722  0.00  0.00    +0.000 N 
ATOM      2  C   UNL     1       5.811   5.636  16.344  0.00  0.00    +0.000 A 
ATOM      3  N   UNL     1       5.212   6.568  17.037  0.00  0.00    +0.000 NA
ATOM      4  C   UNL     1       3.994   6.106  17.538  0.00  0.00    +0.000 A 
ATOM      5  C   UNL     1       3.703   4.789  17.217  0.00  0.00    +0.000 A 
ATOM      6  S   UNL     1       5.001   4.139  16.285  0.00  0.00    +0.000 S 
ATOM      7  H   UNL     1       7.514   6.647  15.956  0.00  0.00    +0.000 HD
ATOM      8  H   UNL     1       7.526   5.016  15.432  0.00  0.00    +0.000 HD
ENDROOT
BRANCH   4   9
ATOM      9  C   UNL     1       3.130   7.044  18.259  0.00  0.00    +0.000 A 
ATOM     10  C   UNL     1       2.711   8.216  17.608  0.00  0.00    +0.000 A 
ATOM     11  C   UNL     1       1.820   9.103  18.223  0.00  0.00    +0.000 A 
ATOM     12  C   UNL     1       1.340   8.821  19.498  0.00  0.00    +0.000 A 
ATOM     13 BR   UNL     1       0.076   9.967  20.308  0.00  0.00    +0.000 Br
ATOM     14  C   UNL     1       1.785   7.693  20.179  0.00  0.00    +0.000 A 
ATOM     15  C   UNL     1       2.699   6.825  19.571  0.00  0.00    +0.000 A 
ENDBRANCH   4   9
BRANCH   5  16
ATOM     16  S   UNL     1       2.349   3.679  17.494  0.00  0.00    +0.000 S 
ATOM     17  O   UNL     1       1.157   4.449  17.200  0.00  0.00    +0.000 OA
ATOM     18  O   UNL     1       2.637   2.449  16.779  0.00  0.00    +0.000 OA
BRANCH  16  19
ATOM     19  C   UNL     1       2.310   3.262  19.222  0.00  0.00    +0.000 A 
ATOM     20  C   UNL     1       1.103   3.408  19.915  0.00  0.00    +0.000 A 
ATOM     21  C   UNL     1       1.031   3.041  21.260  0.00  0.00    +0.000 A 
ATOM     22  C   UNL     1       2.160   2.541  21.909  0.00  0.00    +0.000 A 
ATOM     23  C   UNL     1       3.368   2.419  21.221  0.00  0.00    +0.000 A 
ATOM     24  C   UNL     1       3.449   2.781  19.875  0.00  0.00    +0.000 A 
ENDBRANCH  16  19
ENDBRANCH   5  16
TORSDOF 3
ENDMDL
MODEL 5
REMARK VINA RESULT:      -6.9      2.728      4.954
REMARK  Name = 
REMARK  3 active torsions:
REMARK  status: ('A' for Active; 'I' for Inactive)
REMARK    1  A    between atoms: C_4  and  C_5
REMARK    2  A    between atoms: C_12  and  S_13
REMARK    3  A    between atoms: S_13  and  C_16
REMARK                            x       y       z     vdW  Elec       q    Type
REMARK                         _______ _______ _______ _____ _____    ______ ____
ROOT
ATOM      1  N   UNL     1       1.272   1.698  18.945  0.00  0.00    +0.000 N 
ATOM      2  C   UNL     1       2.029   2.793  18.802  0.00  0.00    +0.000 A 
ATOM      3  N   UNL     1       1.567   4.008  18.933  0.00  0.00    +0.000 NA
ATOM      4  C   UNL     1       2.587   4.946  18.766  0.00  0.00    +0.000 A 
ATOM      5  C   UNL     1       3.829   4.399  18.483  0.00  0.00    +0.000 A 
ATOM      6  S   UNL     1       3.684   2.682  18.416  0.00  0.00    +0.000 S 
ATOM      7  H   UNL     1       0.268   1.820  18.968  0.00  0.00    +0.000 HD
ATOM      8  H   UNL     1       1.597   0.812  18.579  0.00  0.00    +0.000 HD
ENDROOT
BRANCH   4   9
ATOM      9  C   UNL     1       2.280   6.362  18.978  0.00  0.00    +0.000 A 
ATOM     10  C   UNL     1       2.296   7.231  17.874  0.00  0.00    +0.000 A 
ATOM     11  C   UNL     1       1.931   8.575  18.010  0.00  0.00    +0.000 A 
ATOM     12  C   UNL     1       1.545   9.060  19.255  0.00  0.00    +0.000 A 
ATOM     13 BR   UNL     1       0.972  10.851  19.437  0.00  0.00    +0.000 Br
ATOM     14  C   UNL     1       1.573   8.228  20.369  0.00  0.00    +0.000 A 
ATOM     15  C   UNL     1       1.968   6.893  20.234  0.00  0.00    +0.000 A 
ENDBRANCH   4   9
BRANCH   5  16
ATOM     16  S   UNL     1       5.468   5.024  18.225  0.00  0.00    +0.000 S 
ATOM     17  O   UNL     1       5.369   6.455  18.435  0.00  0.00    +0.000 OA
ATOM     18  O   UNL     1       6.376   4.216  19.018  0.00  0.00    +0.000 OA
BRANCH  16  19
ATOM     19  C   UNL     1       5.910   4.757  16.523  0.00  0.00    +0.000 A 
ATOM     20  C   UNL     1       4.923   4.303  15.641  0.00  0.00    +0.000 A 
ATOM     21  C   UNL     1       5.230   4.134  14.291  0.00  0.00    +0.000 A 
ATOM     22  C   UNL     1       6.518   4.405  13.828  0.00  0.00    +0.000 A 
ATOM     23  C   UNL     1       7.506   4.834  14.714  0.00  0.00    +0.000 A 
ATOM     24  C   UNL     1       7.208   5.009  16.067  0.00  0.00    +0.000 A 
ENDBRANCH  16  19
ENDBRANCH   5  16
TORSDOF 3
ENDMDL
MODEL 6
REMARK VINA RESULT:      -6.8      2.629      4.578
REMARK  Name = 
REMARK  3 active torsions:
REMARK  status: ('A' for Active; 'I' for Inactive)
REMARK    1  A    between atoms: C_4  and  C_5
REMARK    2  A    between atoms: C_12  and  S_13
REMARK    3  A    between atoms: S_13  and  C_16
REMARK                            x       y       z     vdW  Elec       q    Type
REMARK                         _______ _______ _______ _____ _____    ______ ____
ROOT
ATOM      1  N   UNL     1       2.315   2.574  22.063  0.00  0.00    +0.000 N 
ATOM      2  C   UNL     1       2.604   3.367  21.024  0.00  0.00    +0.000 A 
ATOM      3  N   UNL     1       2.098   4.562  20.869  0.00  0.00    +0.000 NA
ATOM      4  C   UNL     1       2.605   5.168  19.720  0.00  0.00    +0.000 A 
ATOM      5  C   UNL     1       3.494   4.384  19.001  0.00  0.00    +0.000 A 
ATOM      6  S   UNL     1       3.667   2.862  19.793  0.00  0.00    +0.000 S 
ATOM      7  H   UNL     1       1.531   2.833  22.649  0.00  0.00    +0.000 HD
ATOM      8  H   UNL     1       2.510   1.582  22.006  0.00  0.00    +0.000 HD
ENDROOT
BRANCH   4   9
ATOM      9  C   UNL     1       2.229   6.555  19.434  0.00  0.00    +0.000 A 
ATOM     10  C   UNL     1       1.700   7.342  20.471  0.00  0.00    +0.000 A 
ATOM     11  C   UNL     1       1.403   8.694  20.269  0.00  0.00    +0.000 A 
ATOM     12  C   UNL     1       1.635   9.271  19.026  0.00  0.00    +0.000 A 
ATOM     13 BR   UNL     1       1.314  11.114  18.763  0.00  0.00    +0.000 Br
ATOM     14  C   UNL     1       2.109   8.496  17.972  0.00  0.00    +0.000 A 
ATOM     15  C   UNL     1       2.376   7.137  18.171  0.00  0.00    +0.000 A 
ENDBRANCH   4   9
BRANCH   5  16
ATOM     16  S   UNL     1       4.482   4.588  17.543  0.00  0.00    +0.000 S 
ATOM     17  O   UNL     1       4.965   3.260  17.219  0.00  0.00    +0.000 OA
ATOM     18  O   UNL     1       3.700   5.350  16.586  0.00  0.00    +0.000 OA
BRANCH  16  19
ATOM     19  C   UNL     1       5.892   5.590  17.956  0.00  0.00    +0.000 A 
ATOM     20  C   UNL     1       6.689   5.205  19.039  0.00  0.00    +0.000 A 
ATOM     21  C   UNL     1       7.829   5.944  19.354  0.00  0.00    +0.000 A 
ATOM     22  C   UNL     1       8.164   7.067  18.596  0.00  0.00    +0.000 A 
ATOM     23  C   UNL     1       7.354   7.462  17.531  0.00  0.00    +0.000 A 
ATOM     24  C   UNL     1       6.212   6.727  17.207  0.00  0.00    +0.000 A 
ENDBRANCH  16  19
ENDBRANCH   5  16
TORSDOF 3
ENDMDL
MODEL 7
REMARK VINA RESULT:      -6.8      2.618      4.637
REMARK  Name = 
REMARK  3 active torsions:
REMARK  status: ('A' for Active; 'I' for Inactive)
REMARK    1  A    between atoms: C_4  and  C_5
REMARK    2  A    between atoms: C_12  and  S_13
REMARK    3  A    between atoms: S_13  and  C_16
REMARK                            x       y       z     vdW  Elec       q    Type
REMARK                         _______ _______ _______ _____ _____    ______ ____
ROOT
ATOM      1  N   UNL     1       2.222   2.398  21.984  0.00  0.00    +0.000 N 
ATOM      2  C   UNL     1       2.527   3.239  20.988  0.00  0.00    +0.000 A 
ATOM      3  N   UNL     1       2.082   4.466  20.922  0.00  0.00    +0.000 NA
ATOM      4  C   UNL     1       2.593   5.117  19.798  0.00  0.00    +0.000 A 
ATOM      5  C   UNL     1       3.421   4.335  19.008  0.00  0.00    +0.000 A 
ATOM      6  S   UNL     1       3.532   2.760  19.699  0.00  0.00    +0.000 S 
ATOM      7  H   UNL     1       1.468   2.659  22.605  0.00  0.00    +0.000 HD
ATOM      8  H   UNL     1       2.363   1.403  21.860  0.00  0.00    +0.000 HD
ENDROOT
BRANCH   4   9
ATOM      9  C   UNL     1       2.284   6.537  19.609  0.00  0.00    +0.000 A 
ATOM     10  C   UNL     1       2.496   7.113  18.346  0.00  0.00    +0.000 A 
ATOM     11  C   UNL     1       2.140   8.443  18.092  0.00  0.00    +0.000 A 
ATOM     12  C   UNL     1       1.567   9.206  19.103  0.00  0.00    +0.000 A 
ATOM     13 BR   UNL     1       1.008  10.976  18.751  0.00  0.00    +0.000 Br
ATOM     14  C   UNL     1       1.398   8.669  20.374  0.00  0.00    +0.000 A 
ATOM     15  C   UNL     1       1.783   7.349  20.632  0.00  0.00    +0.000 A 
ENDBRANCH   4   9
BRANCH   5  16
ATOM     16  S   UNL     1       4.383   4.580  17.540  0.00  0.00    +0.000 S 
ATOM     17  O   UNL     1       4.839   3.259  17.155  0.00  0.00    +0.000 OA
ATOM     18  O   UNL     1       3.595   5.390  16.628  0.00  0.00    +0.000 OA
BRANCH  16  19
ATOM     19  C   UNL     1       5.816   5.544  17.961  0.00  0.00    +0.000 A 
ATOM     20  C   UNL     1       6.581   5.154  19.066  0.00  0.00    +0.000 A 
ATOM     21  C   UNL     1       7.739   5.863  19.389  0.00  0.00    +0.000 A 
ATOM     22  C   UNL     1       8.123   6.961  18.618  0.00  0.00    +0.000 A 
ATOM     23  C   UNL     1       7.345   7.362  17.531  0.00  0.00    +0.000 A 
ATOM     24  C   UNL     1       6.187   6.657  17.199  0.00  0.00    +0.000 A 
ENDBRANCH  16  19
ENDBRANCH   5  16
TORSDOF 3
ENDMDL
MODEL 8
REMARK VINA RESULT:      -6.7      2.656      4.631
REMARK  Name = 
REMARK  3 active torsions:
REMARK  status: ('A' for Active; 'I' for Inactive)
REMARK    1  A    between atoms: C_4  and  C_5
REMARK    2  A    between atoms: C_12  and  S_13
REMARK    3  A    between atoms: S_13  and  C_16
REMARK                            x       y       z     vdW  Elec       q    Type
REMARK                         _______ _______ _______ _____ _____    ______ ____
ROOT
ATOM      1  N   UNL     1       1.890   2.500  22.205  0.00  0.00    +0.000 N 
ATOM      2  C   UNL     1       2.252   3.282  21.180  0.00  0.00    +0.000 A 
ATOM      3  N   UNL     1       1.877   4.528  21.059  0.00  0.00    +0.000 NA
ATOM      4  C   UNL     1       2.434   5.104  19.917  0.00  0.00    +0.000 A 
ATOM      5  C   UNL     1       3.225   4.245  19.169  0.00  0.00    +0.000 A 
ATOM      6  S   UNL     1       3.241   2.695  19.924  0.00  0.00    +0.000 S 
ATOM      7  H   UNL     1       1.145   2.829  22.806  0.00  0.00    +0.000 HD
ATOM      8  H   UNL     1       1.976   1.495  22.124  0.00  0.00    +0.000 HD
ENDROOT
BRANCH   4   9
ATOM      9  C   UNL     1       2.208   6.529  19.667  0.00  0.00    +0.000 A 
ATOM     10  C   UNL     1       2.522   7.053  18.402  0.00  0.00    +0.000 A 
ATOM     11  C   UNL     1       2.249   8.389  18.087  0.00  0.00    +0.000 A 
ATOM     12  C   UNL     1       1.655   9.212  19.038  0.00  0.00    +0.000 A 
ATOM     13 BR   UNL     1       1.206  10.994  18.601  0.00  0.00    +0.000 Br
ATOM     14  C   UNL     1       1.384   8.725  20.313  0.00  0.00    +0.000 A 
ATOM     15  C   UNL     1       1.687   7.397  20.632  0.00  0.00    +0.000 A 
ENDBRANCH   4   9
BRANCH   5  16
ATOM     16  S   UNL     1       4.214   4.375  17.703  0.00  0.00    +0.000 S 
ATOM     17  O   UNL     1       4.592   3.015  17.374  0.00  0.00    +0.000 OA
ATOM     18  O   UNL     1       3.484   5.196  16.753  0.00  0.00    +0.000 OA
BRANCH  16  19
ATOM     19  C   UNL     1       5.699   5.267  18.105  0.00  0.00    +0.000 A 
ATOM     20  C   UNL     1       6.136   6.264  17.225  0.00  0.00    +0.000 A 
ATOM     21  C   UNL     1       7.270   7.013  17.540  0.00  0.00    +0.000 A 
ATOM     22  C   UNL     1       7.968   6.760  18.722  0.00  0.00    +0.000 A 
ATOM     23  C   UNL     1       7.543   5.749  19.585  0.00  0.00    +0.000 A 
ATOM     24  C   UNL     1       6.408   4.996  19.279  0.00  0.00    +0.000 A 
ENDBRANCH  16  19
ENDBRANCH   5  16
TORSDOF 3
ENDMDL
MODEL 9
REMARK VINA RESULT:      -6.7      2.625      4.573
REMARK  Name = 
REMARK  3 active torsions:
REMARK  status: ('A' for Active; 'I' for Inactive)
REMARK    1  A    between atoms: C_4  and  C_5
REMARK    2  A    between atoms: C_12  and  S_13
REMARK    3  A    between atoms: S_13  and  C_16
REMARK                            x       y       z     vdW  Elec       q    Type
REMARK                         _______ _______ _______ _____ _____    ______ ____
ROOT
ATOM      1  N   UNL     1       1.966   2.659  22.148  0.00  0.00    +0.000 N 
ATOM      2  C   UNL     1       2.326   3.395  21.089  0.00  0.00    +0.000 A 
ATOM      3  N   UNL     1       1.908   4.617  20.888  0.00  0.00    +0.000 NA
ATOM      4  C   UNL     1       2.474   5.149  19.728  0.00  0.00    +0.000 A 
ATOM      5  C   UNL     1       3.316   4.280  19.050  0.00  0.00    +0.000 A 
ATOM      6  S   UNL     1       3.369   2.777  19.893  0.00  0.00    +0.000 S 
ATOM      7  H   UNL     1       1.194   2.992  22.711  0.00  0.00    +0.000 HD
ATOM      8  H   UNL     1       2.091   1.655  22.126  0.00  0.00    +0.000 HD
ENDROOT
BRANCH   4   9
ATOM      9  C   UNL     1       2.202   6.548  19.392  0.00  0.00    +0.000 A 
ATOM     10  C   UNL     1       1.653   7.387  20.375  0.00  0.00    +0.000 A 
ATOM     11  C   UNL     1       1.451   8.750  20.129  0.00  0.00    +0.000 A 
ATOM     12  C   UNL     1       1.800   9.284  18.894  0.00  0.00    +0.000 A 
ATOM     13 BR   UNL     1       1.608  11.137  18.576  0.00  0.00    +0.000 Br
ATOM     14  C   UNL     1       2.296   8.460  17.890  0.00  0.00    +0.000 A 
ATOM     15  C   UNL     1       2.468   7.092  18.131  0.00  0.00    +0.000 A 
ENDBRANCH   4   9
BRANCH   5  16
ATOM     16  S   UNL     1       4.338   4.366  17.605  0.00  0.00    +0.000 S 
ATOM     17  O   UNL     1       4.760   3.002  17.352  0.00  0.00    +0.000 OA
ATOM     18  O   UNL     1       3.612   5.120  16.598  0.00  0.00    +0.000 OA
BRANCH  16  19
ATOM     19  C   UNL     1       5.789   5.316  17.997  0.00  0.00    +0.000 A 
ATOM     20  C   UNL     1       6.146   6.369  17.149  0.00  0.00    +0.000 A 
ATOM     21  C   UNL     1       7.251   7.162  17.460  0.00  0.00    +0.000 A 
ATOM     22  C   UNL     1       8.000   6.896  18.607  0.00  0.00    +0.000 A 
ATOM     23  C   UNL     1       7.656   5.830  19.438  0.00  0.00    +0.000 A 
ATOM     24  C   UNL     1       6.550   5.033  19.136  0.00  0.00    +0.000 A 
ENDBRANCH  16  19
ENDBRANCH   5  16
TORSDOF 3
ENDMDL
