MODEL 1
REMARK VINA RESULT:      -7.4      0.000      0.000
REMARK  Name = 
REMARK  3 active torsions:
REMARK  status: ('A' for Active; 'I' for Inactive)
REMARK    1  A    between atoms: N_3  and  C_4
REMARK    2  A    between atoms: N_10  and  S_11
REMARK    3  A    between atoms: S_11  and  C_14
REMARK                            x       y       z     vdW  Elec       q    Type
REMARK                         _______ _______ _______ _____ _____    ______ ____
ROOT
ATOM      1  O   UNL     1       3.949   7.348  17.255  0.00  0.00    +0.000 OA
ATOM      2  C   UNL     1       4.377   6.212  17.184  0.00  0.00    +0.000 C 
ATOM      3  N   UNL     1       3.749   5.124  17.720  0.00  0.00    +0.000 N 
ATOM      4  N   UNL     1       5.571   5.981  16.509  0.00  0.00    +0.000 N 
ATOM      5  H   UNL     1       4.298   4.270  17.778  0.00  0.00    +0.000 HD
ATOM      6  H   UNL     1       6.045   6.812  16.160  0.00  0.00    +0.000 HD
ENDROOT
BRANCH   3   7
ATOM      7  C   UNL     1       2.507   5.189  18.477  0.00  0.00    +0.000 C 
ATOM      8  C   UNL     1       1.474   4.228  17.874  0.00  0.00    +0.000 C 
ATOM      9  C   UNL     1       1.812   2.758  18.131  0.00  0.00    +0.000 C 
ATOM     10  C   UNL     1       2.024   2.481  19.616  0.00  0.00    +0.000 C 
ATOM     11  C   UNL     1       3.060   3.420  20.226  0.00  0.00    +0.000 C 
ATOM     12  C   UNL     1       2.721   4.888  19.966  0.00  0.00    +0.000 C 
ENDBRANCH   3   7
BRANCH   4  13
ATOM     13  S   UNL     1       6.377   4.544  16.276  0.00  0.00    +0.000 S 
ATOM     14  O   UNL     1       7.679   4.716  16.880  0.00  0.00    +0.000 OA
ATOM     15  O   UNL     1       5.494   3.490  16.742  0.00  0.00    +0.000 OA
BRANCH  13  16
ATOM     16  C   UNL     1       6.568   4.371  14.542  0.00  0.00    +0.000 C 
ATOM     17  C   UNL     1       5.659   3.662  13.844  0.00  0.00    +0.000 C 
ATOM     18  C   UNL     1       5.724   3.497  12.350  0.00  0.00    +0.000 C 
ATOM     19  C   UNL     1       7.086   3.872  11.765  0.00  0.00    +0.000 C 
ATOM     20  C   UNL     1       7.595   5.179  12.362  0.00  0.00    +0.000 C 
ATOM     21  C   UNL     1       7.719   5.089  13.888  0.00  0.00    +0.000 C 
ENDBRANCH  13  16
ENDBRANCH   4  13
TORSDOF 3
ENDMDL
MODEL 2
REMARK VINA RESULT:      -7.3      0.943      1.030
REMARK  Name = 
REMARK  3 active torsions:
REMARK  status: ('A' for Active; 'I' for Inactive)
REMARK    1  A    between atoms: N_3  and  C_4
REMARK    2  A    between atoms: N_10  and  S_11
REMARK    3  A    between atoms: S_11  and  C_14
REMARK                            x       y       z     vdW  Elec       q    Type
REMARK                         _______ _______ _______ _____ _____    ______ ____
ROOT
ATOM      1  O   UNL     1       3.434   7.193  17.338  0.00  0.00    +0.000 OA
ATOM      2  C   UNL     1       4.311   6.350  17.296  0.00  0.00    +0.000 C 
ATOM      3  N   UNL     1       4.261   5.162  17.968  0.00  0.00    +0.000 N 
ATOM      4  N   UNL     1       5.437   6.584  16.513  0.00  0.00    +0.000 N 
ATOM      5  H   UNL     1       5.131   4.639  18.022  0.00  0.00    +0.000 HD
ATOM      6  H   UNL     1       5.474   7.497  16.061  0.00  0.00    +0.000 HD
ENDROOT
BRANCH   3   7
ATOM      7  C   UNL     1       3.171   4.767  18.848  0.00  0.00    +0.000 C 
ATOM      8  C   UNL     1       2.034   4.144  18.028  0.00  0.00    +0.000 C 
ATOM      9  C   UNL     1       2.387   2.761  17.479  0.00  0.00    +0.000 C 
ATOM     10  C   UNL     1       2.849   1.819  18.587  0.00  0.00    +0.000 C 
ATOM     11  C   UNL     1       3.991   2.418  19.402  0.00  0.00    +0.000 C 
ATOM     12  C   UNL     1       3.636   3.802  19.947  0.00  0.00    +0.000 C 
ENDBRANCH   3   7
BRANCH   4  13
ATOM     13  S   UNL     1       6.773   5.618  16.291  0.00  0.00    +0.000 S 
ATOM     14  O   UNL     1       7.911   6.509  16.281  0.00  0.00    +0.000 OA
ATOM     15  O   UNL     1       6.689   4.557  17.278  0.00  0.00    +0.000 OA
BRANCH  13  16
ATOM     16  C   UNL     1       6.593   4.901  14.700  0.00  0.00    +0.000 C 
ATOM     17  C   UNL     1       5.465   4.224  14.404  0.00  0.00    +0.000 C 
ATOM     18  C   UNL     1       5.212   3.612  13.053  0.00  0.00    +0.000 C 
ATOM     19  C   UNL     1       6.476   3.502  12.199  0.00  0.00    +0.000 C 
ATOM     20  C   UNL     1       7.288   4.790  12.259  0.00  0.00    +0.000 C 
ATOM     21  C   UNL     1       7.692   5.135  13.698  0.00  0.00    +0.000 C 
ENDBRANCH  13  16
ENDBRANCH   4  13
TORSDOF 3
ENDMDL
MODEL 3
REMARK VINA RESULT:      -7.1      3.195      6.312
REMARK  Name = 
REMARK  3 active torsions:
REMARK  status: ('A' for Active; 'I' for Inactive)
REMARK    1  A    between atoms: N_3  and  C_4
REMARK    2  A    between atoms: N_10  and  S_11
REMARK    3  A    between atoms: S_11  and  C_14
REMARK                            x       y       z     vdW  Elec       q    Type
REMARK                         _______ _______ _______ _____ _____    ______ ____
ROOT
ATOM      1  O   UNL     1       5.229   2.161  19.988  0.00  0.00    +0.000 OA
ATOM      2  C   UNL     1       4.378   2.747  19.345  0.00  0.00    +0.000 C 
ATOM      3  N   UNL     1       4.654   3.629  18.339  0.00  0.00    +0.000 N 
ATOM      4  N   UNL     1       3.036   2.511  19.626  0.00  0.00    +0.000 N 
ATOM      5  H   UNL     1       3.879   4.205  18.021  0.00  0.00    +0.000 HD
ATOM      6  H   UNL     1       2.856   1.887  20.411  0.00  0.00    +0.000 HD
ENDROOT
BRANCH   3   7
ATOM      7  C   UNL     1       5.998   4.008  17.932  0.00  0.00    +0.000 C 
ATOM      8  C   UNL     1       6.107   3.996  16.401  0.00  0.00    +0.000 C 
ATOM      9  C   UNL     1       5.344   5.147  15.743  0.00  0.00    +0.000 C 
ATOM     10  C   UNL     1       5.763   6.497  16.315  0.00  0.00    +0.000 C 
ATOM     11  C   UNL     1       5.645   6.531  17.836  0.00  0.00    +0.000 C 
ATOM     12  C   UNL     1       6.407   5.378  18.491  0.00  0.00    +0.000 C 
ENDBRANCH   3   7
BRANCH   4  13
ATOM     13  S   UNL     1       1.688   3.180  18.917  0.00  0.00    +0.000 S 
ATOM     14  O   UNL     1       1.791   2.884  17.506  0.00  0.00    +0.000 OA
ATOM     15  O   UNL     1       0.542   2.712  19.676  0.00  0.00    +0.000 OA
BRANCH  13  16
ATOM     16  C   UNL     1       1.827   4.913  19.150  0.00  0.00    +0.000 C 
ATOM     17  C   UNL     1       1.996   5.713  18.078  0.00  0.00    +0.000 C 
ATOM     18  C   UNL     1       2.084   7.211  18.184  0.00  0.00    +0.000 C 
ATOM     19  C   UNL     1       2.343   7.697  19.611  0.00  0.00    +0.000 C 
ATOM     20  C   UNL     1       1.453   6.961  20.607  0.00  0.00    +0.000 C 
ATOM     21  C   UNL     1       1.680   5.445  20.551  0.00  0.00    +0.000 C 
ENDBRANCH  13  16
ENDBRANCH   4  13
TORSDOF 3
ENDMDL
MODEL 4
REMARK VINA RESULT:      -7.1      0.360      1.202
REMARK  Name = 
REMARK  3 active torsions:
REMARK  status: ('A' for Active; 'I' for Inactive)
REMARK    1  A    between atoms: N_3  and  C_4
REMARK    2  A    between atoms: N_10  and  S_11
REMARK    3  A    between atoms: S_11  and  C_14
REMARK                            x       y       z     vdW  Elec       q    Type
REMARK                         _______ _______ _______ _____ _____    ______ ____
ROOT
ATOM      1  O   UNL     1       3.991   7.346  17.394  0.00  0.00    +0.000 OA
ATOM      2  C   UNL     1       4.372   6.202  17.234  0.00  0.00    +0.000 C 
ATOM      3  N   UNL     1       3.690   5.101  17.670  0.00  0.00    +0.000 N 
ATOM      4  N   UNL     1       5.566   5.975  16.557  0.00  0.00    +0.000 N 
ATOM      5  H   UNL     1       4.201   4.223  17.663  0.00  0.00    +0.000 HD
ATOM      6  H   UNL     1       6.080   6.812  16.284  0.00  0.00    +0.000 HD
ENDROOT
BRANCH   3   7
ATOM      7  C   UNL     1       2.440   5.157  18.413  0.00  0.00    +0.000 C 
ATOM      8  C   UNL     1       1.447   4.133  17.850  0.00  0.00    +0.000 C 
ATOM      9  C   UNL     1       1.834   2.689  18.177  0.00  0.00    +0.000 C 
ATOM     10  C   UNL     1       2.042   2.490  19.675  0.00  0.00    +0.000 C 
ATOM     11  C   UNL     1       3.040   3.493  20.248  0.00  0.00    +0.000 C 
ATOM     12  C   UNL     1       2.651   4.934  19.917  0.00  0.00    +0.000 C 
ENDBRANCH   3   7
BRANCH   4  13
ATOM     13  S   UNL     1       6.314   4.530  16.216  0.00  0.00    +0.000 S 
ATOM     14  O   UNL     1       7.534   4.520  16.990  0.00  0.00    +0.000 OA
ATOM     15  O   UNL     1       5.321   3.489  16.412  0.00  0.00    +0.000 OA
BRANCH  13  16
ATOM     16  C   UNL     1       6.719   4.584  14.510  0.00  0.00    +0.000 C 
ATOM     17  C   UNL     1       7.741   5.360  14.097  0.00  0.00    +0.000 C 
ATOM     18  C   UNL     1       8.181   5.435  12.660  0.00  0.00    +0.000 C 
ATOM     19  C   UNL     1       7.148   4.864  11.687  0.00  0.00    +0.000 C 
ATOM     20  C   UNL     1       6.593   3.539  12.197  0.00  0.00    +0.000 C 
ATOM     21  C   UNL     1       5.941   3.695  13.577  0.00  0.00    +0.000 C 
ENDBRANCH  13  16
ENDBRANCH   4  13
TORSDOF 3
ENDMDL
MODEL 5
REMARK VINA RESULT:      -7.1      1.510      1.759
REMARK  Name = 
REMARK  3 active torsions:
REMARK  status: ('A' for Active; 'I' for Inactive)
REMARK    1  A    between atoms: N_3  and  C_4
REMARK    2  A    between atoms: N_10  and  S_11
REMARK    3  A    between atoms: S_11  and  C_14
REMARK                            x       y       z     vdW  Elec       q    Type
REMARK                         _______ _______ _______ _____ _____    ______ ____
ROOT
ATOM      1  O   UNL     1       2.784   7.198  18.575  0.00  0.00    +0.000 OA
ATOM      2  C   UNL     1       3.481   6.203  18.512  0.00  0.00    +0.000 C 
ATOM      3  N   UNL     1       3.015   4.931  18.693  0.00  0.00    +0.000 N 
ATOM      4  N   UNL     1       4.835   6.343  18.227  0.00  0.00    +0.000 N 
ATOM      5  H   UNL     1       3.719   4.209  18.822  0.00  0.00    +0.000 HD
ATOM      6  H   UNL     1       5.169   7.302  18.144  0.00  0.00    +0.000 HD
ENDROOT
BRANCH   3   7
ATOM      7  C   UNL     1       1.635   4.607  19.020  0.00  0.00    +0.000 C 
ATOM      8  C   UNL     1       1.321   3.165  18.602  0.00  0.00    +0.000 C 
ATOM      9  C   UNL     1       2.009   2.126  19.491  0.00  0.00    +0.000 C 
ATOM     10  C   UNL     1       1.695   2.355  20.966  0.00  0.00    +0.000 C 
ATOM     11  C   UNL     1       2.017   3.782  21.402  0.00  0.00    +0.000 C 
ATOM     12  C   UNL     1       1.330   4.816  20.510  0.00  0.00    +0.000 C 
ENDBRANCH   3   7
BRANCH   4  13
ATOM     13  S   UNL     1       6.002   5.164  18.097  0.00  0.00    +0.000 S 
ATOM     14  O   UNL     1       7.239   5.780  18.519  0.00  0.00    +0.000 OA
ATOM     15  O   UNL     1       5.496   3.997  18.796  0.00  0.00    +0.000 OA
BRANCH  13  16
ATOM     16  C   UNL     1       6.110   4.775  16.390  0.00  0.00    +0.000 C 
ATOM     17  C   UNL     1       5.020   4.306  15.749  0.00  0.00    +0.000 C 
ATOM     18  C   UNL     1       5.013   3.985  14.278  0.00  0.00    +0.000 C 
ATOM     19  C   UNL     1       6.418   3.877  13.682  0.00  0.00    +0.000 C 
ATOM     20  C   UNL     1       7.302   5.024  14.160  0.00  0.00    +0.000 C 
ATOM     21  C   UNL     1       7.413   5.049  15.689  0.00  0.00    +0.000 C 
ENDBRANCH  13  16
ENDBRANCH   4  13
TORSDOF 3
ENDMDL
MODEL 6
REMARK VINA RESULT:      -7.1      3.052      6.334
REMARK  Name = 
REMARK  3 active torsions:
REMARK  status: ('A' for Active; 'I' for Inactive)
REMARK    1  A    between atoms: N_3  and  C_4
REMARK    2  A    between atoms: N_10  and  S_11
REMARK    3  A    between atoms: S_11  and  C_14
REMARK                            x       y       z     vdW  Elec       q    Type
REMARK                         _______ _______ _______ _____ _____    ______ ____
ROOT
ATOM      1  O   UNL     1       5.221   2.501  19.906  0.00  0.00    +0.000 OA
ATOM      2  C   UNL     1       4.360   3.079  19.270  0.00  0.00    +0.000 C 
ATOM      3  N   UNL     1       4.615   3.897  18.206  0.00  0.00    +0.000 N 
ATOM      4  N   UNL     1       3.026   2.901  19.622  0.00  0.00    +0.000 N 
ATOM      5  H   UNL     1       3.844   4.480  17.892  0.00  0.00    +0.000 HD
ATOM      6  H   UNL     1       2.863   2.326  20.447  0.00  0.00    +0.000 HD
ENDROOT
BRANCH   3   7
ATOM      7  C   UNL     1       5.951   4.211  17.721  0.00  0.00    +0.000 C 
ATOM      8  C   UNL     1       6.029   3.972  16.207  0.00  0.00    +0.000 C 
ATOM      9  C   UNL     1       5.250   5.014  15.402  0.00  0.00    +0.000 C 
ATOM     10  C   UNL     1       5.677   6.434  15.760  0.00  0.00    +0.000 C 
ATOM     11  C   UNL     1       5.591   6.692  17.262  0.00  0.00    +0.000 C 
ATOM     12  C   UNL     1       6.368   5.647  18.063  0.00  0.00    +0.000 C 
ENDBRANCH   3   7
BRANCH   4  13
ATOM     13  S   UNL     1       1.667   3.574  18.937  0.00  0.00    +0.000 S 
ATOM     14  O   UNL     1       1.769   3.321  17.518  0.00  0.00    +0.000 OA
ATOM     15  O   UNL     1       0.529   3.070  19.686  0.00  0.00    +0.000 OA
BRANCH  13  16
ATOM     16  C   UNL     1       1.786   5.301  19.221  0.00  0.00    +0.000 C 
ATOM     17  C   UNL     1       1.685   5.772  20.480  0.00  0.00    +0.000 C 
ATOM     18  C   UNL     1       1.815   7.233  20.817  0.00  0.00    +0.000 C 
ATOM     19  C   UNL     1       1.691   8.144  19.594  0.00  0.00    +0.000 C 
ATOM     20  C   UNL     1       2.511   7.604  18.427  0.00  0.00    +0.000 C 
ATOM     21  C   UNL     1       2.069   6.187  18.038  0.00  0.00    +0.000 C 
ENDBRANCH  13  16
ENDBRANCH   4  13
TORSDOF 3
ENDMDL
MODEL 7
REMARK VINA RESULT:      -7.1      2.953      6.361
REMARK  Name = 
REMARK  3 active torsions:
REMARK  status: ('A' for Active; 'I' for Inactive)
REMARK    1  A    between atoms: N_3  and  C_4
REMARK    2  A    between atoms: N_10  and  S_11
REMARK    3  A    between atoms: S_11  and  C_14
REMARK                            x       y       z     vdW  Elec       q    Type
REMARK                         _______ _______ _______ _____ _____    ______ ____
ROOT
ATOM      1  O   UNL     1       4.906   3.727  15.461  0.00  0.00    +0.000 OA
ATOM      2  C   UNL     1       4.799   3.789  16.671  0.00  0.00    +0.000 C 
ATOM      3  N   UNL     1       5.802   4.189  17.507  0.00  0.00    +0.000 N 
ATOM      4  N   UNL     1       3.585   3.450  17.260  0.00  0.00    +0.000 N 
ATOM      5  H   UNL     1       5.664   4.002  18.497  0.00  0.00    +0.000 HD
ATOM      6  H   UNL     1       2.868   3.109  16.622  0.00  0.00    +0.000 HD
ENDROOT
BRANCH   3   7
ATOM      7  C   UNL     1       7.138   4.555  17.061  0.00  0.00    +0.000 C 
ATOM      8  C   UNL     1       7.097   5.905  16.334  0.00  0.00    +0.000 C 
ATOM      9  C   UNL     1       6.850   7.082  17.280  0.00  0.00    +0.000 C 
ATOM     10  C   UNL     1       7.857   7.102  18.425  0.00  0.00    +0.000 C 
ATOM     11  C   UNL     1       7.899   5.769  19.169  0.00  0.00    +0.000 C 
ATOM     12  C   UNL     1       8.144   4.596  18.220  0.00  0.00    +0.000 C 
ENDBRANCH   3   7
BRANCH   4  13
ATOM     13  S   UNL     1       3.177   3.434  18.873  0.00  0.00    +0.000 S 
ATOM     14  O   UNL     1       2.051   2.535  18.990  0.00  0.00    +0.000 OA
ATOM     15  O   UNL     1       4.399   3.168  19.611  0.00  0.00    +0.000 OA
BRANCH  13  16
ATOM     16  C   UNL     1       2.651   5.062  19.256  0.00  0.00    +0.000 C 
ATOM     17  C   UNL     1       2.749   6.027  18.319  0.00  0.00    +0.000 C 
ATOM     18  C   UNL     1       2.285   7.439  18.550  0.00  0.00    +0.000 C 
ATOM     19  C   UNL     1       2.055   7.761  20.027  0.00  0.00    +0.000 C 
ATOM     20  C   UNL     1       1.292   6.636  20.718  0.00  0.00    +0.000 C 
ATOM     21  C   UNL     1       2.040   5.301  20.611  0.00  0.00    +0.000 C 
ENDBRANCH  13  16
ENDBRANCH   4  13
TORSDOF 3
ENDMDL
MODEL 8
REMARK VINA RESULT:      -7.0      3.044      6.183
REMARK  Name = 
REMARK  3 active torsions:
REMARK  status: ('A' for Active; 'I' for Inactive)
REMARK    1  A    between atoms: N_3  and  C_4
REMARK    2  A    between atoms: N_10  and  S_11
REMARK    3  A    between atoms: S_11  and  C_14
REMARK                            x       y       z     vdW  Elec       q    Type
REMARK                         _______ _______ _______ _____ _____    ______ ____
ROOT
ATOM      1  O   UNL     1       4.944   3.583  15.531  0.00  0.00    +0.000 OA
ATOM      2  C   UNL     1       4.761   3.856  16.702  0.00  0.00    +0.000 C 
ATOM      3  N   UNL     1       5.723   4.371  17.525  0.00  0.00    +0.000 N 
ATOM      4  N   UNL     1       3.502   3.653  17.256  0.00  0.00    +0.000 N 
ATOM      5  H   UNL     1       5.515   4.363  18.520  0.00  0.00    +0.000 HD
ATOM      6  H   UNL     1       2.815   3.223  16.637  0.00  0.00    +0.000 HD
ENDROOT
BRANCH   3   7
ATOM      7  C   UNL     1       7.096   4.624  17.116  0.00  0.00    +0.000 C 
ATOM      8  C   UNL     1       7.185   5.962  16.369  0.00  0.00    +0.000 C 
ATOM      9  C   UNL     1       7.003   7.169  17.291  0.00  0.00    +0.000 C 
ATOM     10  C   UNL     1       7.973   7.128  18.467  0.00  0.00    +0.000 C 
ATOM     11  C   UNL     1       7.887   5.809  19.230  0.00  0.00    +0.000 C 
ATOM     12  C   UNL     1       8.067   4.605  18.305  0.00  0.00    +0.000 C 
ENDBRANCH   3   7
BRANCH   4  13
ATOM     13  S   UNL     1       2.991   3.926  18.815  0.00  0.00    +0.000 S 
ATOM     14  O   UNL     1       1.765   3.175  18.970  0.00  0.00    +0.000 OA
ATOM     15  O   UNL     1       4.124   3.652  19.680  0.00  0.00    +0.000 OA
BRANCH  13  16
ATOM     16  C   UNL     1       2.629   5.639  18.914  0.00  0.00    +0.000 C 
ATOM     17  C   UNL     1       2.189   6.156  20.079  0.00  0.00    +0.000 C 
ATOM     18  C   UNL     1       1.894   7.620  20.263  0.00  0.00    +0.000 C 
ATOM     19  C   UNL     1       1.774   8.377  18.939  0.00  0.00    +0.000 C 
ATOM     20  C   UNL     1       2.898   7.989  17.985  0.00  0.00    +0.000 C 
ATOM     21  C   UNL     1       2.895   6.483  17.696  0.00  0.00    +0.000 C 
ENDBRANCH  13  16
ENDBRANCH   4  13
TORSDOF 3
ENDMDL
MODEL 9
REMARK VINA RESULT:      -6.8      1.703      2.320
REMARK  Name = 
REMARK  3 active torsions:
REMARK  status: ('A' for Active; 'I' for Inactive)
REMARK    1  A    between atoms: N_3  and  C_4
REMARK    2  A    between atoms: N_10  and  S_11
REMARK    3  A    between atoms: S_11  and  C_14
REMARK                            x       y       z     vdW  Elec       q    Type
REMARK                         _______ _______ _______ _____ _____    ______ ____
ROOT
ATOM      1  O   UNL     1       2.619   7.294  18.600  0.00  0.00    +0.000 OA
ATOM      2  C   UNL     1       3.401   6.362  18.607  0.00  0.00    +0.000 C 
ATOM      3  N   UNL     1       3.035   5.059  18.797  0.00  0.00    +0.000 N 
ATOM      4  N   UNL     1       4.753   6.612  18.396  0.00  0.00    +0.000 N 
ATOM      5  H   UNL     1       3.789   4.404  18.988  0.00  0.00    +0.000 HD
ATOM      6  H   UNL     1       5.008   7.595  18.305  0.00  0.00    +0.000 HD
ENDROOT
BRANCH   3   7
ATOM      7  C   UNL     1       1.671   4.625  19.054  0.00  0.00    +0.000 C 
ATOM      8  C   UNL     1       1.474   3.189  18.550  0.00  0.00    +0.000 C 
ATOM      9  C   UNL     1       2.201   2.153  19.410  0.00  0.00    +0.000 C 
ATOM     10  C   UNL     1       1.820   2.279  20.882  0.00  0.00    +0.000 C 
ATOM     11  C   UNL     1       2.025   3.699  21.402  0.00  0.00    +0.000 C 
ATOM     12  C   UNL     1       1.299   4.731  20.539  0.00  0.00    +0.000 C 
ENDBRANCH   3   7
BRANCH   4  13
ATOM     13  S   UNL     1       6.022   5.536  18.368  0.00  0.00    +0.000 S 
ATOM     14  O   UNL     1       7.210   6.314  18.637  0.00  0.00    +0.000 OA
ATOM     15  O   UNL     1       5.658   4.439  19.247  0.00  0.00    +0.000 OA
BRANCH  13  16
ATOM     16  C   UNL     1       6.099   4.921  16.728  0.00  0.00    +0.000 C 
ATOM     17  C   UNL     1       7.024   5.414  15.880  0.00  0.00    +0.000 C 
ATOM     18  C   UNL     1       7.186   4.915  14.469  0.00  0.00    +0.000 C 
ATOM     19  C   UNL     1       5.990   4.094  13.983  0.00  0.00    +0.000 C 
ATOM     20  C   UNL     1       5.545   3.097  15.047  0.00  0.00    +0.000 C 
ATOM     21  C   UNL     1       5.162   3.803  16.354  0.00  0.00    +0.000 C 
ENDBRANCH  13  16
ENDBRANCH   4  13
TORSDOF 3
ENDMDL
