MODEL 1
REMARK VINA RESULT:      -9.1      0.000      0.000
REMARK  Name = 
REMARK  10 active torsions:
REMARK  status: ('A' for Active; 'I' for Inactive)
REMARK    1  A    between atoms: C_1  and  C_2
REMARK    2  A    between atoms: C_2  and  C_3
REMARK    3  A    between atoms: C_3  and  C_4
REMARK    4  A    between atoms: C_4  and  C_5
REMARK    5  A    between atoms: C_10  and  C_11
REMARK    6  A    between atoms: C_11  and  N_12
REMARK    7  A    between atoms: N_17  and  C_18
REMARK    8  A    between atoms: C_18  and  C_19
REMARK    9  A    between atoms: C_22  and  C_23
REMARK   10  A    between atoms: C_28  and  C_29
REMARK                            x       y       z     vdW  Elec       q    Type
REMARK                         _______ _______ _______ _____ _____    ______ ____
ROOT
ATOM      1  C   UNL     1      -1.005  10.791  18.477  0.00  0.00    +0.000 A 
ATOM      2  N   UNL     1      -2.015  11.290  19.118  0.00  0.00    +0.000 NA
ATOM      3  C   UNL     1      -1.796  12.110  20.220  0.00  0.00    +0.000 A 
ATOM      4  C   UNL     1      -2.900  12.525  20.963  0.00  0.00    +0.000 A 
ATOM      5  C   UNL     1      -2.722  13.248  22.142  0.00  0.00    +0.000 A 
ATOM      6  C   UNL     1      -1.434  13.577  22.587  0.00  0.00    +0.000 A 
ATOM      7  C   UNL     1      -0.327  13.178  21.817  0.00  0.00    +0.000 A 
ATOM      8  C   UNL     1      -0.517  12.444  20.631  0.00  0.00    +0.000 A 
ATOM      9  C   UNL     1       0.614  11.944  19.833  0.00  0.00    +0.000 A 
ATOM     10  O   UNL     1       1.751  12.260  20.169  0.00  0.00    +0.000 OA
ATOM     11  N   UNL     1       0.314  11.099  18.750  0.00  0.00    +0.000 N 
ENDROOT
BRANCH   1  12
ATOM     12  C   UNL     1      -1.423   9.760  17.437  0.00  0.00    +0.000 C 
BRANCH  12  13
ATOM     13  C   UNL     1      -2.831   9.974  16.885  0.00  0.00    +0.000 C 
BRANCH  13  15
ATOM     14  C   UNL     1      -3.111  10.062  14.382  0.00  0.00    +0.000 C 
ATOM     15  C   UNL     1      -2.858  10.870  15.643  0.00  0.00    +0.000 C 
ENDBRANCH  13  15
ENDBRANCH  12  13
ENDBRANCH   1  12
BRANCH   6  16
ATOM     16  C   UNL     1      -1.253  14.317  23.888  0.00  0.00    +0.000 C 
BRANCH  16  17
ATOM     17  N   UNL     1      -0.268  15.384  23.760  0.00  0.00    +0.000 NA
ATOM     18  H   UNL     1      -0.181  15.862  24.656  0.00  0.00    +0.000 HD
ATOM     19  H   UNL     1      -0.608  16.076  23.096  0.00  0.00    +0.000 HD
ENDBRANCH  16  17
ENDBRANCH   6  16
BRANCH  11  20
ATOM     20  C   UNL     1       1.488  10.507  18.065  0.00  0.00    +0.000 C 
BRANCH  20  21
ATOM     21  C   UNL     1       1.934   9.161  18.590  0.00  0.00    +0.000 A 
ATOM     22  C   UNL     1       2.593   8.254  17.759  0.00  0.00    +0.000 A 
ATOM     23  C   UNL     1       2.788   6.926  18.169  0.00  0.00    +0.000 A 
ATOM     24  C   UNL     1       2.340   6.463  19.421  0.00  0.00    +0.000 A 
ATOM     25  C   UNL     1       1.909   7.449  20.320  0.00  0.00    +0.000 A 
ATOM     26  C   UNL     1       1.692   8.770  19.909  0.00  0.00    +0.000 A 
BRANCH  24  27
ATOM     27  C   UNL     1       2.261   5.000  19.735  0.00  0.00    +0.000 A 
ATOM     28  C   UNL     1       1.088   4.482  20.337  0.00  0.00    +0.000 A 
ATOM     29  C   UNL     1       0.962   3.136  20.700  0.00  0.00    +0.000 A 
ATOM     30  C   UNL     1       1.993   2.245  20.444  0.00  0.00    +0.000 A 
ATOM     31  C   UNL     1       3.160   2.709  19.849  0.00  0.00    +0.000 A 
ATOM     32  C   UNL     1       3.323   4.074  19.518  0.00  0.00    +0.000 A 
BRANCH  32  33
ATOM     33  C   UNL     1       4.634   4.435  18.987  0.00  0.00    +0.000 A 
ATOM     34  N   UNL     1       5.642   4.918  19.793  0.00  0.00    +0.000 NA
ATOM     35  N   UNL     1       6.696   5.114  19.014  0.00  0.00    +0.000 NA
ATOM     36  N   UNL     1       6.279   4.765  17.793  0.00  0.00    +0.000 N 
ATOM     37  N   UNL     1       5.002   4.373  17.695  0.00  0.00    +0.000 NA
ATOM     38  H   UNL     1       6.903   4.778  16.991  0.00  0.00    +0.000 HD
ENDBRANCH  32  33
ENDBRANCH  24  27
ENDBRANCH  20  21
ENDBRANCH  11  20
TORSDOF 9
ENDMDL
MODEL 2
REMARK VINA RESULT:      -8.9      2.660      3.640
REMARK  Name = 
REMARK  10 active torsions:
REMARK  status: ('A' for Active; 'I' for Inactive)
REMARK    1  A    between atoms: C_1  and  C_2
REMARK    2  A    between atoms: C_2  and  C_3
REMARK    3  A    between atoms: C_3  and  C_4
REMARK    4  A    between atoms: C_4  and  C_5
REMARK    5  A    between atoms: C_10  and  C_11
REMARK    6  A    between atoms: C_11  and  N_12
REMARK    7  A    between atoms: N_17  and  C_18
REMARK    8  A    between atoms: C_18  and  C_19
REMARK    9  A    between atoms: C_22  and  C_23
REMARK   10  A    between atoms: C_28  and  C_29
REMARK                            x       y       z     vdW  Elec       q    Type
REMARK                         _______ _______ _______ _____ _____    ______ ____
ROOT
ATOM      1  C   UNL     1      -0.575  11.740  19.181  0.00  0.00    +0.000 A 
ATOM      2  N   UNL     1      -0.778  12.884  18.607  0.00  0.00    +0.000 NA
ATOM      3  C   UNL     1       0.040  13.965  18.918  0.00  0.00    +0.000 A 
ATOM      4  C   UNL     1      -0.283  15.212  18.382  0.00  0.00    +0.000 A 
ATOM      5  C   UNL     1       0.435  16.346  18.759  0.00  0.00    +0.000 A 
ATOM      6  C   UNL     1       1.496  16.246  19.670  0.00  0.00    +0.000 A 
ATOM      7  C   UNL     1       1.833  14.981  20.184  0.00  0.00    +0.000 A 
ATOM      8  C   UNL     1       1.098  13.842  19.801  0.00  0.00    +0.000 A 
ATOM      9  C   UNL     1       1.368  12.513  20.370  0.00  0.00    +0.000 A 
ATOM     10  O   UNL     1       2.323  12.384  21.128  0.00  0.00    +0.000 OA
ATOM     11  N   UNL     1       0.482  11.475  20.029  0.00  0.00    +0.000 N 
ENDROOT
BRANCH   1  12
ATOM     12  C   UNL     1      -1.680  10.733  18.884  0.00  0.00    +0.000 C 
BRANCH  12  13
ATOM     13  C   UNL     1      -1.658  10.194  17.455  0.00  0.00    +0.000 C 
BRANCH  13  15
ATOM     14  C   UNL     1      -3.015   9.917  15.350  0.00  0.00    +0.000 C 
ATOM     15  C   UNL     1      -3.059  10.003  16.865  0.00  0.00    +0.000 C 
ENDBRANCH  13  15
ENDBRANCH  12  13
ENDBRANCH   1  12
BRANCH   6  16
ATOM     16  C   UNL     1       2.233  17.486  20.106  0.00  0.00    +0.000 C 
BRANCH  16  17
ATOM     17  N   UNL     1       3.572  17.539  19.531  0.00  0.00    +0.000 NA
ATOM     18  H   UNL     1       3.591  18.252  18.803  0.00  0.00    +0.000 HD
ATOM     19  H   UNL     1       3.775  16.654  19.073  0.00  0.00    +0.000 HD
ENDBRANCH  16  17
ENDBRANCH   6  16
BRANCH  11  20
ATOM     20  C   UNL     1       0.710  10.192  20.735  0.00  0.00    +0.000 C 
BRANCH  20  21
ATOM     21  C   UNL     1       1.264   9.072  19.883  0.00  0.00    +0.000 A 
ATOM     22  C   UNL     1       1.582   7.836  20.448  0.00  0.00    +0.000 A 
ATOM     23  C   UNL     1       2.315   6.888  19.718  0.00  0.00    +0.000 A 
ATOM     24  C   UNL     1       2.747   7.139  18.401  0.00  0.00    +0.000 A 
ATOM     25  C   UNL     1       2.205   8.275  17.784  0.00  0.00    +0.000 A 
ATOM     26  C   UNL     1       1.492   9.234  18.515  0.00  0.00    +0.000 A 
BRANCH  24  27
ATOM     27  C   UNL     1       3.780   6.280  17.736  0.00  0.00    +0.000 A 
ATOM     28  C   UNL     1       4.886   6.894  17.099  0.00  0.00    +0.000 A 
ATOM     29  C   UNL     1       5.864   6.158  16.419  0.00  0.00    +0.000 A 
ATOM     30  C   UNL     1       5.794   4.774  16.380  0.00  0.00    +0.000 A 
ATOM     31  C   UNL     1       4.729   4.129  16.998  0.00  0.00    +0.000 A 
ATOM     32  C   UNL     1       3.707   4.859  17.649  0.00  0.00    +0.000 A 
BRANCH  32  33
ATOM     33  C   UNL     1       2.604   4.058  18.171  0.00  0.00    +0.000 A 
ATOM     34  N   UNL     1       2.703   3.360  19.356  0.00  0.00    +0.000 NA
ATOM     35  N   UNL     1       1.533   2.772  19.554  0.00  0.00    +0.000 NA
ATOM     36  N   UNL     1       0.799   3.120  18.491  0.00  0.00    +0.000 N 
ATOM     37  N   UNL     1       1.412   3.881  17.576  0.00  0.00    +0.000 NA
ATOM     38  H   UNL     1      -0.172   2.838  18.398  0.00  0.00    +0.000 HD
ENDBRANCH  32  33
ENDBRANCH  24  27
ENDBRANCH  20  21
ENDBRANCH  11  20
TORSDOF 9
ENDMDL
MODEL 3
REMARK VINA RESULT:      -8.8      1.912      3.901
REMARK  Name = 
REMARK  10 active torsions:
REMARK  status: ('A' for Active; 'I' for Inactive)
REMARK    1  A    between atoms: C_1  and  C_2
REMARK    2  A    between atoms: C_2  and  C_3
REMARK    3  A    between atoms: C_3  and  C_4
REMARK    4  A    between atoms: C_4  and  C_5
REMARK    5  A    between atoms: C_10  and  C_11
REMARK    6  A    between atoms: C_11  and  N_12
REMARK    7  A    between atoms: N_17  and  C_18
REMARK    8  A    between atoms: C_18  and  C_19
REMARK    9  A    between atoms: C_22  and  C_23
REMARK   10  A    between atoms: C_28  and  C_29
REMARK                            x       y       z     vdW  Elec       q    Type
REMARK                         _______ _______ _______ _____ _____    ______ ____
ROOT
ATOM      1  C   UNL     1      -0.033  11.916  19.712  0.00  0.00    +0.000 A 
ATOM      2  N   UNL     1      -1.113  12.394  20.245  0.00  0.00    +0.000 NA
ATOM      3  C   UNL     1      -2.352  12.064  19.705  0.00  0.00    +0.000 A 
ATOM      4  C   UNL     1      -3.485  12.694  20.220  0.00  0.00    +0.000 A 
ATOM      5  C   UNL     1      -4.732  12.487  19.632  0.00  0.00    +0.000 A 
ATOM      6  C   UNL     1      -4.866  11.633  18.528  0.00  0.00    +0.000 A 
ATOM      7  C   UNL     1      -3.723  10.980  18.033  0.00  0.00    +0.000 A 
ATOM      8  C   UNL     1      -2.466  11.201  18.629  0.00  0.00    +0.000 A 
ATOM      9  C   UNL     1      -1.235  10.596  18.099  0.00  0.00    +0.000 A 
ATOM     10  O   UNL     1      -1.327   9.804  17.167  0.00  0.00    +0.000 OA
ATOM     11  N   UNL     1      -0.018  10.998  18.680  0.00  0.00    +0.000 N 
ENDROOT
BRANCH   1  12
ATOM     12  C   UNL     1       1.231  12.538  20.293  0.00  0.00    +0.000 C 
BRANCH  12  13
ATOM     13  C   UNL     1       1.596  13.887  19.677  0.00  0.00    +0.000 C 
BRANCH  13  15
ATOM     14  C   UNL     1       3.852  14.737  20.409  0.00  0.00    +0.000 C 
ATOM     15  C   UNL     1       3.083  14.003  19.326  0.00  0.00    +0.000 C 
ENDBRANCH  13  15
ENDBRANCH  12  13
ENDBRANCH   1  12
BRANCH   6  16
ATOM     16  C   UNL     1      -6.212  11.455  17.873  0.00  0.00    +0.000 C 
BRANCH  16  17
ATOM     17  N   UNL     1      -7.155  10.796  18.768  0.00  0.00    +0.000 NA
ATOM     18  H   UNL     1      -7.175   9.801  18.552  0.00  0.00    +0.000 HD
ATOM     19  H   UNL     1      -8.092  11.150  18.586  0.00  0.00    +0.000 HD
ENDBRANCH  16  17
ENDBRANCH   6  16
BRANCH  11  20
ATOM     20  C   UNL     1       1.201  10.473  18.021  0.00  0.00    +0.000 C 
BRANCH  20  21
ATOM     21  C   UNL     1       1.735   9.176  18.585  0.00  0.00    +0.000 A 
ATOM     22  C   UNL     1       2.436   8.281  17.776  0.00  0.00    +0.000 A 
ATOM     23  C   UNL     1       2.718   6.982  18.229  0.00  0.00    +0.000 A 
ATOM     24  C   UNL     1       2.315   6.538  19.503  0.00  0.00    +0.000 A 
ATOM     25  C   UNL     1       1.837   7.528  20.374  0.00  0.00    +0.000 A 
ATOM     26  C   UNL     1       1.535   8.818  19.921  0.00  0.00    +0.000 A 
BRANCH  24  27
ATOM     27  C   UNL     1       2.330   5.085  19.870  0.00  0.00    +0.000 A 
ATOM     28  C   UNL     1       1.222   4.532  20.556  0.00  0.00    +0.000 A 
ATOM     29  C   UNL     1       1.186   3.195  20.970  0.00  0.00    +0.000 A 
ATOM     30  C   UNL     1       2.245   2.348  20.683  0.00  0.00    +0.000 A 
ATOM     31  C   UNL     1       3.351   2.847  20.006  0.00  0.00    +0.000 A 
ATOM     32  C   UNL     1       3.425   4.206  19.621  0.00  0.00    +0.000 A 
BRANCH  32  33
ATOM     33  C   UNL     1       4.683   4.612  19.003  0.00  0.00    +0.000 A 
ATOM     34  N   UNL     1       4.978   4.324  17.688  0.00  0.00    +0.000 NA
ATOM     35  N   UNL     1       6.166   4.853  17.436  0.00  0.00    +0.000 NA
ATOM     36  N   UNL     1       6.536   5.412  18.593  0.00  0.00    +0.000 N 
ATOM     37  N   UNL     1       5.684   5.266  19.616  0.00  0.00    +0.000 NA
ATOM     38  H   UNL     1       7.403   5.933  18.682  0.00  0.00    +0.000 HD
ENDBRANCH  32  33
ENDBRANCH  24  27
ENDBRANCH  20  21
ENDBRANCH  11  20
TORSDOF 9
ENDMDL
MODEL 4
REMARK VINA RESULT:      -8.7      2.488      3.263
REMARK  Name = 
REMARK  10 active torsions:
REMARK  status: ('A' for Active; 'I' for Inactive)
REMARK    1  A    between atoms: C_1  and  C_2
REMARK    2  A    between atoms: C_2  and  C_3
REMARK    3  A    between atoms: C_3  and  C_4
REMARK    4  A    between atoms: C_4  and  C_5
REMARK    5  A    between atoms: C_10  and  C_11
REMARK    6  A    between atoms: C_11  and  N_12
REMARK    7  A    between atoms: N_17  and  C_18
REMARK    8  A    between atoms: C_18  and  C_19
REMARK    9  A    between atoms: C_22  and  C_23
REMARK   10  A    between atoms: C_28  and  C_29
REMARK                            x       y       z     vdW  Elec       q    Type
REMARK                         _______ _______ _______ _____ _____    ______ ____
ROOT
ATOM      1  C   UNL     1      -1.036  11.567  18.875  0.00  0.00    +0.000 A 
ATOM      2  N   UNL     1      -1.085  12.793  18.458  0.00  0.00    +0.000 NA
ATOM      3  C   UNL     1      -0.279  13.757  19.053  0.00  0.00    +0.000 A 
ATOM      4  C   UNL     1      -0.448  15.087  18.670  0.00  0.00    +0.000 A 
ATOM      5  C   UNL     1       0.252  16.101  19.323  0.00  0.00    +0.000 A 
ATOM      6  C   UNL     1       1.143  15.796  20.361  0.00  0.00    +0.000 A 
ATOM      7  C   UNL     1       1.329  14.449  20.723  0.00  0.00    +0.000 A 
ATOM      8  C   UNL     1       0.613  13.433  20.061  0.00  0.00    +0.000 A 
ATOM      9  C   UNL     1       0.722  12.020  20.455  0.00  0.00    +0.000 A 
ATOM     10  O   UNL     1       1.532  11.716  21.324  0.00  0.00    +0.000 OA
ATOM     11  N   UNL     1      -0.146  11.108  19.826  0.00  0.00    +0.000 N 
ENDROOT
BRANCH   1  12
ATOM     12  C   UNL     1      -2.124  10.695  18.261  0.00  0.00    +0.000 C 
BRANCH  12  13
ATOM     13  C   UNL     1      -1.683   9.952  17.002  0.00  0.00    +0.000 C 
BRANCH  13  15
ATOM     14  C   UNL     1      -3.779  11.050  16.135  0.00  0.00    +0.000 C 
ATOM     15  C   UNL     1      -2.742   9.968  15.894  0.00  0.00    +0.000 C 
ENDBRANCH  13  15
ENDBRANCH  12  13
ENDBRANCH   1  12
BRANCH   6  16
ATOM     16  C   UNL     1       1.858  16.905  21.090  0.00  0.00    +0.000 C 
BRANCH  16  17
ATOM     17  N   UNL     1       3.230  17.053  20.619  0.00  0.00    +0.000 NA
ATOM     18  H   UNL     1       3.623  16.128  20.451  0.00  0.00    +0.000 HD
ATOM     19  H   UNL     1       3.792  17.477  21.354  0.00  0.00    +0.000 HD
ENDBRANCH  16  17
ENDBRANCH   6  16
BRANCH  11  20
ATOM     20  C   UNL     1      -0.099   9.724  20.355  0.00  0.00    +0.000 C 
BRANCH  20  21
ATOM     21  C   UNL     1       1.039   8.871  19.842  0.00  0.00    +0.000 A 
ATOM     22  C   UNL     1       1.562   9.075  18.564  0.00  0.00    +0.000 A 
ATOM     23  C   UNL     1       2.442   8.140  17.998  0.00  0.00    +0.000 A 
ATOM     24  C   UNL     1       2.833   6.977  18.690  0.00  0.00    +0.000 A 
ATOM     25  C   UNL     1       2.490   6.928  20.049  0.00  0.00    +0.000 A 
ATOM     26  C   UNL     1       1.595   7.847  20.611  0.00  0.00    +0.000 A 
BRANCH  24  27
ATOM     27  C   UNL     1       3.508   5.836  17.991  0.00  0.00    +0.000 A 
ATOM     28  C   UNL     1       4.423   6.107  16.945  0.00  0.00    +0.000 A 
ATOM     29  C   UNL     1       5.054   5.091  16.217  0.00  0.00    +0.000 A 
ATOM     30  C   UNL     1       4.823   3.761  16.533  0.00  0.00    +0.000 A 
ATOM     31  C   UNL     1       3.937   3.449  17.557  0.00  0.00    +0.000 A 
ATOM     32  C   UNL     1       3.255   4.461  18.271  0.00  0.00    +0.000 A 
BRANCH  32  33
ATOM     33  C   UNL     1       2.286   3.986  19.254  0.00  0.00    +0.000 A 
ATOM     34  N   UNL     1       2.663   3.583  20.517  0.00  0.00    +0.000 NA
ATOM     35  N   UNL     1       1.555   3.246  21.160  0.00  0.00    +0.000 NA
ATOM     36  N   UNL     1       0.578   3.439  20.267  0.00  0.00    +0.000 N 
ATOM     37  N   UNL     1       0.963   3.858  19.054  0.00  0.00    +0.000 NA
ATOM     38  H   UNL     1      -0.399   3.296  20.505  0.00  0.00    +0.000 HD
ENDBRANCH  32  33
ENDBRANCH  24  27
ENDBRANCH  20  21
ENDBRANCH  11  20
TORSDOF 9
ENDMDL
MODEL 5
REMARK VINA RESULT:      -8.7      2.241      3.169
REMARK  Name = 
REMARK  10 active torsions:
REMARK  status: ('A' for Active; 'I' for Inactive)
REMARK    1  A    between atoms: C_1  and  C_2
REMARK    2  A    between atoms: C_2  and  C_3
REMARK    3  A    between atoms: C_3  and  C_4
REMARK    4  A    between atoms: C_4  and  C_5
REMARK    5  A    between atoms: C_10  and  C_11
REMARK    6  A    between atoms: C_11  and  N_12
REMARK    7  A    between atoms: N_17  and  C_18
REMARK    8  A    between atoms: C_18  and  C_19
REMARK    9  A    between atoms: C_22  and  C_23
REMARK   10  A    between atoms: C_28  and  C_29
REMARK                            x       y       z     vdW  Elec       q    Type
REMARK                         _______ _______ _______ _____ _____    ______ ____
ROOT
ATOM      1  C   UNL     1      -0.641  11.306  18.557  0.00  0.00    +0.000 A 
ATOM      2  N   UNL     1      -0.757  12.563  18.267  0.00  0.00    +0.000 NA
ATOM      3  C   UNL     1      -0.235  13.520  19.132  0.00  0.00    +0.000 A 
ATOM      4  C   UNL     1      -0.487  14.864  18.858  0.00  0.00    +0.000 A 
ATOM      5  C   UNL     1      -0.087  15.852  19.758  0.00  0.00    +0.000 A 
ATOM      6  C   UNL     1       0.584  15.508  20.940  0.00  0.00    +0.000 A 
ATOM      7  C   UNL     1       0.858  14.152  21.195  0.00  0.00    +0.000 A 
ATOM      8  C   UNL     1       0.445  13.162  20.283  0.00  0.00    +0.000 A 
ATOM      9  C   UNL     1       0.647  11.728  20.544  0.00  0.00    +0.000 A 
ATOM     10  O   UNL     1       1.277  11.399  21.544  0.00  0.00    +0.000 OA
ATOM     11  N   UNL     1       0.067  10.821  19.639  0.00  0.00    +0.000 N 
ENDROOT
BRANCH   1  12
ATOM     12  C   UNL     1      -1.443  10.413  17.618  0.00  0.00    +0.000 C 
BRANCH  12  13
ATOM     13  C   UNL     1      -2.952  10.477  17.841  0.00  0.00    +0.000 C 
BRANCH  13  15
ATOM     14  C   UNL     1      -3.025  10.520  15.323  0.00  0.00    +0.000 C 
ATOM     15  C   UNL     1      -3.723  10.945  16.602  0.00  0.00    +0.000 C 
ENDBRANCH  13  15
ENDBRANCH  12  13
ENDBRANCH   1  12
BRANCH   6  16
ATOM     16  C   UNL     1       0.968  16.580  21.926  0.00  0.00    +0.000 C 
BRANCH  16  17
ATOM     17  N   UNL     1       1.359  16.009  23.209  0.00  0.00    +0.000 NA
ATOM     18  H   UNL     1       0.543  15.974  23.817  0.00  0.00    +0.000 HD
ATOM     19  H   UNL     1       2.030  16.626  23.661  0.00  0.00    +0.000 HD
ENDBRANCH  16  17
ENDBRANCH   6  16
BRANCH  11  20
ATOM     20  C   UNL     1       0.175   9.392  20.020  0.00  0.00    +0.000 C 
BRANCH  20  21
ATOM     21  C   UNL     1       1.363   8.656  19.444  0.00  0.00    +0.000 A 
ATOM     22  C   UNL     1       1.918   9.043  18.223  0.00  0.00    +0.000 A 
ATOM     23  C   UNL     1       2.854   8.221  17.575  0.00  0.00    +0.000 A 
ATOM     24  C   UNL     1       3.270   6.994  18.126  0.00  0.00    +0.000 A 
ATOM     25  C   UNL     1       2.885   6.757  19.454  0.00  0.00    +0.000 A 
ATOM     26  C   UNL     1       1.936   7.562  20.095  0.00  0.00    +0.000 A 
BRANCH  24  27
ATOM     27  C   UNL     1       4.013   5.979  17.312  0.00  0.00    +0.000 A 
ATOM     28  C   UNL     1       5.032   6.410  16.428  0.00  0.00    +0.000 A 
ATOM     29  C   UNL     1       5.735   5.523  15.604  0.00  0.00    +0.000 A 
ATOM     30  C   UNL     1       5.472   4.163  15.658  0.00  0.00    +0.000 A 
ATOM     31  C   UNL     1       4.485   3.695  16.516  0.00  0.00    +0.000 A 
ATOM     32  C   UNL     1       3.732   4.581  17.322  0.00  0.00    +0.000 A 
BRANCH  32  33
ATOM     33  C   UNL     1       2.667   3.961  18.103  0.00  0.00    +0.000 A 
ATOM     34  N   UNL     1       2.910   3.342  19.310  0.00  0.00    +0.000 NA
ATOM     35  N   UNL     1       1.741   2.918  19.767  0.00  0.00    +0.000 NA
ATOM     36  N   UNL     1       0.863   3.278  18.825  0.00  0.00    +0.000 N 
ATOM     37  N   UNL     1       1.371   3.891  17.749  0.00  0.00    +0.000 NA
ATOM     38  H   UNL     1      -0.134   3.112  18.932  0.00  0.00    +0.000 HD
ENDBRANCH  32  33
ENDBRANCH  24  27
ENDBRANCH  20  21
ENDBRANCH  11  20
TORSDOF 9
ENDMDL
MODEL 6
REMARK VINA RESULT:      -8.7      4.278     10.226
REMARK  Name = 
REMARK  10 active torsions:
REMARK  status: ('A' for Active; 'I' for Inactive)
REMARK    1  A    between atoms: C_1  and  C_2
REMARK    2  A    between atoms: C_2  and  C_3
REMARK    3  A    between atoms: C_3  and  C_4
REMARK    4  A    between atoms: C_4  and  C_5
REMARK    5  A    between atoms: C_10  and  C_11
REMARK    6  A    between atoms: C_11  and  N_12
REMARK    7  A    between atoms: N_17  and  C_18
REMARK    8  A    between atoms: C_18  and  C_19
REMARK    9  A    between atoms: C_22  and  C_23
REMARK   10  A    between atoms: C_28  and  C_29
REMARK                            x       y       z     vdW  Elec       q    Type
REMARK                         _______ _______ _______ _____ _____    ______ ____
ROOT
ATOM      1  C   UNL     1       6.662   5.920  16.818  0.00  0.00    +0.000 A 
ATOM      2  N   UNL     1       7.271   5.881  15.675  0.00  0.00    +0.000 NA
ATOM      3  C   UNL     1       6.751   5.107  14.643  0.00  0.00    +0.000 A 
ATOM      4  C   UNL     1       7.497   4.984  13.471  0.00  0.00    +0.000 A 
ATOM      5  C   UNL     1       7.075   4.126  12.456  0.00  0.00    +0.000 A 
ATOM      6  C   UNL     1       5.891   3.387  12.596  0.00  0.00    +0.000 A 
ATOM      7  C   UNL     1       5.131   3.538  13.769  0.00  0.00    +0.000 A 
ATOM      8  C   UNL     1       5.569   4.404  14.791  0.00  0.00    +0.000 A 
ATOM      9  C   UNL     1       4.844   4.537  16.064  0.00  0.00    +0.000 A 
ATOM     10  O   UNL     1       3.778   3.944  16.194  0.00  0.00    +0.000 OA
ATOM     11  N   UNL     1       5.446   5.315  17.069  0.00  0.00    +0.000 N 
ENDROOT
BRANCH   1  12
ATOM     12  C   UNL     1       7.471   6.641  17.889  0.00  0.00    +0.000 C 
BRANCH  12  13
ATOM     13  C   UNL     1       7.604   8.145  17.656  0.00  0.00    +0.000 C 
BRANCH  13  15
ATOM     14  C   UNL     1       8.869  10.249  18.223  0.00  0.00    +0.000 C 
ATOM     15  C   UNL     1       8.564   8.821  18.640  0.00  0.00    +0.000 C 
ENDBRANCH  13  15
ENDBRANCH  12  13
ENDBRANCH   1  12
BRANCH   6  16
ATOM     16  C   UNL     1       5.471   2.427  11.512  0.00  0.00    +0.000 C 
BRANCH  16  17
ATOM     17  N   UNL     1       6.333   1.253  11.479  0.00  0.00    +0.000 NA
ATOM     18  H   UNL     1       6.482   0.925  12.432  0.00  0.00    +0.000 HD
ATOM     19  H   UNL     1       7.247   1.518  11.119  0.00  0.00    +0.000 HD
ENDBRANCH  16  17
ENDBRANCH   6  16
BRANCH  11  20
ATOM     20  C   UNL     1       4.751   5.303  18.378  0.00  0.00    +0.000 C 
BRANCH  20  21
ATOM     21  C   UNL     1       3.812   6.464  18.624  0.00  0.00    +0.000 A 
ATOM     22  C   UNL     1       2.930   6.450  19.704  0.00  0.00    +0.000 A 
ATOM     23  C   UNL     1       1.901   7.401  19.795  0.00  0.00    +0.000 A 
ATOM     24  C   UNL     1       1.725   8.397  18.815  0.00  0.00    +0.000 A 
ATOM     25  C   UNL     1       2.765   8.533  17.885  0.00  0.00    +0.000 A 
ATOM     26  C   UNL     1       3.781   7.575  17.779  0.00  0.00    +0.000 A 
BRANCH  24  27
ATOM     27  C   UNL     1       0.465   9.206  18.734  0.00  0.00    +0.000 A 
ATOM     28  C   UNL     1      -0.070   9.531  17.464  0.00  0.00    +0.000 A 
ATOM     29  C   UNL     1      -1.216  10.321  17.312  0.00  0.00    +0.000 A 
ATOM     30  C   UNL     1      -1.893  10.788  18.427  0.00  0.00    +0.000 A 
ATOM     31  C   UNL     1      -1.407  10.488  19.694  0.00  0.00    +0.000 A 
ATOM     32  C   UNL     1      -0.225   9.731  19.866  0.00  0.00    +0.000 A 
BRANCH  32  33
ATOM     33  C   UNL     1       0.219   9.573  21.247  0.00  0.00    +0.000 A 
ATOM     34  N   UNL     1       1.399  10.121  21.704  0.00  0.00    +0.000 NA
ATOM     35  N   UNL     1       1.488   9.823  22.991  0.00  0.00    +0.000 NA
ATOM     36  N   UNL     1       0.388   9.107  23.246  0.00  0.00    +0.000 N 
ATOM     37  N   UNL     1      -0.422   8.879  22.204  0.00  0.00    +0.000 NA
ATOM     38  H   UNL     1       0.172   8.774  24.182  0.00  0.00    +0.000 HD
ENDBRANCH  32  33
ENDBRANCH  24  27
ENDBRANCH  20  21
ENDBRANCH  11  20
TORSDOF 9
ENDMDL
MODEL 7
REMARK VINA RESULT:      -8.6      1.199      1.732
REMARK  Name = 
REMARK  10 active torsions:
REMARK  status: ('A' for Active; 'I' for Inactive)
REMARK    1  A    between atoms: C_1  and  C_2
REMARK    2  A    between atoms: C_2  and  C_3
REMARK    3  A    between atoms: C_3  and  C_4
REMARK    4  A    between atoms: C_4  and  C_5
REMARK    5  A    between atoms: C_10  and  C_11
REMARK    6  A    between atoms: C_11  and  N_12
REMARK    7  A    between atoms: N_17  and  C_18
REMARK    8  A    between atoms: C_18  and  C_19
REMARK    9  A    between atoms: C_22  and  C_23
REMARK   10  A    between atoms: C_28  and  C_29
REMARK                            x       y       z     vdW  Elec       q    Type
REMARK                         _______ _______ _______ _____ _____    ______ ____
ROOT
ATOM      1  C   UNL     1      -1.001  11.096  18.707  0.00  0.00    +0.000 A 
ATOM      2  N   UNL     1      -2.120  11.559  19.169  0.00  0.00    +0.000 NA
ATOM      3  C   UNL     1      -2.129  12.279  20.359  0.00  0.00    +0.000 A 
ATOM      4  C   UNL     1      -3.361  12.653  20.894  0.00  0.00    +0.000 A 
ATOM      5  C   UNL     1      -3.426  13.271  22.143  0.00  0.00    +0.000 A 
ATOM      6  C   UNL     1      -2.255  13.535  22.868  0.00  0.00    +0.000 A 
ATOM      7  C   UNL     1      -1.015  13.180  22.308  0.00  0.00    +0.000 A 
ATOM      8  C   UNL     1      -0.960  12.551  21.048  0.00  0.00    +0.000 A 
ATOM      9  C   UNL     1       0.309  12.098  20.458  0.00  0.00    +0.000 A 
ATOM     10  O   UNL     1       1.353  12.362  21.044  0.00  0.00    +0.000 OA
ATOM     11  N   UNL     1       0.235  11.353  19.267  0.00  0.00    +0.000 N 
ENDROOT
BRANCH   1  12
ATOM     12  C   UNL     1      -1.201  10.164  17.518  0.00  0.00    +0.000 C 
BRANCH  12  13
ATOM     13  C   UNL     1      -2.631  10.140  16.983  0.00  0.00    +0.000 C 
BRANCH  13  15
ATOM     14  C   UNL     1      -3.704  10.109  14.704  0.00  0.00    +0.000 C 
ATOM     15  C   UNL     1      -2.783  10.866  15.643  0.00  0.00    +0.000 C 
ENDBRANCH  13  15
ENDBRANCH  12  13
ENDBRANCH   1  12
BRANCH   6  16
ATOM     16  C   UNL     1      -2.343  14.160  24.237  0.00  0.00    +0.000 C 
BRANCH  16  17
ATOM     17  N   UNL     1      -3.685  14.040  24.791  0.00  0.00    +0.000 NA
ATOM     18  H   UNL     1      -4.358  14.016  24.026  0.00  0.00    +0.000 HD
ATOM     19  H   UNL     1      -3.898  14.872  25.337  0.00  0.00    +0.000 HD
ENDBRANCH  16  17
ENDBRANCH   6  16
BRANCH  11  20
ATOM     20  C   UNL     1       1.522  10.797  18.788  0.00  0.00    +0.000 C 
BRANCH  20  21
ATOM     21  C   UNL     1       1.655   9.294  18.883  0.00  0.00    +0.000 A 
ATOM     22  C   UNL     1       1.487   8.639  20.103  0.00  0.00    +0.000 A 
ATOM     23  C   UNL     1       1.845   7.288  20.242  0.00  0.00    +0.000 A 
ATOM     24  C   UNL     1       2.374   6.548  19.166  0.00  0.00    +0.000 A 
ATOM     25  C   UNL     1       2.298   7.159  17.906  0.00  0.00    +0.000 A 
ATOM     26  C   UNL     1       1.962   8.511  17.768  0.00  0.00    +0.000 A 
BRANCH  24  27
ATOM     27  C   UNL     1       3.042   5.224  19.378  0.00  0.00    +0.000 A 
ATOM     28  C   UNL     1       2.516   4.327  20.338  0.00  0.00    +0.000 A 
ATOM     29  C   UNL     1       3.114   3.093  20.622  0.00  0.00    +0.000 A 
ATOM     30  C   UNL     1       4.245   2.691  19.928  0.00  0.00    +0.000 A 
ATOM     31  C   UNL     1       4.792   3.538  18.971  0.00  0.00    +0.000 A 
ATOM     32  C   UNL     1       4.229   4.807  18.705  0.00  0.00    +0.000 A 
BRANCH  32  33
ATOM     33  C   UNL     1       4.962   5.626  17.745  0.00  0.00    +0.000 A 
ATOM     34  N   UNL     1       4.781   5.497  16.385  0.00  0.00    +0.000 NA
ATOM     35  N   UNL     1       5.562   6.397  15.806  0.00  0.00    +0.000 NA
ATOM     36  N   UNL     1       6.182   7.006  16.824  0.00  0.00    +0.000 N 
ATOM     37  N   UNL     1       5.888   6.553  18.049  0.00  0.00    +0.000 NA
ATOM     38  H   UNL     1       6.821   7.780  16.672  0.00  0.00    +0.000 HD
ENDBRANCH  32  33
ENDBRANCH  24  27
ENDBRANCH  20  21
ENDBRANCH  11  20
TORSDOF 9
ENDMDL
MODEL 8
REMARK VINA RESULT:      -8.6      4.047     10.279
REMARK  Name = 
REMARK  10 active torsions:
REMARK  status: ('A' for Active; 'I' for Inactive)
REMARK    1  A    between atoms: C_1  and  C_2
REMARK    2  A    between atoms: C_2  and  C_3
REMARK    3  A    between atoms: C_3  and  C_4
REMARK    4  A    between atoms: C_4  and  C_5
REMARK    5  A    between atoms: C_10  and  C_11
REMARK    6  A    between atoms: C_11  and  N_12
REMARK    7  A    between atoms: N_17  and  C_18
REMARK    8  A    between atoms: C_18  and  C_19
REMARK    9  A    between atoms: C_22  and  C_23
REMARK   10  A    between atoms: C_28  and  C_29
REMARK                            x       y       z     vdW  Elec       q    Type
REMARK                         _______ _______ _______ _____ _____    ______ ____
ROOT
ATOM      1  C   UNL     1       6.449   6.297  17.009  0.00  0.00    +0.000 A 
ATOM      2  N   UNL     1       7.157   6.170  15.932  0.00  0.00    +0.000 NA
ATOM      3  C   UNL     1       6.711   5.341  14.907  0.00  0.00    +0.000 A 
ATOM      4  C   UNL     1       7.555   5.126  13.819  0.00  0.00    +0.000 A 
ATOM      5  C   UNL     1       7.202   4.212  12.826  0.00  0.00    +0.000 A 
ATOM      6  C   UNL     1       5.991   3.509  12.904  0.00  0.00    +0.000 A 
ATOM      7  C   UNL     1       5.133   3.753  13.991  0.00  0.00    +0.000 A 
ATOM      8  C   UNL     1       5.501   4.674  14.991  0.00  0.00    +0.000 A 
ATOM      9  C   UNL     1       4.669   4.906  16.182  0.00  0.00    +0.000 A 
ATOM     10  O   UNL     1       3.580   4.346  16.252  0.00  0.00    +0.000 OA
ATOM     11  N   UNL     1       5.199   5.736  17.186  0.00  0.00    +0.000 N 
ENDROOT
BRANCH   1  12
ATOM     12  C   UNL     1       7.178   7.069  18.102  0.00  0.00    +0.000 C 
BRANCH  12  13
ATOM     13  C   UNL     1       7.870   8.338  17.606  0.00  0.00    +0.000 C 
BRANCH  13  15
ATOM     14  C   UNL     1       9.032  10.468  18.285  0.00  0.00    +0.000 C 
ATOM     15  C   UNL     1       8.665   9.055  18.702  0.00  0.00    +0.000 C 
ENDBRANCH  13  15
ENDBRANCH  12  13
ENDBRANCH   1  12
BRANCH   6  16
ATOM     16  C   UNL     1       5.644   2.489  11.850  0.00  0.00    +0.000 C 
BRANCH  16  17
ATOM     17  N   UNL     1       6.826   1.766  11.399  0.00  0.00    +0.000 NA
ATOM     18  H   UNL     1       7.655   2.314  11.627  0.00  0.00    +0.000 HD
ATOM     19  H   UNL     1       6.804   1.686  10.385  0.00  0.00    +0.000 HD
ENDBRANCH  16  17
ENDBRANCH   6  16
BRANCH  11  20
ATOM     20  C   UNL     1       4.390   5.825  18.425  0.00  0.00    +0.000 C 
BRANCH  20  21
ATOM     21  C   UNL     1       3.484   7.033  18.521  0.00  0.00    +0.000 A 
ATOM     22  C   UNL     1       2.618   7.190  19.603  0.00  0.00    +0.000 A 
ATOM     23  C   UNL     1       1.615   8.171  19.575  0.00  0.00    +0.000 A 
ATOM     24  C   UNL     1       1.449   9.030  18.472  0.00  0.00    +0.000 A 
ATOM     25  C   UNL     1       2.479   9.011  17.520  0.00  0.00    +0.000 A 
ATOM     26  C   UNL     1       3.469   8.020  17.533  0.00  0.00    +0.000 A 
BRANCH  24  27
ATOM     27  C   UNL     1       0.210   9.854  18.296  0.00  0.00    +0.000 A 
ATOM     28  C   UNL     1      -0.875   9.326  17.555  0.00  0.00    +0.000 A 
ATOM     29  C   UNL     1      -2.045  10.056  17.312  0.00  0.00    +0.000 A 
ATOM     30  C   UNL     1      -2.190  11.332  17.832  0.00  0.00    +0.000 A 
ATOM     31  C   UNL     1      -1.153  11.888  18.571  0.00  0.00    +0.000 A 
ATOM     32  C   UNL     1       0.054  11.184  18.787  0.00  0.00    +0.000 A 
BRANCH  32  33
ATOM     33  C   UNL     1       1.090  11.925  19.499  0.00  0.00    +0.000 A 
ATOM     34  N   UNL     1       1.172  11.930  20.875  0.00  0.00    +0.000 NA
ATOM     35  N   UNL     1       2.228  12.663  21.194  0.00  0.00    +0.000 NA
ATOM     36  N   UNL     1       2.718  13.074  20.020  0.00  0.00    +0.000 N 
ATOM     37  N   UNL     1       2.040  12.688  18.931  0.00  0.00    +0.000 NA
ATOM     38  H   UNL     1       3.567  13.629  19.960  0.00  0.00    +0.000 HD
ENDBRANCH  32  33
ENDBRANCH  24  27
ENDBRANCH  20  21
ENDBRANCH  11  20
TORSDOF 9
ENDMDL
MODEL 9
REMARK VINA RESULT:      -8.5      2.972      9.549
REMARK  Name = 
REMARK  10 active torsions:
REMARK  status: ('A' for Active; 'I' for Inactive)
REMARK    1  A    between atoms: C_1  and  C_2
REMARK    2  A    between atoms: C_2  and  C_3
REMARK    3  A    between atoms: C_3  and  C_4
REMARK    4  A    between atoms: C_4  and  C_5
REMARK    5  A    between atoms: C_10  and  C_11
REMARK    6  A    between atoms: C_11  and  N_12
REMARK    7  A    between atoms: N_17  and  C_18
REMARK    8  A    between atoms: C_18  and  C_19
REMARK    9  A    between atoms: C_22  and  C_23
REMARK   10  A    between atoms: C_28  and  C_29
REMARK                            x       y       z     vdW  Elec       q    Type
REMARK                         _______ _______ _______ _____ _____    ______ ____
ROOT
ATOM      1  C   UNL     1       3.137   4.239  17.560  0.00  0.00    +0.000 A 
ATOM      2  N   UNL     1       3.530   3.697  16.451  0.00  0.00    +0.000 NA
ATOM      3  C   UNL     1       4.753   4.067  15.899  0.00  0.00    +0.000 A 
ATOM      4  C   UNL     1       5.088   3.563  14.643  0.00  0.00    +0.000 A 
ATOM      5  C   UNL     1       6.245   3.998  13.997  0.00  0.00    +0.000 A 
ATOM      6  C   UNL     1       7.091   4.935  14.608  0.00  0.00    +0.000 A 
ATOM      7  C   UNL     1       6.759   5.418  15.886  0.00  0.00    +0.000 A 
ATOM      8  C   UNL     1       5.585   4.976  16.528  0.00  0.00    +0.000 A 
ATOM      9  C   UNL     1       5.162   5.508  17.832  0.00  0.00    +0.000 A 
ATOM     10  O   UNL     1       5.907   6.290  18.414  0.00  0.00    +0.000 OA
ATOM     11  N   UNL     1       3.902   5.108  18.313  0.00  0.00    +0.000 N 
ENDROOT
BRANCH   1  12
ATOM     12  C   UNL     1       1.698   3.878  17.909  0.00  0.00    +0.000 C 
BRANCH  12  13
ATOM     13  C   UNL     1       1.529   2.456  18.442  0.00  0.00    +0.000 C 
BRANCH  13  15
ATOM     14  C   UNL     1       1.066   3.386  20.737  0.00  0.00    +0.000 C 
ATOM     15  C   UNL     1       1.822   2.338  19.941  0.00  0.00    +0.000 C 
ENDBRANCH  13  15
ENDBRANCH  12  13
ENDBRANCH   1  12
BRANCH   6  16
ATOM     16  C   UNL     1       8.313   5.433  13.880  0.00  0.00    +0.000 C 
BRANCH  16  17
ATOM     17  N   UNL     1       8.026   5.695  12.475  0.00  0.00    +0.000 NA
ATOM     18  H   UNL     1       7.021   5.822  12.362  0.00  0.00    +0.000 HD
ATOM     19  H   UNL     1       8.278   4.878  11.923  0.00  0.00    +0.000 HD
ENDBRANCH  16  17
ENDBRANCH   6  16
BRANCH  11  20
ATOM     20  C   UNL     1       3.458   5.779  19.558  0.00  0.00    +0.000 C 
BRANCH  20  21
ATOM     21  C   UNL     1       2.736   7.093  19.364  0.00  0.00    +0.000 A 
ATOM     22  C   UNL     1       1.998   7.661  20.403  0.00  0.00    +0.000 A 
ATOM     23  C   UNL     1       1.137   8.742  20.157  0.00  0.00    +0.000 A 
ATOM     24  C   UNL     1       0.992   9.295  18.870  0.00  0.00    +0.000 A 
ATOM     25  C   UNL     1       1.922   8.868  17.911  0.00  0.00    +0.000 A 
ATOM     26  C   UNL     1       2.766   7.775  18.146  0.00  0.00    +0.000 A 
BRANCH  24  27
ATOM     27  C   UNL     1      -0.136  10.223  18.536  0.00  0.00    +0.000 A 
ATOM     28  C   UNL     1      -1.264   9.723  17.842  0.00  0.00    +0.000 A 
ATOM     29  C   UNL     1      -2.333  10.541  17.458  0.00  0.00    +0.000 A 
ATOM     30  C   UNL     1      -2.332  11.889  17.784  0.00  0.00    +0.000 A 
ATOM     31  C   UNL     1      -1.247  12.421  18.470  0.00  0.00    +0.000 A 
ATOM     32  C   UNL     1      -0.138  11.620  18.826  0.00  0.00    +0.000 A 
BRANCH  32  33
ATOM     33  C   UNL     1       0.968  12.331  19.459  0.00  0.00    +0.000 A 
ATOM     34  N   UNL     1       1.930  12.990  18.723  0.00  0.00    +0.000 NA
ATOM     35  N   UNL     1       2.761  13.549  19.591  0.00  0.00    +0.000 NA
ATOM     36  N   UNL     1       2.282  13.194  20.788  0.00  0.00    +0.000 N 
ATOM     37  N   UNL     1       1.199  12.408  20.781  0.00  0.00    +0.000 NA
ATOM     38  H   UNL     1       2.707  13.522  21.651  0.00  0.00    +0.000 HD
ENDBRANCH  32  33
ENDBRANCH  24  27
ENDBRANCH  20  21
ENDBRANCH  11  20
TORSDOF 9
ENDMDL
