MODEL 1
REMARK VINA RESULT:      -6.7      0.000      0.000
REMARK  Name = 
REMARK  7 active torsions:
REMARK  status: ('A' for Active; 'I' for Inactive)
REMARK    1  A    between atoms: C_1  and  N_2
REMARK    2  A    between atoms: N_2  and  C_3
REMARK    3  A    between atoms: N_2  and  C_4
REMARK    4  A    between atoms: C_4  and  C_5
REMARK    5  A    between atoms: C_5  and  C_6
REMARK    6  A    between atoms: C_6  and  C_7
REMARK    7  A    between atoms: C_7  and  C_8
REMARK                            x       y       z     vdW  Elec       q    Type
REMARK                         _______ _______ _______ _____ _____    ______ ____
ROOT
ATOM      1  C   UNL     1       2.625   6.544  18.503  0.00  0.00    +0.000 C 
ATOM      2  O   UNL     1       1.540   6.524  19.102  0.00  0.00    +0.000 OA
ATOM      3  N   UNL     1       3.317   5.374  18.176  0.00  0.00    +0.000 N 
ATOM      4  C   UNL     1       2.700   4.121  18.471  0.00  0.00    +0.000 A 
ATOM      5  C   UNL     1       1.349   3.914  18.128  0.00  0.00    +0.000 A 
ATOM      6  C   UNL     1       0.677   2.743  18.493  0.00  0.00    +0.000 A 
ATOM      7  C   UNL     1       1.336   1.770  19.229  0.00  0.00    +0.000 A 
ATOM      8  C   UNL     1       2.669   1.958  19.578  0.00  0.00    +0.000 A 
ATOM      9  C   UNL     1       3.355   3.118  19.181  0.00  0.00    +0.000 A 
ATOM     10  C   UNL     1       4.778   3.190  19.534  0.00  0.00    +0.000 C 
ATOM     11  O   UNL     1       5.180   2.746  20.606  0.00  0.00    +0.000 OA
ATOM     12  N   UNL     1       5.663   3.549  18.561  0.00  0.00    +0.000 N 
ATOM     13  C   UNL     1       5.468   4.369  17.439  0.00  0.00    +0.000 A 
ATOM     14  C   UNL     1       6.504   4.344  16.494  0.00  0.00    +0.000 A 
ATOM     15  C   UNL     1       6.511   5.241  15.438  0.00  0.00    +0.000 A 
ATOM     16  C   UNL     1       5.483   6.158  15.371  0.00  0.00    +0.000 A 
ATOM     17  N   UNL     1       4.459   6.208  16.264  0.00  0.00    +0.000 NA
ATOM     18  C   UNL     1       4.429   5.307  17.284  0.00  0.00    +0.000 A 
ATOM     19  H   UNL     1       6.600   3.212  18.743  0.00  0.00    +0.000 HD
ENDROOT
BRANCH   1  20
ATOM     20  C   UNL     1       3.269   7.900  18.228  0.00  0.00    +0.000 C 
BRANCH  20  21
ATOM     21  C   UNL     1       2.297   8.856  17.524  0.00  0.00    +0.000 C 
BRANCH  21  22
ATOM     22  C   UNL     1       1.788   9.959  18.466  0.00  0.00    +0.000 C 
BRANCH  22  23
ATOM     23  C   UNL     1       0.256  10.081  18.492  0.00  0.00    +0.000 C 
BRANCH  23  25
ATOM     24  C   UNL     1       0.635   9.497  20.826  0.00  0.00    +0.000 C 
ATOM     25  N   UNL     1      -0.336   9.970  19.834  0.00  0.00    +0.000 NA
ATOM     26  C   UNL     1      -0.894  11.253  20.262  0.00  0.00    +0.000 C 
ENDBRANCH  23  25
ENDBRANCH  22  23
ENDBRANCH  21  22
ENDBRANCH  20  21
ENDBRANCH   1  20
TORSDOF 5
ENDMDL
MODEL 2
REMARK VINA RESULT:      -6.4      4.977      8.033
REMARK  Name = 
REMARK  7 active torsions:
REMARK  status: ('A' for Active; 'I' for Inactive)
REMARK    1  A    between atoms: C_1  and  N_2
REMARK    2  A    between atoms: N_2  and  C_3
REMARK    3  A    between atoms: N_2  and  C_4
REMARK    4  A    between atoms: C_4  and  C_5
REMARK    5  A    between atoms: C_5  and  C_6
REMARK    6  A    between atoms: C_6  and  C_7
REMARK    7  A    between atoms: C_7  and  C_8
REMARK                            x       y       z     vdW  Elec       q    Type
REMARK                         _______ _______ _______ _____ _____    ______ ____
ROOT
ATOM      1  C   UNL     1      -1.561  10.646  17.850  0.00  0.00    +0.000 C 
ATOM      2  O   UNL     1      -1.530   9.635  17.133  0.00  0.00    +0.000 OA
ATOM      3  N   UNL     1      -0.674  10.833  18.914  0.00  0.00    +0.000 N 
ATOM      4  C   UNL     1       0.350   9.859  19.116  0.00  0.00    +0.000 A 
ATOM      5  C   UNL     1       1.110   9.411  18.018  0.00  0.00    +0.000 A 
ATOM      6  C   UNL     1       2.049   8.384  18.153  0.00  0.00    +0.000 A 
ATOM      7  C   UNL     1       2.228   7.770  19.384  0.00  0.00    +0.000 A 
ATOM      8  C   UNL     1       1.486   8.198  20.479  0.00  0.00    +0.000 A 
ATOM      9  C   UNL     1       0.568   9.254  20.352  0.00  0.00    +0.000 A 
ATOM     10  C   UNL     1      -0.112   9.681  21.580  0.00  0.00    +0.000 C 
ATOM     11  O   UNL     1      -0.452   8.859  22.426  0.00  0.00    +0.000 OA
ATOM     12  N   UNL     1      -0.153  11.015  21.860  0.00  0.00    +0.000 N 
ATOM     13  C   UNL     1      -0.148  12.110  20.982  0.00  0.00    +0.000 A 
ATOM     14  C   UNL     1       0.055  13.359  21.585  0.00  0.00    +0.000 A 
ATOM     15  C   UNL     1      -0.099  14.525  20.851  0.00  0.00    +0.000 A 
ATOM     16  C   UNL     1      -0.474  14.404  19.530  0.00  0.00    +0.000 A 
ATOM     17  N   UNL     1      -0.673  13.211  18.910  0.00  0.00    +0.000 NA
ATOM     18  C   UNL     1      -0.490  12.062  19.616  0.00  0.00    +0.000 A 
ATOM     19  H   UNL     1      -0.269  11.203  22.848  0.00  0.00    +0.000 HD
ENDROOT
BRANCH   1  20
ATOM     20  C   UNL     1      -2.685  11.652  17.623  0.00  0.00    +0.000 C 
BRANCH  20  21
ATOM     21  C   UNL     1      -4.046  10.959  17.469  0.00  0.00    +0.000 C 
BRANCH  21  22
ATOM     22  C   UNL     1      -5.146  11.661  18.279  0.00  0.00    +0.000 C 
BRANCH  22  23
ATOM     23  C   UNL     1      -6.433  10.829  18.410  0.00  0.00    +0.000 C 
BRANCH  23  25
ATOM     24  C   UNL     1      -7.663  11.160  20.486  0.00  0.00    +0.000 C 
ATOM     25  N   UNL     1      -6.693  10.328  19.769  0.00  0.00    +0.000 NA
ATOM     26  C   UNL     1      -7.163   8.942  19.730  0.00  0.00    +0.000 C 
ENDBRANCH  23  25
ENDBRANCH  22  23
ENDBRANCH  21  22
ENDBRANCH  20  21
ENDBRANCH   1  20
TORSDOF 5
ENDMDL
MODEL 3
REMARK VINA RESULT:      -6.4      1.979      4.026
REMARK  Name = 
REMARK  7 active torsions:
REMARK  status: ('A' for Active; 'I' for Inactive)
REMARK    1  A    between atoms: C_1  and  N_2
REMARK    2  A    between atoms: N_2  and  C_3
REMARK    3  A    between atoms: N_2  and  C_4
REMARK    4  A    between atoms: C_4  and  C_5
REMARK    5  A    between atoms: C_5  and  C_6
REMARK    6  A    between atoms: C_6  and  C_7
REMARK    7  A    between atoms: C_7  and  C_8
REMARK                            x       y       z     vdW  Elec       q    Type
REMARK                         _______ _______ _______ _____ _____    ______ ____
ROOT
ATOM      1  C   UNL     1       3.620   7.049  17.966  0.00  0.00    +0.000 C 
ATOM      2  O   UNL     1       4.461   7.958  18.025  0.00  0.00    +0.000 OA
ATOM      3  N   UNL     1       3.983   5.699  17.940  0.00  0.00    +0.000 N 
ATOM      4  C   UNL     1       5.366   5.370  18.072  0.00  0.00    +0.000 A 
ATOM      5  C   UNL     1       6.134   5.986  19.080  0.00  0.00    +0.000 A 
ATOM      6  C   UNL     1       7.512   5.773  19.178  0.00  0.00    +0.000 A 
ATOM      7  C   UNL     1       8.152   4.960  18.254  0.00  0.00    +0.000 A 
ATOM      8  C   UNL     1       7.410   4.344  17.251  0.00  0.00    +0.000 A 
ATOM      9  C   UNL     1       6.020   4.530  17.174  0.00  0.00    +0.000 A 
ATOM     10  C   UNL     1       5.317   3.780  16.127  0.00  0.00    +0.000 C 
ATOM     11  O   UNL     1       5.833   3.609  15.026  0.00  0.00    +0.000 OA
ATOM     12  N   UNL     1       4.192   3.093  16.475  0.00  0.00    +0.000 N 
ATOM     13  C   UNL     1       3.263   3.361  17.492  0.00  0.00    +0.000 A 
ATOM     14  C   UNL     1       2.351   2.330  17.757  0.00  0.00    +0.000 A 
ATOM     15  C   UNL     1       1.279   2.544  18.609  0.00  0.00    +0.000 A 
ATOM     16  C   UNL     1       1.140   3.800  19.158  0.00  0.00    +0.000 A 
ATOM     17  N   UNL     1       2.007   4.822  18.930  0.00  0.00    +0.000 NA
ATOM     18  C   UNL     1       3.081   4.609  18.122  0.00  0.00    +0.000 A 
ATOM     19  H   UNL     1       3.995   2.323  15.847  0.00  0.00    +0.000 HD
ENDROOT
BRANCH   1  20
ATOM     20  C   UNL     1       2.154   7.436  17.799  0.00  0.00    +0.000 C 
BRANCH  20  21
ATOM     21  C   UNL     1       1.976   8.958  17.707  0.00  0.00    +0.000 C 
BRANCH  21  22
ATOM     22  C   UNL     1       0.620   9.415  18.266  0.00  0.00    +0.000 C 
BRANCH  22  23
ATOM     23  C   UNL     1       0.727  10.122  19.627  0.00  0.00    +0.000 C 
BRANCH  23  25
ATOM     24  C   UNL     1       1.170   8.393  21.284  0.00  0.00    +0.000 C 
ATOM     25  N   UNL     1       0.190   9.347  20.756  0.00  0.00    +0.000 NA
ATOM     26  C   UNL     1      -0.263  10.234  21.827  0.00  0.00    +0.000 C 
ENDBRANCH  23  25
ENDBRANCH  22  23
ENDBRANCH  21  22
ENDBRANCH  20  21
ENDBRANCH   1  20
TORSDOF 5
ENDMDL
MODEL 4
REMARK VINA RESULT:      -6.4      2.159      6.594
REMARK  Name = 
REMARK  7 active torsions:
REMARK  status: ('A' for Active; 'I' for Inactive)
REMARK    1  A    between atoms: C_1  and  N_2
REMARK    2  A    between atoms: N_2  and  C_3
REMARK    3  A    between atoms: N_2  and  C_4
REMARK    4  A    between atoms: C_4  and  C_5
REMARK    5  A    between atoms: C_5  and  C_6
REMARK    6  A    between atoms: C_6  and  C_7
REMARK    7  A    between atoms: C_7  and  C_8
REMARK                            x       y       z     vdW  Elec       q    Type
REMARK                         _______ _______ _______ _____ _____    ______ ____
ROOT
ATOM      1  C   UNL     1       4.796   5.998  17.882  0.00  0.00    +0.000 C 
ATOM      2  O   UNL     1       5.321   7.083  17.592  0.00  0.00    +0.000 OA
ATOM      3  N   UNL     1       3.481   5.908  18.352  0.00  0.00    +0.000 N 
ATOM      4  C   UNL     1       2.705   7.104  18.413  0.00  0.00    +0.000 A 
ATOM      5  C   UNL     1       2.692   7.982  17.311  0.00  0.00    +0.000 A 
ATOM      6  C   UNL     1       2.030   9.212  17.369  0.00  0.00    +0.000 A 
ATOM      7  C   UNL     1       1.391   9.599  18.538  0.00  0.00    +0.000 A 
ATOM      8  C   UNL     1       1.394   8.745  19.636  0.00  0.00    +0.000 A 
ATOM      9  C   UNL     1       2.028   7.494  19.567  0.00  0.00    +0.000 A 
ATOM     10  C   UNL     1       1.914   6.636  20.752  0.00  0.00    +0.000 C 
ATOM     11  O   UNL     1       1.944   7.119  21.880  0.00  0.00    +0.000 OA
ATOM     12  N   UNL     1       1.549   5.334  20.569  0.00  0.00    +0.000 N 
ATOM     13  C   UNL     1       1.764   4.496  19.465  0.00  0.00    +0.000 A 
ATOM     14  C   UNL     1       1.050   3.290  19.482  0.00  0.00    +0.000 A 
ATOM     15  C   UNL     1       1.314   2.305  18.543  0.00  0.00    +0.000 A 
ATOM     16  C   UNL     1       2.308   2.552  17.620  0.00  0.00    +0.000 A 
ATOM     17  N   UNL     1       3.017   3.711  17.568  0.00  0.00    +0.000 NA
ATOM     18  C   UNL     1       2.738   4.696  18.466  0.00  0.00    +0.000 A 
ATOM     19  H   UNL     1       1.123   4.930  21.393  0.00  0.00    +0.000 HD
ENDROOT
BRANCH   1  20
ATOM     20  C   UNL     1       5.662   4.744  17.831  0.00  0.00    +0.000 C 
BRANCH  20  21
ATOM     21  C   UNL     1       6.561   4.726  16.587  0.00  0.00    +0.000 C 
BRANCH  21  22
ATOM     22  C   UNL     1       6.081   3.706  15.543  0.00  0.00    +0.000 C 
BRANCH  22  23
ATOM     23  C   UNL     1       5.688   4.344  14.201  0.00  0.00    +0.000 C 
BRANCH  23  25
ATOM     24  C   UNL     1       5.001   3.310  12.105  0.00  0.00    +0.000 C 
ATOM     25  N   UNL     1       6.116   3.580  13.019  0.00  0.00    +0.000 NA
ATOM     26  C   UNL     1       7.182   4.282  12.304  0.00  0.00    +0.000 C 
ENDBRANCH  23  25
ENDBRANCH  22  23
ENDBRANCH  21  22
ENDBRANCH  20  21
ENDBRANCH   1  20
TORSDOF 5
ENDMDL
MODEL 5
REMARK VINA RESULT:      -6.4      2.115      6.428
REMARK  Name = 
REMARK  7 active torsions:
REMARK  status: ('A' for Active; 'I' for Inactive)
REMARK    1  A    between atoms: C_1  and  N_2
REMARK    2  A    between atoms: N_2  and  C_3
REMARK    3  A    between atoms: N_2  and  C_4
REMARK    4  A    between atoms: C_4  and  C_5
REMARK    5  A    between atoms: C_5  and  C_6
REMARK    6  A    between atoms: C_6  and  C_7
REMARK    7  A    between atoms: C_7  and  C_8
REMARK                            x       y       z     vdW  Elec       q    Type
REMARK                         _______ _______ _______ _____ _____    ______ ____
ROOT
ATOM      1  C   UNL     1       4.622   6.295  18.438  0.00  0.00    +0.000 C 
ATOM      2  O   UNL     1       5.151   7.307  17.953  0.00  0.00    +0.000 OA
ATOM      3  N   UNL     1       3.303   6.294  18.903  0.00  0.00    +0.000 N 
ATOM      4  C   UNL     1       2.527   7.479  18.730  0.00  0.00    +0.000 A 
ATOM      5  C   UNL     1       2.525   8.134  17.483  0.00  0.00    +0.000 A 
ATOM      6  C   UNL     1       1.864   9.352  17.301  0.00  0.00    +0.000 A 
ATOM      7  C   UNL     1       1.214   9.951  18.370  0.00  0.00    +0.000 A 
ATOM      8  C   UNL     1       1.206   9.320  19.610  0.00  0.00    +0.000 A 
ATOM      9  C   UNL     1       1.840   8.079  19.784  0.00  0.00    +0.000 A 
ATOM     10  C   UNL     1       1.713   7.460  21.108  0.00  0.00    +0.000 C 
ATOM     11  O   UNL     1       1.733   8.147  22.125  0.00  0.00    +0.000 OA
ATOM     12  N   UNL     1       1.349   6.147  21.170  0.00  0.00    +0.000 N 
ATOM     13  C   UNL     1       1.574   5.115  20.246  0.00  0.00    +0.000 A 
ATOM     14  C   UNL     1       0.859   3.933  20.484  0.00  0.00    +0.000 A 
ATOM     15  C   UNL     1       1.131   2.790  19.750  0.00  0.00    +0.000 A 
ATOM     16  C   UNL     1       2.134   2.859  18.807  0.00  0.00    +0.000 A 
ATOM     17  N   UNL     1       2.844   3.989  18.544  0.00  0.00    +0.000 NA
ATOM     18  C   UNL     1       2.558   5.124  19.237  0.00  0.00    +0.000 A 
ATOM     19  H   UNL     1       0.915   5.904  22.052  0.00  0.00    +0.000 HD
ENDROOT
BRANCH   1  20
ATOM     20  C   UNL     1       5.488   5.055  18.632  0.00  0.00    +0.000 C 
BRANCH  20  21
ATOM     21  C   UNL     1       6.979   5.370  18.453  0.00  0.00    +0.000 C 
BRANCH  21  22
ATOM     22  C   UNL     1       7.583   4.639  17.244  0.00  0.00    +0.000 C 
BRANCH  22  23
ATOM     23  C   UNL     1       6.526   4.103  16.265  0.00  0.00    +0.000 C 
BRANCH  23  25
ATOM     24  C   UNL     1       6.297   3.865  13.851  0.00  0.00    +0.000 C 
ATOM     25  N   UNL     1       6.498   4.795  14.968  0.00  0.00    +0.000 NA
ATOM     26  C   UNL     1       5.455   5.821  14.949  0.00  0.00    +0.000 C 
ENDBRANCH  23  25
ENDBRANCH  22  23
ENDBRANCH  21  22
ENDBRANCH  20  21
ENDBRANCH   1  20
TORSDOF 5
ENDMDL
MODEL 6
REMARK VINA RESULT:      -6.3      5.630      8.297
REMARK  Name = 
REMARK  7 active torsions:
REMARK  status: ('A' for Active; 'I' for Inactive)
REMARK    1  A    between atoms: C_1  and  N_2
REMARK    2  A    between atoms: N_2  and  C_3
REMARK    3  A    between atoms: N_2  and  C_4
REMARK    4  A    between atoms: C_4  and  C_5
REMARK    5  A    between atoms: C_5  and  C_6
REMARK    6  A    between atoms: C_6  and  C_7
REMARK    7  A    between atoms: C_7  and  C_8
REMARK                            x       y       z     vdW  Elec       q    Type
REMARK                         _______ _______ _______ _____ _____    ______ ____
ROOT
ATOM      1  C   UNL     1      -0.926  12.902  20.682  0.00  0.00    +0.000 C 
ATOM      2  O   UNL     1      -0.235  13.060  21.698  0.00  0.00    +0.000 OA
ATOM      3  N   UNL     1      -1.001  11.675  20.015  0.00  0.00    +0.000 N 
ATOM      4  C   UNL     1      -0.322  10.556  20.585  0.00  0.00    +0.000 A 
ATOM      5  C   UNL     1      -0.456  10.288  21.962  0.00  0.00    +0.000 A 
ATOM      6  C   UNL     1       0.274   9.268  22.579  0.00  0.00    +0.000 A 
ATOM      7  C   UNL     1       1.170   8.513  21.836  0.00  0.00    +0.000 A 
ATOM      8  C   UNL     1       1.316   8.764  20.476  0.00  0.00    +0.000 A 
ATOM      9  C   UNL     1       0.557   9.765  19.848  0.00  0.00    +0.000 A 
ATOM     10  C   UNL     1       0.729   9.904  18.397  0.00  0.00    +0.000 C 
ATOM     11  O   UNL     1       1.833   9.753  17.881  0.00  0.00    +0.000 OA
ATOM     12  N   UNL     1      -0.391   9.977  17.622  0.00  0.00    +0.000 N 
ATOM     13  C   UNL     1      -1.664  10.473  17.942  0.00  0.00    +0.000 A 
ATOM     14  C   UNL     1      -2.670  10.180  17.011  0.00  0.00    +0.000 A 
ATOM     15  C   UNL     1      -3.921  10.765  17.124  0.00  0.00    +0.000 A 
ATOM     16  C   UNL     1      -4.122  11.648  18.163  0.00  0.00    +0.000 A 
ATOM     17  N   UNL     1      -3.173  11.952  19.088  0.00  0.00    +0.000 NA
ATOM     18  C   UNL     1      -1.954  11.354  19.002  0.00  0.00    +0.000 A 
ATOM     19  H   UNL     1      -0.224   9.683  16.668  0.00  0.00    +0.000 HD
ENDROOT
BRANCH   1  20
ATOM     20  C   UNL     1      -1.617  14.124  20.085  0.00  0.00    +0.000 C 
BRANCH  20  21
ATOM     21  C   UNL     1      -1.929  15.178  21.156  0.00  0.00    +0.000 C 
BRANCH  21  22
ATOM     22  C   UNL     1      -3.381  15.086  21.651  0.00  0.00    +0.000 C 
BRANCH  22  23
ATOM     23  C   UNL     1      -3.501  14.593  23.102  0.00  0.00    +0.000 C 
BRANCH  23  25
ATOM     24  C   UNL     1      -4.906  12.913  22.035  0.00  0.00    +0.000 C 
ATOM     25  N   UNL     1      -4.163  13.287  23.243  0.00  0.00    +0.000 NA
ATOM     26  C   UNL     1      -3.190  12.244  23.568  0.00  0.00    +0.000 C 
ENDBRANCH  23  25
ENDBRANCH  22  23
ENDBRANCH  21  22
ENDBRANCH  20  21
ENDBRANCH   1  20
TORSDOF 5
ENDMDL
MODEL 7
REMARK VINA RESULT:      -6.3      2.052      4.089
REMARK  Name = 
REMARK  7 active torsions:
REMARK  status: ('A' for Active; 'I' for Inactive)
REMARK    1  A    between atoms: C_1  and  N_2
REMARK    2  A    between atoms: N_2  and  C_3
REMARK    3  A    between atoms: N_2  and  C_4
REMARK    4  A    between atoms: C_4  and  C_5
REMARK    5  A    between atoms: C_5  and  C_6
REMARK    6  A    between atoms: C_6  and  C_7
REMARK    7  A    between atoms: C_7  and  C_8
REMARK                            x       y       z     vdW  Elec       q    Type
REMARK                         _______ _______ _______ _____ _____    ______ ____
ROOT
ATOM      1  C   UNL     1       3.471   6.957  18.073  0.00  0.00    +0.000 C 
ATOM      2  O   UNL     1       4.282   7.893  18.138  0.00  0.00    +0.000 OA
ATOM      3  N   UNL     1       3.878   5.621  18.013  0.00  0.00    +0.000 N 
ATOM      4  C   UNL     1       5.273   5.336  18.117  0.00  0.00    +0.000 A 
ATOM      5  C   UNL     1       6.036   5.957  19.126  0.00  0.00    +0.000 A 
ATOM      6  C   UNL     1       7.422   5.788  19.198  0.00  0.00    +0.000 A 
ATOM      7  C   UNL     1       8.073   5.016  18.248  0.00  0.00    +0.000 A 
ATOM      8  C   UNL     1       7.337   4.396  17.244  0.00  0.00    +0.000 A 
ATOM      9  C   UNL     1       5.940   4.537  17.192  0.00  0.00    +0.000 A 
ATOM     10  C   UNL     1       5.246   3.785  16.140  0.00  0.00    +0.000 C 
ATOM     11  O   UNL     1       5.750   3.655  15.028  0.00  0.00    +0.000 OA
ATOM     12  N   UNL     1       4.150   3.054  16.491  0.00  0.00    +0.000 N 
ATOM     13  C   UNL     1       3.229   3.270  17.527  0.00  0.00    +0.000 A 
ATOM     14  C   UNL     1       2.356   2.203  17.784  0.00  0.00    +0.000 A 
ATOM     15  C   UNL     1       1.291   2.364  18.656  0.00  0.00    +0.000 A 
ATOM     16  C   UNL     1       1.119   3.603  19.234  0.00  0.00    +0.000 A 
ATOM     17  N   UNL     1       1.947   4.659  19.014  0.00  0.00    +0.000 NA
ATOM     18  C   UNL     1       3.015   4.497  18.186  0.00  0.00    +0.000 A 
ATOM     19  H   UNL     1       3.969   2.291  15.850  0.00  0.00    +0.000 HD
ENDROOT
BRANCH   1  20
ATOM     20  C   UNL     1       1.990   7.298  17.936  0.00  0.00    +0.000 C 
BRANCH  20  21
ATOM     21  C   UNL     1       1.773   8.799  17.697  0.00  0.00    +0.000 C 
BRANCH  21  22
ATOM     22  C   UNL     1       1.155   9.494  18.920  0.00  0.00    +0.000 C 
BRANCH  22  23
ATOM     23  C   UNL     1       0.021  10.467  18.561  0.00  0.00    +0.000 C 
BRANCH  23  25
ATOM     24  C   UNL     1       1.586  12.305  18.883  0.00  0.00    +0.000 C 
ATOM     25  N   UNL     1       0.211  11.833  19.073  0.00  0.00    +0.000 NA
ATOM     26  C   UNL     1      -0.723  12.762  18.435  0.00  0.00    +0.000 C 
ENDBRANCH  23  25
ENDBRANCH  22  23
ENDBRANCH  21  22
ENDBRANCH  20  21
ENDBRANCH   1  20
TORSDOF 5
ENDMDL
MODEL 8
REMARK VINA RESULT:      -6.3      5.723      8.175
REMARK  Name = 
REMARK  7 active torsions:
REMARK  status: ('A' for Active; 'I' for Inactive)
REMARK    1  A    between atoms: C_1  and  N_2
REMARK    2  A    between atoms: N_2  and  C_3
REMARK    3  A    between atoms: N_2  and  C_4
REMARK    4  A    between atoms: C_4  and  C_5
REMARK    5  A    between atoms: C_5  and  C_6
REMARK    6  A    between atoms: C_6  and  C_7
REMARK    7  A    between atoms: C_7  and  C_8
REMARK                            x       y       z     vdW  Elec       q    Type
REMARK                         _______ _______ _______ _____ _____    ______ ____
ROOT
ATOM      1  C   UNL     1      -1.006  12.968  20.776  0.00  0.00    +0.000 C 
ATOM      2  O   UNL     1      -0.312  13.130  21.791  0.00  0.00    +0.000 OA
ATOM      3  N   UNL     1      -1.066  11.745  20.102  0.00  0.00    +0.000 N 
ATOM      4  C   UNL     1      -0.369  10.632  20.662  0.00  0.00    +0.000 A 
ATOM      5  C   UNL     1      -0.494  10.354  22.038  0.00  0.00    +0.000 A 
ATOM      6  C   UNL     1       0.253   9.340  22.645  0.00  0.00    +0.000 A 
ATOM      7  C   UNL     1       1.156   8.602  21.894  0.00  0.00    +0.000 A 
ATOM      8  C   UNL     1       1.293   8.864  20.535  0.00  0.00    +0.000 A 
ATOM      9  C   UNL     1       0.517   9.858  19.917  0.00  0.00    +0.000 A 
ATOM     10  C   UNL     1       0.681  10.008  18.466  0.00  0.00    +0.000 C 
ATOM     11  O   UNL     1       1.785   9.876  17.944  0.00  0.00    +0.000 OA
ATOM     12  N   UNL     1      -0.443  10.071  17.696  0.00  0.00    +0.000 N 
ATOM     13  C   UNL     1      -1.721  10.547  18.024  0.00  0.00    +0.000 A 
ATOM     14  C   UNL     1      -2.728  10.246  17.095  0.00  0.00    +0.000 A 
ATOM     15  C   UNL     1      -3.986  10.813  17.217  0.00  0.00    +0.000 A 
ATOM     16  C   UNL     1      -4.195  11.687  18.263  0.00  0.00    +0.000 A 
ATOM     17  N   UNL     1      -3.246  11.998  19.186  0.00  0.00    +0.000 NA
ATOM     18  C   UNL     1      -2.019  11.417  19.091  0.00  0.00    +0.000 A 
ATOM     19  H   UNL     1      -0.276   9.786  16.739  0.00  0.00    +0.000 HD
ENDROOT
BRANCH   1  20
ATOM     20  C   UNL     1      -1.716  14.185  20.190  0.00  0.00    +0.000 C 
BRANCH  20  21
ATOM     21  C   UNL     1      -0.725  15.297  19.822  0.00  0.00    +0.000 C 
BRANCH  21  22
ATOM     22  C   UNL     1       0.344  14.813  18.830  0.00  0.00    +0.000 C 
BRANCH  22  23
ATOM     23  C   UNL     1       1.699  15.519  18.998  0.00  0.00    +0.000 C 
BRANCH  23  25
ATOM     24  C   UNL     1       2.402  13.212  19.340  0.00  0.00    +0.000 C 
ATOM     25  N   UNL     1       2.834  14.607  19.205  0.00  0.00    +0.000 NA
ATOM     26  C   UNL     1       3.799  14.722  18.111  0.00  0.00    +0.000 C 
ENDBRANCH  23  25
ENDBRANCH  22  23
ENDBRANCH  21  22
ENDBRANCH  20  21
ENDBRANCH   1  20
TORSDOF 5
ENDMDL
MODEL 9
REMARK VINA RESULT:      -6.3      2.004      4.078
REMARK  Name = 
REMARK  7 active torsions:
REMARK  status: ('A' for Active; 'I' for Inactive)
REMARK    1  A    between atoms: C_1  and  N_2
REMARK    2  A    between atoms: N_2  and  C_3
REMARK    3  A    between atoms: N_2  and  C_4
REMARK    4  A    between atoms: C_4  and  C_5
REMARK    5  A    between atoms: C_5  and  C_6
REMARK    6  A    between atoms: C_6  and  C_7
REMARK    7  A    between atoms: C_7  and  C_8
REMARK                            x       y       z     vdW  Elec       q    Type
REMARK                         _______ _______ _______ _____ _____    ______ ____
ROOT
ATOM      1  C   UNL     1       3.629   6.978  17.916  0.00  0.00    +0.000 C 
ATOM      2  O   UNL     1       4.443   7.911  17.977  0.00  0.00    +0.000 OA
ATOM      3  N   UNL     1       4.029   5.638  17.929  0.00  0.00    +0.000 N 
ATOM      4  C   UNL     1       5.416   5.351  18.106  0.00  0.00    +0.000 A 
ATOM      5  C   UNL     1       6.139   6.010  19.120  0.00  0.00    +0.000 A 
ATOM      6  C   UNL     1       7.519   5.837  19.259  0.00  0.00    +0.000 A 
ATOM      7  C   UNL     1       8.206   5.022  18.371  0.00  0.00    +0.000 A 
ATOM      8  C   UNL     1       7.509   4.365  17.362  0.00  0.00    +0.000 A 
ATOM      9  C   UNL     1       6.117   4.511  17.244  0.00  0.00    +0.000 A 
ATOM     10  C   UNL     1       5.464   3.719  16.195  0.00  0.00    +0.000 C 
ATOM     11  O   UNL     1       6.014   3.540  15.112  0.00  0.00    +0.000 OA
ATOM     12  N   UNL     1       4.348   3.009  16.528  0.00  0.00    +0.000 N 
ATOM     13  C   UNL     1       3.385   3.273  17.514  0.00  0.00    +0.000 A 
ATOM     14  C   UNL     1       2.495   2.222  17.777  0.00  0.00    +0.000 A 
ATOM     15  C   UNL     1       1.395   2.424  18.594  0.00  0.00    +0.000 A 
ATOM     16  C   UNL     1       1.206   3.688  19.112  0.00  0.00    +0.000 A 
ATOM     17  N   UNL     1       2.051   4.728  18.885  0.00  0.00    +0.000 NA
ATOM     18  C   UNL     1       3.152   4.528  18.111  0.00  0.00    +0.000 A 
ATOM     19  H   UNL     1       4.190   2.221  15.912  0.00  0.00    +0.000 HD
ENDROOT
BRANCH   1  20
ATOM     20  C   UNL     1       2.158   7.321  17.701  0.00  0.00    +0.000 C 
BRANCH  20  21
ATOM     21  C   UNL     1       1.773   8.633  18.399  0.00  0.00    +0.000 C 
BRANCH  21  22
ATOM     22  C   UNL     1       1.561   8.442  19.909  0.00  0.00    +0.000 C 
BRANCH  22  23
ATOM     23  C   UNL     1       0.582   9.457  20.521  0.00  0.00    +0.000 C 
BRANCH  23  25
ATOM     24  C   UNL     1      -0.963  11.022  19.472  0.00  0.00    +0.000 C 
ATOM     25  N   UNL     1       0.441  10.701  19.749  0.00  0.00    +0.000 NA
ATOM     26  C   UNL     1       1.074  11.820  20.447  0.00  0.00    +0.000 C 
ENDBRANCH  23  25
ENDBRANCH  22  23
ENDBRANCH  21  22
ENDBRANCH  20  21
ENDBRANCH   1  20
TORSDOF 5
ENDMDL
