MODEL 1
REMARK VINA RESULT:      -7.8      0.000      0.000
REMARK  Name = 
REMARK  7 active torsions:
REMARK  status: ('A' for Active; 'I' for Inactive)
REMARK    1  A    between atoms: C_1  and  C_2
REMARK    2  A    between atoms: C_2  and  C_3
REMARK    3  A    between atoms: C_2  and  C_4
REMARK    4  A    between atoms: C_2  and  C_5
REMARK    5  A    between atoms: C_11  and  C_12
REMARK    6  A    between atoms: N_14  and  C_15
REMARK    7  A    between atoms: C_15  and  C_16
REMARK                            x       y       z     vdW  Elec       q    Type
REMARK                         _______ _______ _______ _____ _____    ______ ____
ROOT
ATOM      1  C   UNL     1       1.596   3.261  19.367  0.00  0.00    +0.000 C 
ATOM      2  C   UNL     1       1.854   2.034  18.423  0.00  0.00    +0.000 C 
ATOM      3  C   UNL     1       3.257   1.955  17.779  0.00  0.00    +0.000 C 
ATOM      4  C   UNL     1       3.730   3.320  17.481  0.00  0.00    +0.000 A 
ATOM      5  O   UNL     1       4.889   3.530  16.825  0.00  0.00    +0.000 OA
ATOM      6  N   UNL     1       5.095   4.902  16.708  0.00  0.00    +0.000 NA
ATOM      7  C   UNL     1       4.040   5.493  17.311  0.00  0.00    +0.000 A 
ATOM      8  C   UNL     1       3.159   4.513  17.836  0.00  0.00    +0.000 A 
ATOM      9  C   UNL     1       1.883   4.587  18.586  0.00  0.00    +0.000 C 
ENDROOT
BRANCH   1  11
ATOM     10  C   UNL     1       3.581   2.428  20.884  0.00  0.00    +0.000 C 
ATOM     11  C   UNL     1       2.232   3.163  20.813  0.00  0.00    +0.000 C 
ATOM     12  C   UNL     1       1.253   2.433  21.764  0.00  0.00    +0.000 C 
ATOM     13  C   UNL     1       2.452   4.577  21.403  0.00  0.00    +0.000 C 
ENDBRANCH   1  11
BRANCH   7  14
ATOM     14  C   UNL     1       3.894   6.952  17.361  0.00  0.00    +0.000 C 
ATOM     15  O   UNL     1       4.837   7.717  17.176  0.00  0.00    +0.000 OA
ATOM     16  N   UNL     1       2.618   7.395  17.649  0.00  0.00    +0.000 N 
ATOM     17  H   UNL     1       1.933   6.691  17.900  0.00  0.00    +0.000 HD
BRANCH  16  18
ATOM     18  C   UNL     1       2.348   8.787  17.903  0.00  0.00    +0.000 C 
BRANCH  18  19
ATOM     19  C   UNL     1       1.508   8.980  19.139  0.00  0.00    +0.000 A 
ATOM     20  C   UNL     1       0.540   9.995  19.206  0.00  0.00    +0.000 A 
ATOM     21  C   UNL     1      -0.249  10.145  20.348  0.00  0.00    +0.000 A 
ATOM     22  C   UNL     1      -0.064   9.289  21.429  0.00  0.00    +0.000 A 
ATOM     23  F   UNL     1      -0.827   9.429  22.520  0.00  0.00    +0.000 F 
ATOM     24  C   UNL     1       0.899   8.289  21.390  0.00  0.00    +0.000 A 
ATOM     25  C   UNL     1       1.689   8.137  20.250  0.00  0.00    +0.000 A 
ENDBRANCH  18  19
ENDBRANCH  16  18
ENDBRANCH   7  14
TORSDOF 4
ENDMDL
MODEL 2
REMARK VINA RESULT:      -7.7      4.250      6.826
REMARK  Name = 
REMARK  7 active torsions:
REMARK  status: ('A' for Active; 'I' for Inactive)
REMARK    1  A    between atoms: C_1  and  C_2
REMARK    2  A    between atoms: C_2  and  C_3
REMARK    3  A    between atoms: C_2  and  C_4
REMARK    4  A    between atoms: C_2  and  C_5
REMARK    5  A    between atoms: C_11  and  C_12
REMARK    6  A    between atoms: N_14  and  C_15
REMARK    7  A    between atoms: C_15  and  C_16
REMARK                            x       y       z     vdW  Elec       q    Type
REMARK                         _______ _______ _______ _____ _____    ______ ____
ROOT
ATOM      1  C   UNL     1       3.258   3.780  19.932  0.00  0.00    +0.000 C 
ATOM      2  C   UNL     1       2.401   4.702  20.869  0.00  0.00    +0.000 C 
ATOM      3  C   UNL     1       1.816   5.976  20.219  0.00  0.00    +0.000 C 
ATOM      4  C   UNL     1       2.776   6.497  19.227  0.00  0.00    +0.000 A 
ATOM      5  O   UNL     1       2.552   7.661  18.583  0.00  0.00    +0.000 OA
ATOM      6  N   UNL     1       3.600   7.890  17.696  0.00  0.00    +0.000 NA
ATOM      7  C   UNL     1       4.438   6.838  17.826  0.00  0.00    +0.000 A 
ATOM      8  C   UNL     1       3.932   5.918  18.779  0.00  0.00    +0.000 A 
ATOM      9  C   UNL     1       4.419   4.619  19.300  0.00  0.00    +0.000 C 
ENDROOT
BRANCH   1  11
ATOM     10  C   UNL     1       2.036   3.551  17.612  0.00  0.00    +0.000 C 
ATOM     11  C   UNL     1       2.443   2.869  18.929  0.00  0.00    +0.000 C 
ATOM     12  C   UNL     1       1.148   2.369  19.614  0.00  0.00    +0.000 C 
ATOM     13  C   UNL     1       3.261   1.609  18.555  0.00  0.00    +0.000 C 
ENDBRANCH   1  11
BRANCH   7  14
ATOM     14  C   UNL     1       5.686   6.744  17.060  0.00  0.00    +0.000 C 
ATOM     15  O   UNL     1       6.558   7.607  17.110  0.00  0.00    +0.000 OA
ATOM     16  N   UNL     1       5.794   5.618  16.267  0.00  0.00    +0.000 N 
ATOM     17  H   UNL     1       4.977   5.021  16.203  0.00  0.00    +0.000 HD
BRANCH  16  18
ATOM     18  C   UNL     1       6.876   5.463  15.328  0.00  0.00    +0.000 C 
BRANCH  18  19
ATOM     19  C   UNL     1       6.479   4.614  14.149  0.00  0.00    +0.000 A 
ATOM     20  C   UNL     1       5.209   4.018  14.081  0.00  0.00    +0.000 A 
ATOM     21  C   UNL     1       4.845   3.255  12.969  0.00  0.00    +0.000 A 
ATOM     22  C   UNL     1       5.753   3.076  11.931  0.00  0.00    +0.000 A 
ATOM     23  F   UNL     1       5.400   2.351  10.862  0.00  0.00    +0.000 F 
ATOM     24  C   UNL     1       7.020   3.644  11.985  0.00  0.00    +0.000 A 
ATOM     25  C   UNL     1       7.386   4.406  13.095  0.00  0.00    +0.000 A 
ENDBRANCH  18  19
ENDBRANCH  16  18
ENDBRANCH   7  14
TORSDOF 4
ENDMDL
MODEL 3
REMARK VINA RESULT:      -7.6      4.164      6.742
REMARK  Name = 
REMARK  7 active torsions:
REMARK  status: ('A' for Active; 'I' for Inactive)
REMARK    1  A    between atoms: C_1  and  C_2
REMARK    2  A    between atoms: C_2  and  C_3
REMARK    3  A    between atoms: C_2  and  C_4
REMARK    4  A    between atoms: C_2  and  C_5
REMARK    5  A    between atoms: C_11  and  C_12
REMARK    6  A    between atoms: N_14  and  C_15
REMARK    7  A    between atoms: C_15  and  C_16
REMARK                            x       y       z     vdW  Elec       q    Type
REMARK                         _______ _______ _______ _____ _____    ______ ____
ROOT
ATOM      1  C   UNL     1       3.345   3.786  19.988  0.00  0.00    +0.000 C 
ATOM      2  C   UNL     1       2.456   4.690  20.914  0.00  0.00    +0.000 C 
ATOM      3  C   UNL     1       1.816   5.927  20.245  0.00  0.00    +0.000 C 
ATOM      4  C   UNL     1       2.748   6.468  19.237  0.00  0.00    +0.000 A 
ATOM      5  O   UNL     1       2.473   7.610  18.574  0.00  0.00    +0.000 OA
ATOM      6  N   UNL     1       3.505   7.864  17.675  0.00  0.00    +0.000 NA
ATOM      7  C   UNL     1       4.386   6.851  17.818  0.00  0.00    +0.000 A 
ATOM      8  C   UNL     1       3.924   5.928  18.792  0.00  0.00    +0.000 A 
ATOM      9  C   UNL     1       4.467   4.660  19.332  0.00  0.00    +0.000 C 
ENDROOT
BRANCH   1  11
ATOM     10  C   UNL     1       2.237   3.422  17.628  0.00  0.00    +0.000 C 
ATOM     11  C   UNL     1       2.561   2.824  19.007  0.00  0.00    +0.000 C 
ATOM     12  C   UNL     1       1.222   2.398  19.656  0.00  0.00    +0.000 C 
ATOM     13  C   UNL     1       3.367   1.526  18.763  0.00  0.00    +0.000 C 
ENDBRANCH   1  11
BRANCH   7  14
ATOM     14  C   UNL     1       5.632   6.793  17.045  0.00  0.00    +0.000 C 
ATOM     15  O   UNL     1       6.306   7.791  16.803  0.00  0.00    +0.000 OA
ATOM     16  N   UNL     1       5.976   5.532  16.598  0.00  0.00    +0.000 N 
ATOM     17  H   UNL     1       5.301   4.790  16.749  0.00  0.00    +0.000 HD
BRANCH  16  18
ATOM     18  C   UNL     1       7.074   5.335  15.685  0.00  0.00    +0.000 C 
BRANCH  18  19
ATOM     19  C   UNL     1       6.634   4.646  14.419  0.00  0.00    +0.000 A 
ATOM     20  C   UNL     1       7.445   4.650  13.273  0.00  0.00    +0.000 A 
ATOM     21  C   UNL     1       7.036   3.985  12.115  0.00  0.00    +0.000 A 
ATOM     22  C   UNL     1       5.811   3.325  12.098  0.00  0.00    +0.000 A 
ATOM     23  F   UNL     1       5.424   2.681  10.990  0.00  0.00    +0.000 F 
ATOM     24  C   UNL     1       4.986   3.322  13.215  0.00  0.00    +0.000 A 
ATOM     25  C   UNL     1       5.393   3.987  14.373  0.00  0.00    +0.000 A 
ENDBRANCH  18  19
ENDBRANCH  16  18
ENDBRANCH   7  14
TORSDOF 4
ENDMDL
MODEL 4
REMARK VINA RESULT:      -7.6      0.100      1.322
REMARK  Name = 
REMARK  7 active torsions:
REMARK  status: ('A' for Active; 'I' for Inactive)
REMARK    1  A    between atoms: C_1  and  C_2
REMARK    2  A    between atoms: C_2  and  C_3
REMARK    3  A    between atoms: C_2  and  C_4
REMARK    4  A    between atoms: C_2  and  C_5
REMARK    5  A    between atoms: C_11  and  C_12
REMARK    6  A    between atoms: N_14  and  C_15
REMARK    7  A    between atoms: C_15  and  C_16
REMARK                            x       y       z     vdW  Elec       q    Type
REMARK                         _______ _______ _______ _____ _____    ______ ____
ROOT
ATOM      1  C   UNL     1       1.511   3.293  19.341  0.00  0.00    +0.000 C 
ATOM      2  C   UNL     1       1.777   2.076  18.387  0.00  0.00    +0.000 C 
ATOM      3  C   UNL     1       3.190   1.995  17.765  0.00  0.00    +0.000 C 
ATOM      4  C   UNL     1       3.676   3.360  17.491  0.00  0.00    +0.000 A 
ATOM      5  O   UNL     1       4.848   3.570  16.857  0.00  0.00    +0.000 OA
ATOM      6  N   UNL     1       5.064   4.942  16.760  0.00  0.00    +0.000 NA
ATOM      7  C   UNL     1       4.004   5.532  17.352  0.00  0.00    +0.000 A 
ATOM      8  C   UNL     1       3.108   4.552  17.851  0.00  0.00    +0.000 A 
ATOM      9  C   UNL     1       1.820   4.626  18.580  0.00  0.00    +0.000 C 
ENDROOT
BRANCH   1  11
ATOM     10  C   UNL     1       1.253   2.411  21.808  0.00  0.00    +0.000 C 
ATOM     11  C   UNL     1       2.122   3.175  20.795  0.00  0.00    +0.000 C 
ATOM     12  C   UNL     1       2.375   4.589  21.371  0.00  0.00    +0.000 C 
ATOM     13  C   UNL     1       3.497   2.464  20.749  0.00  0.00    +0.000 C 
ENDBRANCH   1  11
BRANCH   7  14
ATOM     14  C   UNL     1       3.867   6.992  17.417  0.00  0.00    +0.000 C 
ATOM     15  O   UNL     1       4.828   7.750  17.322  0.00  0.00    +0.000 OA
ATOM     16  N   UNL     1       2.576   7.443  17.611  0.00  0.00    +0.000 N 
ATOM     17  H   UNL     1       1.866   6.741  17.794  0.00  0.00    +0.000 HD
BRANCH  16  18
ATOM     18  C   UNL     1       2.298   8.833  17.868  0.00  0.00    +0.000 C 
BRANCH  18  19
ATOM     19  C   UNL     1       1.453   9.018  19.102  0.00  0.00    +0.000 A 
ATOM     20  C   UNL     1       1.620   8.193  20.225  0.00  0.00    +0.000 A 
ATOM     21  C   UNL     1       0.847   8.393  21.371  0.00  0.00    +0.000 A 
ATOM     22  C   UNL     1      -0.101   9.410  21.392  0.00  0.00    +0.000 A 
ATOM     23  F   UNL     1      -0.835   9.606  22.494  0.00  0.00    +0.000 F 
ATOM     24  C   UNL     1      -0.294  10.228  20.286  0.00  0.00    +0.000 A 
ATOM     25  C   UNL     1       0.477  10.029  19.139  0.00  0.00    +0.000 A 
ENDBRANCH  18  19
ENDBRANCH  16  18
ENDBRANCH   7  14
TORSDOF 4
ENDMDL
MODEL 5
REMARK VINA RESULT:      -7.4      4.602      7.052
REMARK  Name = 
REMARK  7 active torsions:
REMARK  status: ('A' for Active; 'I' for Inactive)
REMARK    1  A    between atoms: C_1  and  C_2
REMARK    2  A    between atoms: C_2  and  C_3
REMARK    3  A    between atoms: C_2  and  C_4
REMARK    4  A    between atoms: C_2  and  C_5
REMARK    5  A    between atoms: C_11  and  C_12
REMARK    6  A    between atoms: N_14  and  C_15
REMARK    7  A    between atoms: C_15  and  C_16
REMARK                            x       y       z     vdW  Elec       q    Type
REMARK                         _______ _______ _______ _____ _____    ______ ____
ROOT
ATOM      1  C   UNL     1       3.016   2.646  18.252  0.00  0.00    +0.000 C 
ATOM      2  C   UNL     1       3.745   2.037  19.501  0.00  0.00    +0.000 C 
ATOM      3  C   UNL     1       4.657   3.000  20.293  0.00  0.00    +0.000 C 
ATOM      4  C   UNL     1       5.306   3.934  19.353  0.00  0.00    +0.000 A 
ATOM      5  O   UNL     1       6.231   4.820  19.775  0.00  0.00    +0.000 OA
ATOM      6  N   UNL     1       6.648   5.583  18.688  0.00  0.00    +0.000 NA
ATOM      7  C   UNL     1       5.949   5.134  17.624  0.00  0.00    +0.000 A 
ATOM      8  C   UNL     1       5.065   4.096  18.015  0.00  0.00    +0.000 A 
ATOM      9  C   UNL     1       4.079   3.267  17.283  0.00  0.00    +0.000 C 
ENDROOT
BRANCH   1  11
ATOM     10  C   UNL     1       1.894   4.459  19.796  0.00  0.00    +0.000 C 
ATOM     11  C   UNL     1       1.757   3.552  18.562  0.00  0.00    +0.000 C 
ATOM     12  C   UNL     1       0.513   2.657  18.777  0.00  0.00    +0.000 C 
ATOM     13  C   UNL     1       1.439   4.468  17.356  0.00  0.00    +0.000 C 
ENDBRANCH   1  11
BRANCH   7  14
ATOM     14  C   UNL     1       6.145   5.687  16.279  0.00  0.00    +0.000 C 
ATOM     15  O   UNL     1       5.481   6.627  15.848  0.00  0.00    +0.000 OA
ATOM     16  N   UNL     1       7.121   5.058  15.532  0.00  0.00    +0.000 N 
ATOM     17  H   UNL     1       7.535   4.221  15.928  0.00  0.00    +0.000 HD
BRANCH  16  18
ATOM     18  C   UNL     1       7.315   5.369  14.138  0.00  0.00    +0.000 C 
BRANCH  18  19
ATOM     19  C   UNL     1       6.669   4.346  13.240  0.00  0.00    +0.000 A 
ATOM     20  C   UNL     1       5.289   4.094  13.304  0.00  0.00    +0.000 A 
ATOM     21  C   UNL     1       4.700   3.163  12.447  0.00  0.00    +0.000 A 
ATOM     22  C   UNL     1       5.490   2.473  11.533  0.00  0.00    +0.000 A 
ATOM     23  F   UNL     1       4.922   1.586  10.706  0.00  0.00    +0.000 F 
ATOM     24  C   UNL     1       6.859   2.696  11.463  0.00  0.00    +0.000 A 
ATOM     25  C   UNL     1       7.450   3.626  12.319  0.00  0.00    +0.000 A 
ENDBRANCH  18  19
ENDBRANCH  16  18
ENDBRANCH   7  14
TORSDOF 4
ENDMDL
MODEL 6
REMARK VINA RESULT:      -7.4      3.941      6.545
REMARK  Name = 
REMARK  7 active torsions:
REMARK  status: ('A' for Active; 'I' for Inactive)
REMARK    1  A    between atoms: C_1  and  C_2
REMARK    2  A    between atoms: C_2  and  C_3
REMARK    3  A    between atoms: C_2  and  C_4
REMARK    4  A    between atoms: C_2  and  C_5
REMARK    5  A    between atoms: C_11  and  C_12
REMARK    6  A    between atoms: N_14  and  C_15
REMARK    7  A    between atoms: C_15  and  C_16
REMARK                            x       y       z     vdW  Elec       q    Type
REMARK                         _______ _______ _______ _____ _____    ______ ____
ROOT
ATOM      1  C   UNL     1       3.196   3.679  19.817  0.00  0.00    +0.000 C 
ATOM      2  C   UNL     1       2.507   4.559  20.919  0.00  0.00    +0.000 C 
ATOM      3  C   UNL     1       1.847   5.868  20.429  0.00  0.00    +0.000 C 
ATOM      4  C   UNL     1       2.650   6.431  19.327  0.00  0.00    +0.000 A 
ATOM      5  O   UNL     1       2.347   7.627  18.783  0.00  0.00    +0.000 OA
ATOM      6  N   UNL     1       3.248   7.893  17.756  0.00  0.00    +0.000 NA
ATOM      7  C   UNL     1       4.081   6.831  17.703  0.00  0.00    +0.000 A 
ATOM      8  C   UNL     1       3.715   5.867  18.678  0.00  0.00    +0.000 A 
ATOM      9  C   UNL     1       4.258   4.540  19.054  0.00  0.00    +0.000 C 
ENDROOT
BRANCH   1  11
ATOM     10  C   UNL     1       0.820   2.592  19.495  0.00  0.00    +0.000 C 
ATOM     11  C   UNL     1       2.223   2.825  18.909  0.00  0.00    +0.000 C 
ATOM     12  C   UNL     1       2.850   1.436  18.637  0.00  0.00    +0.000 C 
ATOM     13  C   UNL     1       2.034   3.503  17.531  0.00  0.00    +0.000 C 
ENDBRANCH   1  11
BRANCH   7  14
ATOM     14  C   UNL     1       5.195   6.766  16.750  0.00  0.00    +0.000 C 
ATOM     15  O   UNL     1       5.191   7.384  15.688  0.00  0.00    +0.000 OA
ATOM     16  N   UNL     1       6.236   5.943  17.132  0.00  0.00    +0.000 N 
ATOM     17  H   UNL     1       6.098   5.386  17.969  0.00  0.00    +0.000 HD
BRANCH  16  18
ATOM     18  C   UNL     1       7.319   5.638  16.233  0.00  0.00    +0.000 C 
BRANCH  18  19
ATOM     19  C   UNL     1       6.846   4.881  15.020  0.00  0.00    +0.000 A 
ATOM     20  C   UNL     1       5.771   3.982  15.101  0.00  0.00    +0.000 A 
ATOM     21  C   UNL     1       5.326   3.306  13.962  0.00  0.00    +0.000 A 
ATOM     22  C   UNL     1       5.962   3.520  12.744  0.00  0.00    +0.000 A 
ATOM     23  F   UNL     1       5.529   2.878  11.651  0.00  0.00    +0.000 F 
ATOM     24  C   UNL     1       7.038   4.394  12.644  0.00  0.00    +0.000 A 
ATOM     25  C   UNL     1       7.484   5.069  13.781  0.00  0.00    +0.000 A 
ENDBRANCH  18  19
ENDBRANCH  16  18
ENDBRANCH   7  14
TORSDOF 4
ENDMDL
MODEL 7
REMARK VINA RESULT:      -7.3      3.494      8.103
REMARK  Name = 
REMARK  7 active torsions:
REMARK  status: ('A' for Active; 'I' for Inactive)
REMARK    1  A    between atoms: C_1  and  C_2
REMARK    2  A    between atoms: C_2  and  C_3
REMARK    3  A    between atoms: C_2  and  C_4
REMARK    4  A    between atoms: C_2  and  C_5
REMARK    5  A    between atoms: C_11  and  C_12
REMARK    6  A    between atoms: N_14  and  C_15
REMARK    7  A    between atoms: C_15  and  C_16
REMARK                            x       y       z     vdW  Elec       q    Type
REMARK                         _______ _______ _______ _____ _____    ______ ____
ROOT
ATOM      1  C   UNL     1      -1.200  12.487  20.505  0.00  0.00    +0.000 C 
ATOM      2  C   UNL     1      -2.029  12.225  21.811  0.00  0.00    +0.000 C 
ATOM      3  C   UNL     1      -1.280  11.512  22.960  0.00  0.00    +0.000 C 
ATOM      4  C   UNL     1      -0.338  10.531  22.388  0.00  0.00    +0.000 A 
ATOM      5  O   UNL     1       0.373   9.702  23.179  0.00  0.00    +0.000 OA
ATOM      6  N   UNL     1       1.191   8.911  22.377  0.00  0.00    +0.000 NA
ATOM      7  C   UNL     1       0.953   9.295  21.104  0.00  0.00    +0.000 A 
ATOM      8  C   UNL     1      -0.003  10.343  21.074  0.00  0.00    +0.000 A 
ATOM      9  C   UNL     1      -0.616  11.132  19.980  0.00  0.00    +0.000 C 
ENDROOT
BRANCH   1  11
ATOM     10  C   UNL     1      -0.246  14.539  21.850  0.00  0.00    +0.000 C 
ATOM     11  C   UNL     1      -0.182  13.696  20.565  0.00  0.00    +0.000 C 
ATOM     12  C   UNL     1      -0.434  14.648  19.371  0.00  0.00    +0.000 C 
ATOM     13  C   UNL     1       1.273  13.187  20.426  0.00  0.00    +0.000 C 
ENDBRANCH   1  11
BRANCH   7  14
ATOM     14  C   UNL     1       1.621   8.655  19.965  0.00  0.00    +0.000 C 
ATOM     15  O   UNL     1       1.514   9.076  18.816  0.00  0.00    +0.000 OA
ATOM     16  N   UNL     1       2.362   7.534  20.284  0.00  0.00    +0.000 N 
ATOM     17  H   UNL     1       2.297   7.197  21.239  0.00  0.00    +0.000 HD
BRANCH  16  18
ATOM     18  C   UNL     1       2.934   6.698  19.260  0.00  0.00    +0.000 C 
BRANCH  18  19
ATOM     19  C   UNL     1       2.215   5.379  19.146  0.00  0.00    +0.000 A 
ATOM     20  C   UNL     1       2.166   4.684  17.927  0.00  0.00    +0.000 A 
ATOM     21  C   UNL     1       1.518   3.450  17.842  0.00  0.00    +0.000 A 
ATOM     22  C   UNL     1       0.908   2.914  18.972  0.00  0.00    +0.000 A 
ATOM     23  F   UNL     1       0.294   1.727  18.891  0.00  0.00    +0.000 F 
ATOM     24  C   UNL     1       0.931   3.592  20.184  0.00  0.00    +0.000 A 
ATOM     25  C   UNL     1       1.578   4.826  20.271  0.00  0.00    +0.000 A 
ENDBRANCH  18  19
ENDBRANCH  16  18
ENDBRANCH   7  14
TORSDOF 4
ENDMDL
MODEL 8
REMARK VINA RESULT:      -7.3      5.122      6.125
REMARK  Name = 
REMARK  7 active torsions:
REMARK  status: ('A' for Active; 'I' for Inactive)
REMARK    1  A    between atoms: C_1  and  C_2
REMARK    2  A    between atoms: C_2  and  C_3
REMARK    3  A    between atoms: C_2  and  C_4
REMARK    4  A    between atoms: C_2  and  C_5
REMARK    5  A    between atoms: C_11  and  C_12
REMARK    6  A    between atoms: N_14  and  C_15
REMARK    7  A    between atoms: C_15  and  C_16
REMARK                            x       y       z     vdW  Elec       q    Type
REMARK                         _______ _______ _______ _____ _____    ______ ____
ROOT
ATOM      1  C   UNL     1       3.684   4.470  17.488  0.00  0.00    +0.000 C 
ATOM      2  C   UNL     1       4.080   3.194  18.312  0.00  0.00    +0.000 C 
ATOM      3  C   UNL     1       5.002   3.431  19.529  0.00  0.00    +0.000 C 
ATOM      4  C   UNL     1       5.949   4.518  19.214  0.00  0.00    +0.000 A 
ATOM      5  O   UNL     1       6.931   4.859  20.074  0.00  0.00    +0.000 OA
ATOM      6  N   UNL     1       7.647   5.923  19.534  0.00  0.00    +0.000 NA
ATOM      7  C   UNL     1       7.066   6.204  18.348  0.00  0.00    +0.000 A 
ATOM      8  C   UNL     1       5.963   5.341  18.121  0.00  0.00    +0.000 A 
ATOM      9  C   UNL     1       4.983   5.208  17.018  0.00  0.00    +0.000 C 
ENDROOT
BRANCH   1  11
ATOM     10  C   UNL     1       2.469   5.318  19.664  0.00  0.00    +0.000 C 
ATOM     11  C   UNL     1       2.567   5.387  18.131  0.00  0.00    +0.000 C 
ATOM     12  C   UNL     1       1.182   5.000  17.558  0.00  0.00    +0.000 C 
ATOM     13  C   UNL     1       2.802   6.870  17.756  0.00  0.00    +0.000 C 
ENDBRANCH   1  11
BRANCH   7  14
ATOM     14  C   UNL     1       7.574   7.263  17.468  0.00  0.00    +0.000 C 
ATOM     15  O   UNL     1       7.793   7.079  16.273  0.00  0.00    +0.000 OA
ATOM     16  N   UNL     1       7.803   8.473  18.092  0.00  0.00    +0.000 N 
ATOM     17  H   UNL     1       7.702   8.496  19.101  0.00  0.00    +0.000 HD
BRANCH  16  18
ATOM     18  C   UNL     1       8.460   9.557  17.407  0.00  0.00    +0.000 C 
BRANCH  18  19
ATOM     19  C   UNL     1       8.968  10.601  18.367  0.00  0.00    +0.000 A 
ATOM     20  C   UNL     1       9.112  11.940  17.971  0.00  0.00    +0.000 A 
ATOM     21  C   UNL     1       9.559  12.903  18.880  0.00  0.00    +0.000 A 
ATOM     22  C   UNL     1       9.874  12.526  20.181  0.00  0.00    +0.000 A 
ATOM     23  F   UNL     1      10.295  13.450  21.053  0.00  0.00    +0.000 F 
ATOM     24  C   UNL     1       9.755  11.203  20.589  0.00  0.00    +0.000 A 
ATOM     25  C   UNL     1       9.309  10.240  19.683  0.00  0.00    +0.000 A 
ENDBRANCH  18  19
ENDBRANCH  16  18
ENDBRANCH   7  14
TORSDOF 4
ENDMDL
MODEL 9
REMARK VINA RESULT:      -7.2      4.573      7.063
REMARK  Name = 
REMARK  7 active torsions:
REMARK  status: ('A' for Active; 'I' for Inactive)
REMARK    1  A    between atoms: C_1  and  C_2
REMARK    2  A    between atoms: C_2  and  C_3
REMARK    3  A    between atoms: C_2  and  C_4
REMARK    4  A    between atoms: C_2  and  C_5
REMARK    5  A    between atoms: C_11  and  C_12
REMARK    6  A    between atoms: N_14  and  C_15
REMARK    7  A    between atoms: C_15  and  C_16
REMARK                            x       y       z     vdW  Elec       q    Type
REMARK                         _______ _______ _______ _____ _____    ______ ____
ROOT
ATOM      1  C   UNL     1       3.066   2.645  18.219  0.00  0.00    +0.000 C 
ATOM      2  C   UNL     1       3.780   2.022  19.470  0.00  0.00    +0.000 C 
ATOM      3  C   UNL     1       4.675   2.980  20.288  0.00  0.00    +0.000 C 
ATOM      4  C   UNL     1       5.331   3.931  19.371  0.00  0.00    +0.000 A 
ATOM      5  O   UNL     1       6.244   4.817  19.819  0.00  0.00    +0.000 OA
ATOM      6  N   UNL     1       6.672   5.598  18.749  0.00  0.00    +0.000 NA
ATOM      7  C   UNL     1       5.990   5.161  17.669  0.00  0.00    +0.000 A 
ATOM      8  C   UNL     1       5.108   4.111  18.033  0.00  0.00    +0.000 A 
ATOM      9  C   UNL     1       4.137   3.287  17.275  0.00  0.00    +0.000 C 
ENDROOT
BRANCH   1  11
ATOM     10  C   UNL     1       1.443   4.565  17.435  0.00  0.00    +0.000 C 
ATOM     11  C   UNL     1       1.796   3.538  18.524  0.00  0.00    +0.000 C 
ATOM     12  C   UNL     1       2.013   4.317  19.845  0.00  0.00    +0.000 C 
ATOM     13  C   UNL     1       0.547   2.649  18.735  0.00  0.00    +0.000 C 
ENDBRANCH   1  11
BRANCH   7  14
ATOM     14  C   UNL     1       6.202   5.735  16.335  0.00  0.00    +0.000 C 
ATOM     15  O   UNL     1       5.560   6.697  15.921  0.00  0.00    +0.000 OA
ATOM     16  N   UNL     1       7.165   5.098  15.577  0.00  0.00    +0.000 N 
ATOM     17  H   UNL     1       7.559   4.244  15.958  0.00  0.00    +0.000 HD
BRANCH  16  18
ATOM     18  C   UNL     1       7.368   5.430  14.190  0.00  0.00    +0.000 C 
BRANCH  18  19
ATOM     19  C   UNL     1       6.712   4.433  13.271  0.00  0.00    +0.000 A 
ATOM     20  C   UNL     1       7.443   3.790  12.259  0.00  0.00    +0.000 A 
ATOM     21  C   UNL     1       6.828   2.848  11.432  0.00  0.00    +0.000 A 
ATOM     22  C   UNL     1       5.480   2.555  11.608  0.00  0.00    +0.000 A 
ATOM     23  F   UNL     1       4.893   1.645  10.820  0.00  0.00    +0.000 F 
ATOM     24  C   UNL     1       4.734   3.190  12.593  0.00  0.00    +0.000 A 
ATOM     25  C   UNL     1       5.347   4.133  13.420  0.00  0.00    +0.000 A 
ENDBRANCH  18  19
ENDBRANCH  16  18
ENDBRANCH   7  14
TORSDOF 4
ENDMDL
