MODEL 1
REMARK VINA RESULT:      -7.4      0.000      0.000
REMARK  Name = 
REMARK  10 active torsions:
REMARK  status: ('A' for Active; 'I' for Inactive)
REMARK    1  A    between atoms: C_1  and  C_2
REMARK    2  A    between atoms: C_2  and  O_3
REMARK    3  A    between atoms: O_3  and  C_4
REMARK    4  A    between atoms: C_4  and  C_6
REMARK    5  A    between atoms: C_6  and  C_16
REMARK    6  A    between atoms: N_7  and  N_8
REMARK    7  A    between atoms: N_8  and  C_9
REMARK    8  A    between atoms: C_12  and  C_13
REMARK    9  A    between atoms: C_16  and  C_18
REMARK   10  A    between atoms: C_18  and  C_21
REMARK                            x       y       z     vdW  Elec       q    Type
REMARK                         _______ _______ _______ _____ _____    ______ ____
ROOT
ATOM      1  C   UNL     1       3.698   4.754  18.916  0.00  0.00    +0.000 C 
ATOM      2  N   UNL     1       3.665   5.766  19.736  0.00  0.00    +0.000 NA
ENDROOT
BRANCH   1   3
ATOM      3  C   UNL     1       2.454   4.048  18.397  0.00  0.00    +0.000 C 
ATOM      4  O   UNL     1       1.668   4.591  17.640  0.00  0.00    +0.000 OA
BRANCH   3   5
ATOM      5  O   UNL     1       2.341   2.841  18.983  0.00  0.00    +0.000 OA
BRANCH   5   7
ATOM      6  C   UNL     1       1.349   2.918  21.170  0.00  0.00    +0.000 C 
ATOM      7  C   UNL     1       1.113   2.628  19.696  0.00  0.00    +0.000 C 
ENDBRANCH   5   7
ENDBRANCH   3   5
ENDBRANCH   1   3
BRANCH   2   8
ATOM      8  N   UNL     1       2.441   6.223  20.120  0.00  0.00    +0.000 N 
ATOM      9  H   UNL     1       2.040   5.914  21.015  0.00  0.00    +0.000 HD
BRANCH   8  10
ATOM     10  C   UNL     1       2.051   7.533  19.769  0.00  0.00    +0.000 A 
ATOM     11  C   UNL     1       2.214   8.057  18.483  0.00  0.00    +0.000 A 
ATOM     12  C   UNL     1       1.734   9.333  18.158  0.00  0.00    +0.000 A 
ATOM     13  C   UNL     1       1.053  10.103  19.106  0.00  0.00    +0.000 A 
ATOM     14  C   UNL     1       0.521  11.460  18.767  0.00  0.00    +0.000 C 
ATOM     15  C   UNL     1       0.873   9.578  20.390  0.00  0.00    +0.000 A 
ATOM     16  C   UNL     1       1.357   8.306  20.711  0.00  0.00    +0.000 A 
ENDBRANCH   8  10
ENDBRANCH   2   8
BRANCH   1  17
ATOM     17  C   UNL     1       5.055   4.237  18.541  0.00  0.00    +0.000 C 
ATOM     18  O   UNL     1       5.634   3.489  19.324  0.00  0.00    +0.000 OA
BRANCH  17  19
ATOM     19  C   UNL     1       5.632   4.732  17.255  0.00  0.00    +0.000 C 
ATOM     20  F   UNL     1       5.769   3.698  16.363  0.00  0.00    +0.000 F 
ATOM     21  F   UNL     1       4.826   5.625  16.606  0.00  0.00    +0.000 F 
BRANCH  19  22
ATOM     22  C   UNL     1       7.000   5.331  17.574  0.00  0.00    +0.000 C 
ATOM     23  F   UNL     1       7.038   5.984  18.761  0.00  0.00    +0.000 F 
ATOM     24  F   UNL     1       7.959   4.370  17.637  0.00  0.00    +0.000 F 
ATOM     25  F   UNL     1       7.408   6.212  16.628  0.00  0.00    +0.000 F 
ENDBRANCH  19  22
ENDBRANCH  17  19
ENDBRANCH   1  17
TORSDOF 8
ENDMDL
MODEL 2
REMARK VINA RESULT:      -7.4      0.667      1.116
REMARK  Name = 
REMARK  10 active torsions:
REMARK  status: ('A' for Active; 'I' for Inactive)
REMARK    1  A    between atoms: C_1  and  C_2
REMARK    2  A    between atoms: C_2  and  O_3
REMARK    3  A    between atoms: O_3  and  C_4
REMARK    4  A    between atoms: C_4  and  C_6
REMARK    5  A    between atoms: C_6  and  C_16
REMARK    6  A    between atoms: N_7  and  N_8
REMARK    7  A    between atoms: N_8  and  C_9
REMARK    8  A    between atoms: C_12  and  C_13
REMARK    9  A    between atoms: C_16  and  C_18
REMARK   10  A    between atoms: C_18  and  C_21
REMARK                            x       y       z     vdW  Elec       q    Type
REMARK                         _______ _______ _______ _____ _____    ______ ____
ROOT
ATOM      1  C   UNL     1       4.086   4.796  18.714  0.00  0.00    +0.000 C 
ATOM      2  N   UNL     1       4.022   5.845  19.485  0.00  0.00    +0.000 NA
ENDROOT
BRANCH   1   3
ATOM      3  C   UNL     1       2.894   3.906  18.399  0.00  0.00    +0.000 C 
ATOM      4  O   UNL     1       2.073   4.198  17.547  0.00  0.00    +0.000 OA
BRANCH   3   5
ATOM      5  O   UNL     1       2.862   2.870  19.258  0.00  0.00    +0.000 OA
BRANCH   5   7
ATOM      6  C   UNL     1       1.293   3.037  21.070  0.00  0.00    +0.000 C 
ATOM      7  C   UNL     1       1.548   2.475  19.680  0.00  0.00    +0.000 C 
ENDBRANCH   5   7
ENDBRANCH   3   5
ENDBRANCH   1   3
BRANCH   2   8
ATOM      8  N   UNL     1       2.806   6.165  20.008  0.00  0.00    +0.000 N 
ATOM      9  H   UNL     1       2.560   5.850  20.955  0.00  0.00    +0.000 HD
BRANCH   8  10
ATOM     10  C   UNL     1       2.211   7.401  19.672  0.00  0.00    +0.000 A 
ATOM     11  C   UNL     1       2.213   7.917  18.372  0.00  0.00    +0.000 A 
ATOM     12  C   UNL     1       1.537   9.106  18.068  0.00  0.00    +0.000 A 
ATOM     13  C   UNL     1       0.818   9.791  19.053  0.00  0.00    +0.000 A 
ATOM     14  C   UNL     1       0.077  11.053  18.738  0.00  0.00    +0.000 C 
ATOM     15  C   UNL     1       0.799   9.271  20.352  0.00  0.00    +0.000 A 
ATOM     16  C   UNL     1       1.479   8.086  20.652  0.00  0.00    +0.000 A 
ENDBRANCH   8  10
ENDBRANCH   2   8
BRANCH   1  17
ATOM     17  C   UNL     1       5.442   4.435  18.184  0.00  0.00    +0.000 C 
ATOM     18  O   UNL     1       6.332   4.165  18.987  0.00  0.00    +0.000 OA
BRANCH  17  19
ATOM     19  C   UNL     1       5.624   4.497  16.703  0.00  0.00    +0.000 C 
ATOM     20  F   UNL     1       5.427   3.258  16.145  0.00  0.00    +0.000 F 
ATOM     21  F   UNL     1       4.708   5.293  16.075  0.00  0.00    +0.000 F 
BRANCH  19  22
ATOM     22  C   UNL     1       7.055   4.965  16.442  0.00  0.00    +0.000 C 
ATOM     23  F   UNL     1       7.382   4.986  15.126  0.00  0.00    +0.000 F 
ATOM     24  F   UNL     1       7.255   6.227  16.904  0.00  0.00    +0.000 F 
ATOM     25  F   UNL     1       7.971   4.184  17.062  0.00  0.00    +0.000 F 
ENDBRANCH  19  22
ENDBRANCH  17  19
ENDBRANCH   1  17
TORSDOF 8
ENDMDL
MODEL 3
REMARK VINA RESULT:      -7.4      3.421      6.464
REMARK  Name = 
REMARK  10 active torsions:
REMARK  status: ('A' for Active; 'I' for Inactive)
REMARK    1  A    between atoms: C_1  and  C_2
REMARK    2  A    between atoms: C_2  and  O_3
REMARK    3  A    between atoms: O_3  and  C_4
REMARK    4  A    between atoms: C_4  and  C_6
REMARK    5  A    between atoms: C_6  and  C_16
REMARK    6  A    between atoms: N_7  and  N_8
REMARK    7  A    between atoms: N_8  and  C_9
REMARK    8  A    between atoms: C_12  and  C_13
REMARK    9  A    between atoms: C_16  and  C_18
REMARK   10  A    between atoms: C_18  and  C_21
REMARK                            x       y       z     vdW  Elec       q    Type
REMARK                         _______ _______ _______ _____ _____    ______ ____
ROOT
ATOM      1  C   UNL     1       3.218   4.106  18.009  0.00  0.00    +0.000 C 
ATOM      2  N   UNL     1       4.062   3.240  17.522  0.00  0.00    +0.000 NA
ENDROOT
BRANCH   1   3
ATOM      3  C   UNL     1       3.627   5.462  18.564  0.00  0.00    +0.000 C 
ATOM      4  O   UNL     1       4.332   5.574  19.552  0.00  0.00    +0.000 OA
BRANCH   3   5
ATOM      5  O   UNL     1       3.010   6.440  17.874  0.00  0.00    +0.000 OA
BRANCH   5   7
ATOM      6  C   UNL     1       2.232   8.712  17.808  0.00  0.00    +0.000 C 
ATOM      7  C   UNL     1       2.443   7.484  18.680  0.00  0.00    +0.000 C 
ENDBRANCH   5   7
ENDBRANCH   3   5
ENDBRANCH   1   3
BRANCH   2   8
ATOM      8  N   UNL     1       5.376   3.595  17.491  0.00  0.00    +0.000 N 
ATOM      9  H   UNL     1       6.036   3.162  18.150  0.00  0.00    +0.000 HD
BRANCH   8  10
ATOM     10  C   UNL     1       5.975   3.925  16.256  0.00  0.00    +0.000 A 
ATOM     11  C   UNL     1       5.464   3.499  15.026  0.00  0.00    +0.000 A 
ATOM     12  C   UNL     1       6.042   3.921  13.821  0.00  0.00    +0.000 A 
ATOM     13  C   UNL     1       7.128   4.803  13.819  0.00  0.00    +0.000 A 
ATOM     14  C   UNL     1       7.743   5.274  12.539  0.00  0.00    +0.000 C 
ATOM     15  C   UNL     1       7.633   5.244  15.046  0.00  0.00    +0.000 A 
ATOM     16  C   UNL     1       7.056   4.818  16.247  0.00  0.00    +0.000 A 
ENDBRANCH   8  10
ENDBRANCH   2   8
BRANCH   1  17
ATOM     17  C   UNL     1       1.782   3.680  18.076  0.00  0.00    +0.000 C 
ATOM     18  O   UNL     1       0.974   4.223  17.326  0.00  0.00    +0.000 OA
BRANCH  17  19
ATOM     19  C   UNL     1       1.430   2.661  19.109  0.00  0.00    +0.000 C 
ATOM     20  F   UNL     1       0.183   2.141  18.863  0.00  0.00    +0.000 F 
ATOM     21  F   UNL     1       2.252   1.570  19.099  0.00  0.00    +0.000 F 
BRANCH  19  22
ATOM     22  C   UNL     1       1.443   3.367  20.464  0.00  0.00    +0.000 C 
ATOM     23  F   UNL     1       0.943   4.627  20.419  0.00  0.00    +0.000 F 
ATOM     24  F   UNL     1       0.697   2.695  21.380  0.00  0.00    +0.000 F 
ATOM     25  F   UNL     1       2.691   3.458  20.983  0.00  0.00    +0.000 F 
ENDBRANCH  19  22
ENDBRANCH  17  19
ENDBRANCH   1  17
TORSDOF 8
ENDMDL
MODEL 4
REMARK VINA RESULT:      -7.3      1.134      2.063
REMARK  Name = 
REMARK  10 active torsions:
REMARK  status: ('A' for Active; 'I' for Inactive)
REMARK    1  A    between atoms: C_1  and  C_2
REMARK    2  A    between atoms: C_2  and  O_3
REMARK    3  A    between atoms: O_3  and  C_4
REMARK    4  A    between atoms: C_4  and  C_6
REMARK    5  A    between atoms: C_6  and  C_16
REMARK    6  A    between atoms: N_7  and  N_8
REMARK    7  A    between atoms: N_8  and  C_9
REMARK    8  A    between atoms: C_12  and  C_13
REMARK    9  A    between atoms: C_16  and  C_18
REMARK   10  A    between atoms: C_18  and  C_21
REMARK                            x       y       z     vdW  Elec       q    Type
REMARK                         _______ _______ _______ _____ _____    ______ ____
ROOT
ATOM      1  C   UNL     1       4.617   4.944  18.458  0.00  0.00    +0.000 C 
ATOM      2  N   UNL     1       4.385   5.948  19.255  0.00  0.00    +0.000 NA
ENDROOT
BRANCH   1   3
ATOM      3  C   UNL     1       3.595   3.861  18.146  0.00  0.00    +0.000 C 
ATOM      4  O   UNL     1       2.805   3.961  17.222  0.00  0.00    +0.000 OA
BRANCH   3   5
ATOM      5  O   UNL     1       3.651   2.899  19.086  0.00  0.00    +0.000 OA
BRANCH   5   7
ATOM      6  C   UNL     1       2.018   2.782  20.844  0.00  0.00    +0.000 C 
ATOM      7  C   UNL     1       2.383   2.326  19.440  0.00  0.00    +0.000 C 
ENDBRANCH   5   7
ENDBRANCH   3   5
ENDBRANCH   1   3
BRANCH   2   8
ATOM      8  N   UNL     1       3.145   6.035  19.810  0.00  0.00    +0.000 N 
ATOM      9  H   UNL     1       2.971   5.621  20.735  0.00  0.00    +0.000 HD
BRANCH   8  10
ATOM     10  C   UNL     1       2.357   7.181  19.568  0.00  0.00    +0.000 A 
ATOM     11  C   UNL     1       1.664   7.855  20.578  0.00  0.00    +0.000 A 
ATOM     12  C   UNL     1       0.963   9.037  20.306  0.00  0.00    +0.000 A 
ATOM     13  C   UNL     1       0.964   9.589  19.021  0.00  0.00    +0.000 A 
ATOM     14  C   UNL     1       0.233  10.860  18.721  0.00  0.00    +0.000 C 
ATOM     15  C   UNL     1       1.668   8.928  18.009  0.00  0.00    +0.000 A 
ATOM     16  C   UNL     1       2.364   7.746  18.284  0.00  0.00    +0.000 A 
ENDBRANCH   8  10
ENDBRANCH   2   8
BRANCH   1  17
ATOM     17  C   UNL     1       6.002   4.841  17.892  0.00  0.00    +0.000 C 
ATOM     18  O   UNL     1       6.855   4.238  18.538  0.00  0.00    +0.000 OA
BRANCH  17  19
ATOM     19  C   UNL     1       6.254   5.546  16.599  0.00  0.00    +0.000 C 
ATOM     20  F   UNL     1       5.317   6.528  16.399  0.00  0.00    +0.000 F 
ATOM     21  F   UNL     1       7.446   6.213  16.568  0.00  0.00    +0.000 F 
BRANCH  19  22
ATOM     22  C   UNL     1       6.161   4.501  15.488  0.00  0.00    +0.000 C 
ATOM     23  F   UNL     1       5.981   3.239  15.950  0.00  0.00    +0.000 F 
ATOM     24  F   UNL     1       5.116   4.754  14.657  0.00  0.00    +0.000 F 
ATOM     25  F   UNL     1       7.269   4.479  14.709  0.00  0.00    +0.000 F 
ENDBRANCH  19  22
ENDBRANCH  17  19
ENDBRANCH   1  17
TORSDOF 8
ENDMDL
MODEL 5
REMARK VINA RESULT:      -7.3      1.238      1.775
REMARK  Name = 
REMARK  10 active torsions:
REMARK  status: ('A' for Active; 'I' for Inactive)
REMARK    1  A    between atoms: C_1  and  C_2
REMARK    2  A    between atoms: C_2  and  O_3
REMARK    3  A    between atoms: O_3  and  C_4
REMARK    4  A    between atoms: C_4  and  C_6
REMARK    5  A    between atoms: C_6  and  C_16
REMARK    6  A    between atoms: N_7  and  N_8
REMARK    7  A    between atoms: N_8  and  C_9
REMARK    8  A    between atoms: C_12  and  C_13
REMARK    9  A    between atoms: C_16  and  C_18
REMARK   10  A    between atoms: C_18  and  C_21
REMARK                            x       y       z     vdW  Elec       q    Type
REMARK                         _______ _______ _______ _____ _____    ______ ____
ROOT
ATOM      1  C   UNL     1       4.717   4.598  18.602  0.00  0.00    +0.000 C 
ATOM      2  N   UNL     1       4.335   5.835  18.747  0.00  0.00    +0.000 NA
ENDROOT
BRANCH   1   3
ATOM      3  C   UNL     1       4.087   3.428  19.342  0.00  0.00    +0.000 C 
ATOM      4  O   UNL     1       4.742   2.674  20.041  0.00  0.00    +0.000 OA
BRANCH   3   5
ATOM      5  O   UNL     1       2.787   3.326  19.006  0.00  0.00    +0.000 OA
BRANCH   5   7
ATOM      6  C   UNL     1       0.956   3.602  20.537  0.00  0.00    +0.000 C 
ATOM      7  C   UNL     1       1.970   2.628  19.959  0.00  0.00    +0.000 C 
ENDBRANCH   5   7
ENDBRANCH   3   5
ENDBRANCH   1   3
BRANCH   2   8
ATOM      8  N   UNL     1       3.295   6.075  19.592  0.00  0.00    +0.000 N 
ATOM      9  H   UNL     1       3.349   5.760  20.569  0.00  0.00    +0.000 HD
BRANCH   8  10
ATOM     10  C   UNL     1       2.539   7.258  19.440  0.00  0.00    +0.000 A 
ATOM     11  C   UNL     1       2.410   7.926  18.219  0.00  0.00    +0.000 A 
ATOM     12  C   UNL     1       1.580   9.049  18.097  0.00  0.00    +0.000 A 
ATOM     13  C   UNL     1       0.838   9.511  19.188  0.00  0.00    +0.000 A 
ATOM     14  C   UNL     1      -0.065  10.699  19.066  0.00  0.00    +0.000 C 
ATOM     15  C   UNL     1       0.951   8.837  20.409  0.00  0.00    +0.000 A 
ATOM     16  C   UNL     1       1.783   7.719  20.527  0.00  0.00    +0.000 A 
ENDBRANCH   8  10
ENDBRANCH   2   8
BRANCH   1  17
ATOM     17  C   UNL     1       5.894   4.359  17.702  0.00  0.00    +0.000 C 
ATOM     18  O   UNL     1       7.015   4.330  18.200  0.00  0.00    +0.000 OA
BRANCH  17  19
ATOM     19  C   UNL     1       5.609   4.239  16.240  0.00  0.00    +0.000 C 
ATOM     20  F   UNL     1       6.347   3.220  15.691  0.00  0.00    +0.000 F 
ATOM     21  F   UNL     1       4.315   3.897  15.964  0.00  0.00    +0.000 F 
BRANCH  19  22
ATOM     22  C   UNL     1       5.994   5.569  15.594  0.00  0.00    +0.000 C 
ATOM     23  F   UNL     1       4.989   6.479  15.596  0.00  0.00    +0.000 F 
ATOM     24  F   UNL     1       7.036   6.151  16.242  0.00  0.00    +0.000 F 
ATOM     25  F   UNL     1       6.385   5.419  14.305  0.00  0.00    +0.000 F 
ENDBRANCH  19  22
ENDBRANCH  17  19
ENDBRANCH   1  17
TORSDOF 8
ENDMDL
MODEL 6
REMARK VINA RESULT:      -7.2      0.895      1.434
REMARK  Name = 
REMARK  10 active torsions:
REMARK  status: ('A' for Active; 'I' for Inactive)
REMARK    1  A    between atoms: C_1  and  C_2
REMARK    2  A    between atoms: C_2  and  O_3
REMARK    3  A    between atoms: O_3  and  C_4
REMARK    4  A    between atoms: C_4  and  C_6
REMARK    5  A    between atoms: C_6  and  C_16
REMARK    6  A    between atoms: N_7  and  N_8
REMARK    7  A    between atoms: N_8  and  C_9
REMARK    8  A    between atoms: C_12  and  C_13
REMARK    9  A    between atoms: C_16  and  C_18
REMARK   10  A    between atoms: C_18  and  C_21
REMARK                            x       y       z     vdW  Elec       q    Type
REMARK                         _______ _______ _______ _____ _____    ______ ____
ROOT
ATOM      1  C   UNL     1       4.050   4.694  18.719  0.00  0.00    +0.000 C 
ATOM      2  N   UNL     1       4.010   5.762  19.464  0.00  0.00    +0.000 NA
ENDROOT
BRANCH   1   3
ATOM      3  C   UNL     1       2.865   3.762  18.514  0.00  0.00    +0.000 C 
ATOM      4  O   UNL     1       1.963   4.021  17.736  0.00  0.00    +0.000 OA
BRANCH   3   5
ATOM      5  O   UNL     1       2.944   2.732  19.377  0.00  0.00    +0.000 OA
BRANCH   5   7
ATOM      6  C   UNL     1       1.424   2.933  21.227  0.00  0.00    +0.000 C 
ATOM      7  C   UNL     1       1.682   2.270  19.883  0.00  0.00    +0.000 C 
ENDBRANCH   5   7
ENDBRANCH   3   5
ENDBRANCH   1   3
BRANCH   2   8
ATOM      8  N   UNL     1       2.825   6.064  20.064  0.00  0.00    +0.000 N 
ATOM      9  H   UNL     1       2.653   5.762  21.032  0.00  0.00    +0.000 HD
BRANCH   8  10
ATOM     10  C   UNL     1       2.178   7.278  19.747  0.00  0.00    +0.000 A 
ATOM     11  C   UNL     1       1.465   8.027  20.688  0.00  0.00    +0.000 A 
ATOM     12  C   UNL     1       0.910   9.268  20.350  0.00  0.00    +0.000 A 
ATOM     13  C   UNL     1       1.082   9.802  19.068  0.00  0.00    +0.000 A 
ATOM     14  C   UNL     1       0.508  11.135  18.700  0.00  0.00    +0.000 C 
ATOM     15  C   UNL     1       1.807   9.065  18.127  0.00  0.00    +0.000 A 
ATOM     16  C   UNL     1       2.356   7.824  18.468  0.00  0.00    +0.000 A 
ENDBRANCH   8  10
ENDBRANCH   2   8
BRANCH   1  17
ATOM     17  C   UNL     1       5.375   4.354  18.102  0.00  0.00    +0.000 C 
ATOM     18  O   UNL     1       6.297   4.023  18.843  0.00  0.00    +0.000 OA
BRANCH  17  19
ATOM     19  C   UNL     1       5.488   4.513  16.621  0.00  0.00    +0.000 C 
ATOM     20  F   UNL     1       6.361   3.586  16.107  0.00  0.00    +0.000 F 
ATOM     21  F   UNL     1       4.319   4.271  15.958  0.00  0.00    +0.000 F 
BRANCH  19  22
ATOM     22  C   UNL     1       6.010   5.924  16.356  0.00  0.00    +0.000 C 
ATOM     23  F   UNL     1       6.263   6.626  17.488  0.00  0.00    +0.000 F 
ATOM     24  F   UNL     1       7.173   5.898  15.655  0.00  0.00    +0.000 F 
ATOM     25  F   UNL     1       5.142   6.662  15.623  0.00  0.00    +0.000 F 
ENDBRANCH  19  22
ENDBRANCH  17  19
ENDBRANCH   1  17
TORSDOF 8
ENDMDL
MODEL 7
REMARK VINA RESULT:      -7.1      0.874      1.593
REMARK  Name = 
REMARK  10 active torsions:
REMARK  status: ('A' for Active; 'I' for Inactive)
REMARK    1  A    between atoms: C_1  and  C_2
REMARK    2  A    between atoms: C_2  and  O_3
REMARK    3  A    between atoms: O_3  and  C_4
REMARK    4  A    between atoms: C_4  and  C_6
REMARK    5  A    between atoms: C_6  and  C_16
REMARK    6  A    between atoms: N_7  and  N_8
REMARK    7  A    between atoms: N_8  and  C_9
REMARK    8  A    between atoms: C_12  and  C_13
REMARK    9  A    between atoms: C_16  and  C_18
REMARK   10  A    between atoms: C_18  and  C_21
REMARK                            x       y       z     vdW  Elec       q    Type
REMARK                         _______ _______ _______ _____ _____    ______ ____
ROOT
ATOM      1  C   UNL     1       3.928   5.089  18.741  0.00  0.00    +0.000 C 
ATOM      2  N   UNL     1       3.860   6.129  19.524  0.00  0.00    +0.000 NA
ENDROOT
BRANCH   1   3
ATOM      3  C   UNL     1       2.751   4.169  18.456  0.00  0.00    +0.000 C 
ATOM      4  O   UNL     1       1.947   4.400  17.568  0.00  0.00    +0.000 OA
BRANCH   3   5
ATOM      5  O   UNL     1       2.707   3.189  19.377  0.00  0.00    +0.000 OA
BRANCH   5   7
ATOM      6  C   UNL     1       1.590   2.828  21.473  0.00  0.00    +0.000 C 
ATOM      7  C   UNL     1       1.417   2.973  19.969  0.00  0.00    +0.000 C 
ENDBRANCH   5   7
ENDBRANCH   3   5
ENDBRANCH   1   3
BRANCH   2   8
ATOM      8  N   UNL     1       2.653   6.410  20.089  0.00  0.00    +0.000 N 
ATOM      9  H   UNL     1       2.443   6.072  21.037  0.00  0.00    +0.000 HD
BRANCH   8  10
ATOM     10  C   UNL     1       2.020   7.637  19.794  0.00  0.00    +0.000 A 
ATOM     11  C   UNL     1       2.032   8.212  18.519  0.00  0.00    +0.000 A 
ATOM     12  C   UNL     1       1.318   9.388  18.252  0.00  0.00    +0.000 A 
ATOM     13  C   UNL     1       0.552  10.001  19.249  0.00  0.00    +0.000 A 
ATOM     14  C   UNL     1      -0.228  11.248  18.973  0.00  0.00    +0.000 C 
ATOM     15  C   UNL     1       0.524   9.422  20.522  0.00  0.00    +0.000 A 
ATOM     16  C   UNL     1       1.241   8.250  20.785  0.00  0.00    +0.000 A 
ENDBRANCH   8  10
ENDBRANCH   2   8
BRANCH   1  17
ATOM     17  C   UNL     1       5.275   4.770  18.164  0.00  0.00    +0.000 C 
ATOM     18  O   UNL     1       6.053   4.094  18.833  0.00  0.00    +0.000 OA
BRANCH  17  19
ATOM     19  C   UNL     1       5.594   5.363  16.831  0.00  0.00    +0.000 C 
ATOM     20  F   UNL     1       4.599   6.224  16.440  0.00  0.00    +0.000 F 
ATOM     21  F   UNL     1       6.720   6.136  16.834  0.00  0.00    +0.000 F 
BRANCH  19  22
ATOM     22  C   UNL     1       5.703   4.207  15.837  0.00  0.00    +0.000 C 
ATOM     23  F   UNL     1       6.978   3.800  15.623  0.00  0.00    +0.000 F 
ATOM     24  F   UNL     1       5.023   3.114  16.271  0.00  0.00    +0.000 F 
ATOM     25  F   UNL     1       5.183   4.521  14.626  0.00  0.00    +0.000 F 
ENDBRANCH  19  22
ENDBRANCH  17  19
ENDBRANCH   1  17
TORSDOF 8
ENDMDL
MODEL 8
REMARK VINA RESULT:      -7.1      0.848      1.199
REMARK  Name = 
REMARK  10 active torsions:
REMARK  status: ('A' for Active; 'I' for Inactive)
REMARK    1  A    between atoms: C_1  and  C_2
REMARK    2  A    between atoms: C_2  and  O_3
REMARK    3  A    between atoms: O_3  and  C_4
REMARK    4  A    between atoms: C_4  and  C_6
REMARK    5  A    between atoms: C_6  and  C_16
REMARK    6  A    between atoms: N_7  and  N_8
REMARK    7  A    between atoms: N_8  and  C_9
REMARK    8  A    between atoms: C_12  and  C_13
REMARK    9  A    between atoms: C_16  and  C_18
REMARK   10  A    between atoms: C_18  and  C_21
REMARK                            x       y       z     vdW  Elec       q    Type
REMARK                         _______ _______ _______ _____ _____    ______ ____
ROOT
ATOM      1  C   UNL     1       3.881   4.943  18.832  0.00  0.00    +0.000 C 
ATOM      2  N   UNL     1       3.847   5.990  19.607  0.00  0.00    +0.000 NA
ENDROOT
BRANCH   1   3
ATOM      3  C   UNL     1       2.655   4.116  18.477  0.00  0.00    +0.000 C 
ATOM      4  O   UNL     1       1.952   4.377  17.515  0.00  0.00    +0.000 OA
BRANCH   3   5
ATOM      5  O   UNL     1       2.446   3.183  19.425  0.00  0.00    +0.000 OA
BRANCH   5   7
ATOM      6  C   UNL     1       3.572   1.331  18.388  0.00  0.00    +0.000 C 
ATOM      7  C   UNL     1       2.249   1.851  18.927  0.00  0.00    +0.000 C 
ENDBRANCH   5   7
ENDBRANCH   3   5
ENDBRANCH   1   3
BRANCH   2   8
ATOM      8  N   UNL     1       2.635   6.369  20.097  0.00  0.00    +0.000 N 
ATOM      9  H   UNL     1       2.354   6.078  21.042  0.00  0.00    +0.000 HD
BRANCH   8  10
ATOM     10  C   UNL     1       2.102   7.624  19.730  0.00  0.00    +0.000 A 
ATOM     11  C   UNL     1       2.185   8.135  18.431  0.00  0.00    +0.000 A 
ATOM     12  C   UNL     1       1.567   9.346  18.093  0.00  0.00    +0.000 A 
ATOM     13  C   UNL     1       0.827  10.060  19.041  0.00  0.00    +0.000 A 
ATOM     14  C   UNL     1       0.148  11.347  18.688  0.00  0.00    +0.000 C 
ATOM     15  C   UNL     1       0.727   9.546  20.338  0.00  0.00    +0.000 A 
ATOM     16  C   UNL     1       1.348   8.339  20.673  0.00  0.00    +0.000 A 
ENDBRANCH   8  10
ENDBRANCH   2   8
BRANCH   1  17
ATOM     17  C   UNL     1       5.232   4.515  18.339  0.00  0.00    +0.000 C 
ATOM     18  O   UNL     1       6.050   4.104  19.158  0.00  0.00    +0.000 OA
BRANCH  17  19
ATOM     19  C   UNL     1       5.501   4.687  16.880  0.00  0.00    +0.000 C 
ATOM     20  F   UNL     1       5.320   3.499  16.217  0.00  0.00    +0.000 F 
ATOM     21  F   UNL     1       4.634   5.546  16.265  0.00  0.00    +0.000 F 
BRANCH  19  22
ATOM     22  C   UNL     1       6.951   5.147  16.739  0.00  0.00    +0.000 C 
ATOM     23  F   UNL     1       7.853   4.208  17.118  0.00  0.00    +0.000 F 
ATOM     24  F   UNL     1       7.247   5.461  15.451  0.00  0.00    +0.000 F 
ATOM     25  F   UNL     1       7.210   6.258  17.469  0.00  0.00    +0.000 F 
ENDBRANCH  19  22
ENDBRANCH  17  19
ENDBRANCH   1  17
TORSDOF 8
ENDMDL
MODEL 9
REMARK VINA RESULT:      -7.1      2.591      4.349
REMARK  Name = 
REMARK  10 active torsions:
REMARK  status: ('A' for Active; 'I' for Inactive)
REMARK    1  A    between atoms: C_1  and  C_2
REMARK    2  A    between atoms: C_2  and  O_3
REMARK    3  A    between atoms: O_3  and  C_4
REMARK    4  A    between atoms: C_4  and  C_6
REMARK    5  A    between atoms: C_6  and  C_16
REMARK    6  A    between atoms: N_7  and  N_8
REMARK    7  A    between atoms: N_8  and  C_9
REMARK    8  A    between atoms: C_12  and  C_13
REMARK    9  A    between atoms: C_16  and  C_18
REMARK   10  A    between atoms: C_18  and  C_21
REMARK                            x       y       z     vdW  Elec       q    Type
REMARK                         _______ _______ _______ _____ _____    ______ ____
ROOT
ATOM      1  C   UNL     1       3.890   4.544  19.265  0.00  0.00    +0.000 C 
ATOM      2  N   UNL     1       3.021   5.321  19.848  0.00  0.00    +0.000 NA
ENDROOT
BRANCH   1   3
ATOM      3  C   UNL     1       5.197   5.041  18.666  0.00  0.00    +0.000 C 
ATOM      4  O   UNL     1       6.279   4.792  19.171  0.00  0.00    +0.000 OA
BRANCH   3   5
ATOM      5  O   UNL     1       4.939   5.843  17.616  0.00  0.00    +0.000 OA
BRANCH   5   7
ATOM      6  C   UNL     1       5.356   4.585  15.613  0.00  0.00    +0.000 C 
ATOM      7  C   UNL     1       5.848   5.706  16.513  0.00  0.00    +0.000 C 
ENDBRANCH   5   7
ENDBRANCH   3   5
ENDBRANCH   1   3
BRANCH   2   8
ATOM      8  N   UNL     1       3.327   6.644  19.943  0.00  0.00    +0.000 N 
ATOM      9  H   UNL     1       4.278   6.964  19.718  0.00  0.00    +0.000 HD
BRANCH   8  10
ATOM     10  C   UNL     1       2.340   7.606  19.638  0.00  0.00    +0.000 A 
ATOM     11  C   UNL     1       1.506   8.172  20.607  0.00  0.00    +0.000 A 
ATOM     12  C   UNL     1       0.598   9.186  20.273  0.00  0.00    +0.000 A 
ATOM     13  C   UNL     1       0.525   9.677  18.965  0.00  0.00    +0.000 A 
ATOM     14  C   UNL     1      -0.428  10.771  18.598  0.00  0.00    +0.000 C 
ATOM     15  C   UNL     1       1.368   9.126  17.995  0.00  0.00    +0.000 A 
ATOM     16  C   UNL     1       2.270   8.111  18.332  0.00  0.00    +0.000 A 
ENDBRANCH   8  10
ENDBRANCH   2   8
BRANCH   1  17
ATOM     17  C   UNL     1       3.515   3.098  19.130  0.00  0.00    +0.000 C 
ATOM     18  O   UNL     1       4.200   2.260  19.711  0.00  0.00    +0.000 OA
BRANCH  17  19
ATOM     19  C   UNL     1       2.362   2.782  18.235  0.00  0.00    +0.000 C 
ATOM     20  F   UNL     1       2.165   3.797  17.333  0.00  0.00    +0.000 F 
ATOM     21  F   UNL     1       2.565   1.679  17.455  0.00  0.00    +0.000 F 
BRANCH  19  22
ATOM     22  C   UNL     1       1.129   2.628  19.124  0.00  0.00    +0.000 C 
ATOM     23  F   UNL     1       0.603   3.812  19.524  0.00  0.00    +0.000 F 
ATOM     24  F   UNL     1       0.132   1.968  18.479  0.00  0.00    +0.000 F 
ATOM     25  F   UNL     1       1.391   1.916  20.247  0.00  0.00    +0.000 F 
ENDBRANCH  19  22
ENDBRANCH  17  19
ENDBRANCH   1  17
TORSDOF 8
ENDMDL
