MODEL 1
REMARK VINA RESULT:      -6.6      0.000      0.000
REMARK  Name = 
REMARK  4 active torsions:
REMARK  status: ('A' for Active; 'I' for Inactive)
REMARK    1  A    between atoms: C_1  and  C_2
REMARK    2  A    between atoms: C_4  and  C_5
REMARK    3  A    between atoms: C_5  and  N_6
REMARK    4  A    between atoms: N_12  and  C_13
REMARK                            x       y       z     vdW  Elec       q    Type
REMARK                         _______ _______ _______ _____ _____    ______ ____
ROOT
ATOM      1  N   UNL     1      -0.797   9.900  20.883  0.00  0.00    +0.000 NA
ATOM      2  C   UNL     1      -0.262   8.959  21.884  0.00  0.00    +0.000 C 
ATOM      3  C   UNL     1       1.276   8.882  21.954  0.00  0.00    +0.000 C 
ATOM      4  C   UNL     1       1.951   8.663  20.573  0.00  0.00    +0.000 C 
ATOM      5  C   UNL     1       1.860   7.177  20.182  0.00  0.00    +0.000 C 
ATOM      6  O   UNL     1       1.282   6.375  20.917  0.00  0.00    +0.000 OA
ATOM      7  N   UNL     1       2.481   6.779  19.002  0.00  0.00    +0.000 N 
ATOM      8  C   UNL     1       3.080   7.720  18.058  0.00  0.00    +0.000 C 
ATOM      9  C   UNL     1       2.035   8.655  17.485  0.00  0.00    +0.000 C 
ATOM     10  O   UNL     1       1.926   9.814  18.295  0.00  0.00    +0.000 OA
ATOM     11  C   UNL     1       1.347   9.678  19.587  0.00  0.00    +0.000 C 
ATOM     12  C   UNL     1      -0.189   9.617  19.565  0.00  0.00    +0.000 C 
ENDROOT
BRANCH   7  13
ATOM     13  C   UNL     1       2.565   5.396  18.661  0.00  0.00    +0.000 A 
ATOM     14  C   UNL     1       3.639   4.615  19.082  0.00  0.00    +0.000 A 
ATOM     15  C   UNL     1       3.733   3.287  18.665  0.00  0.00    +0.000 A 
ATOM     16  C   UNL     1       2.726   2.776  17.858  0.00  0.00    +0.000 A 
ATOM     17  N   UNL     1       1.667   3.493  17.434  0.00  0.00    +0.000 NA
ATOM     18  C   UNL     1       1.612   4.786  17.847  0.00  0.00    +0.000 A 
ENDBRANCH   7  13
BRANCH   1  19
ATOM     19  C   UNL     1      -0.627  11.322  21.270  0.00  0.00    +0.000 C 
BRANCH  19  23
ATOM     20  C   UNL     1      -4.246  12.662  24.626  0.00  0.00    +0.000 C 
ATOM     21  C   UNL     1      -3.356  12.373  23.489  0.00  0.00    +0.000 A 
ATOM     22  C   UNL     1      -2.181  11.683  23.352  0.00  0.00    +0.000 A 
ATOM     23  C   UNL     1      -1.827  11.852  21.992  0.00  0.00    +0.000 A 
ATOM     24  N   UNL     1      -2.759  12.563  21.337  0.00  0.00    +0.000 NA
ATOM     25  O   UNL     1      -3.713  12.894  22.285  0.00  0.00    +0.000 OA
ENDBRANCH  19  23
ENDBRANCH   1  19
TORSDOF 3
ENDMDL
MODEL 2
REMARK VINA RESULT:      -6.6      2.335      3.639
REMARK  Name = 
REMARK  4 active torsions:
REMARK  status: ('A' for Active; 'I' for Inactive)
REMARK    1  A    between atoms: C_1  and  C_2
REMARK    2  A    between atoms: C_4  and  C_5
REMARK    3  A    between atoms: C_5  and  N_6
REMARK    4  A    between atoms: N_12  and  C_13
REMARK                            x       y       z     vdW  Elec       q    Type
REMARK                         _______ _______ _______ _____ _____    ______ ____
ROOT
ATOM      1  N   UNL     1       1.332   9.322  20.182  0.00  0.00    +0.000 NA
ATOM      2  C   UNL     1       1.769   9.513  18.786  0.00  0.00    +0.000 C 
ATOM      3  C   UNL     1       1.420   8.358  17.827  0.00  0.00    +0.000 C 
ATOM      4  C   UNL     1       1.848   6.962  18.355  0.00  0.00    +0.000 C 
ATOM      5  C   UNL     1       3.353   6.755  18.110  0.00  0.00    +0.000 C 
ATOM      6  O   UNL     1       4.029   7.648  17.597  0.00  0.00    +0.000 OA
ATOM      7  N   UNL     1       3.902   5.523  18.453  0.00  0.00    +0.000 N 
ATOM      8  C   UNL     1       3.155   4.484  19.158  0.00  0.00    +0.000 C 
ATOM      9  C   UNL     1       2.731   4.958  20.534  0.00  0.00    +0.000 C 
ATOM     10  O   UNL     1       1.456   5.576  20.462  0.00  0.00    +0.000 OA
ATOM     11  C   UNL     1       1.357   6.835  19.807  0.00  0.00    +0.000 C 
ATOM     12  C   UNL     1       1.818   8.016  20.677  0.00  0.00    +0.000 C 
ENDROOT
BRANCH   7  13
ATOM     13  C   UNL     1       5.253   5.214  18.113  0.00  0.00    +0.000 A 
ATOM     14  C   UNL     1       5.589   4.765  16.838  0.00  0.00    +0.000 A 
ATOM     15  C   UNL     1       6.905   4.396  16.560  0.00  0.00    +0.000 A 
ATOM     16  C   UNL     1       7.851   4.514  17.570  0.00  0.00    +0.000 A 
ATOM     17  N   UNL     1       7.571   4.949  18.813  0.00  0.00    +0.000 NA
ATOM     18  C   UNL     1       6.278   5.290  19.055  0.00  0.00    +0.000 A 
ENDBRANCH   7  13
BRANCH   1  19
ATOM     19  C   UNL     1      -0.134   9.463  20.359  0.00  0.00    +0.000 C 
BRANCH  19  23
ATOM     20  C   UNL     1      -1.314  13.499  23.268  0.00  0.00    +0.000 C 
ATOM     21  C   UNL     1      -0.959  12.214  22.646  0.00  0.00    +0.000 A 
ATOM     22  C   UNL     1      -0.657  11.827  21.366  0.00  0.00    +0.000 A 
ATOM     23  C   UNL     1      -0.475  10.426  21.453  0.00  0.00    +0.000 A 
ATOM     24  N   UNL     1      -0.612  10.001  22.719  0.00  0.00    +0.000 NA
ATOM     25  O   UNL     1      -0.923  11.127  23.462  0.00  0.00    +0.000 OA
ENDBRANCH  19  23
ENDBRANCH   1  19
TORSDOF 3
ENDMDL
MODEL 3
REMARK VINA RESULT:      -6.4      1.080      1.370
REMARK  Name = 
REMARK  4 active torsions:
REMARK  status: ('A' for Active; 'I' for Inactive)
REMARK    1  A    between atoms: C_1  and  C_2
REMARK    2  A    between atoms: C_4  and  C_5
REMARK    3  A    between atoms: C_5  and  N_6
REMARK    4  A    between atoms: N_12  and  C_13
REMARK                            x       y       z     vdW  Elec       q    Type
REMARK                         _______ _______ _______ _____ _____    ______ ____
ROOT
ATOM      1  N   UNL     1      -0.952   9.973  21.161  0.00  0.00    +0.000 NA
ATOM      2  C   UNL     1      -0.283   9.071  22.117  0.00  0.00    +0.000 C 
ATOM      3  C   UNL     1       1.259   9.114  22.090  0.00  0.00    +0.000 C 
ATOM      4  C   UNL     1       1.859   8.957  20.666  0.00  0.00    +0.000 C 
ATOM      5  C   UNL     1       1.860   7.471  20.267  0.00  0.00    +0.000 C 
ATOM      6  O   UNL     1       1.394   6.621  21.028  0.00  0.00    +0.000 OA
ATOM      7  N   UNL     1       2.434   7.129  19.046  0.00  0.00    +0.000 N 
ATOM      8  C   UNL     1       2.897   8.119  18.076  0.00  0.00    +0.000 C 
ATOM      9  C   UNL     1       1.748   8.972  17.579  0.00  0.00    +0.000 C 
ATOM     10  O   UNL     1       1.601  10.115  18.407  0.00  0.00    +0.000 OA
ATOM     11  C   UNL     1       1.117   9.927  19.731  0.00  0.00    +0.000 C 
ATOM     12  C   UNL     1      -0.408   9.745  19.805  0.00  0.00    +0.000 C 
ENDROOT
BRANCH   7  13
ATOM     13  C   UNL     1       2.604   5.758  18.686  0.00  0.00    +0.000 A 
ATOM     14  C   UNL     1       1.637   5.083  17.945  0.00  0.00    +0.000 A 
ATOM     15  C   UNL     1       1.795   3.724  17.678  0.00  0.00    +0.000 A 
ATOM     16  C   UNL     1       2.939   3.089  18.144  0.00  0.00    +0.000 A 
ATOM     17  N   UNL     1       3.902   3.704  18.857  0.00  0.00    +0.000 NA
ATOM     18  C   UNL     1       3.711   5.025  19.111  0.00  0.00    +0.000 A 
ENDBRANCH   7  13
BRANCH   1  19
ATOM     19  C   UNL     1      -0.869  11.402  21.552  0.00  0.00    +0.000 C 
BRANCH  19  23
ATOM     20  C   UNL     1      -5.433  13.497  22.513  0.00  0.00    +0.000 C 
ATOM     21  C   UNL     1      -4.114  12.845  22.480  0.00  0.00    +0.000 A 
ATOM     22  C   UNL     1      -3.157  12.683  21.514  0.00  0.00    +0.000 A 
ATOM     23  C   UNL     1      -2.156  11.898  22.133  0.00  0.00    +0.000 A 
ATOM     24  N   UNL     1      -2.471  11.640  23.413  0.00  0.00    +0.000 NA
ATOM     25  O   UNL     1      -3.705  12.231  23.622  0.00  0.00    +0.000 OA
ENDBRANCH  19  23
ENDBRANCH   1  19
TORSDOF 3
ENDMDL
MODEL 4
REMARK VINA RESULT:      -6.3      3.161      8.909
REMARK  Name = 
REMARK  4 active torsions:
REMARK  status: ('A' for Active; 'I' for Inactive)
REMARK    1  A    between atoms: C_1  and  C_2
REMARK    2  A    between atoms: C_4  and  C_5
REMARK    3  A    between atoms: C_5  and  N_6
REMARK    4  A    between atoms: N_12  and  C_13
REMARK                            x       y       z     vdW  Elec       q    Type
REMARK                         _______ _______ _______ _____ _____    ______ ____
ROOT
ATOM      1  N   UNL     1       4.723   3.958  18.628  0.00  0.00    +0.000 NA
ATOM      2  C   UNL     1       3.614   3.430  19.446  0.00  0.00    +0.000 C 
ATOM      3  C   UNL     1       2.201   3.781  18.938  0.00  0.00    +0.000 C 
ATOM      4  C   UNL     1       2.003   5.293  18.645  0.00  0.00    +0.000 C 
ATOM      5  C   UNL     1       1.752   6.046  19.964  0.00  0.00    +0.000 C 
ATOM      6  O   UNL     1       1.765   5.442  21.038  0.00  0.00    +0.000 OA
ATOM      7  N   UNL     1       1.477   7.408  19.890  0.00  0.00    +0.000 N 
ATOM      8  C   UNL     1       1.559   8.173  18.647  0.00  0.00    +0.000 C 
ATOM      9  C   UNL     1       2.973   8.175  18.102  0.00  0.00    +0.000 C 
ATOM     10  O   UNL     1       3.157   7.074  17.227  0.00  0.00    +0.000 OA
ATOM     11  C   UNL     1       3.190   5.768  17.790  0.00  0.00    +0.000 C 
ATOM     12  C   UNL     1       4.542   5.413  18.431  0.00  0.00    +0.000 C 
ENDROOT
BRANCH   7  13
ATOM     13  C   UNL     1       1.087   8.131  21.057  0.00  0.00    +0.000 A 
ATOM     14  C   UNL     1      -0.257   8.316  21.372  0.00  0.00    +0.000 A 
ATOM     15  C   UNL     1      -0.607   9.095  22.475  0.00  0.00    +0.000 A 
ATOM     16  C   UNL     1       0.410   9.643  23.245  0.00  0.00    +0.000 A 
ATOM     17  N   UNL     1       1.721   9.484  22.980  0.00  0.00    +0.000 NA
ATOM     18  C   UNL     1       2.028   8.731  21.893  0.00  0.00    +0.000 A 
ENDBRANCH   7  13
BRANCH   1  19
ATOM     19  C   UNL     1       4.884   3.246  17.336  0.00  0.00    +0.000 C 
BRANCH  19  23
ATOM     20  C   UNL     1       7.588   5.330  13.528  0.00  0.00    +0.000 C 
ATOM     21  C   UNL     1       7.013   4.769  14.762  0.00  0.00    +0.000 A 
ATOM     22  C   UNL     1       5.845   4.115  15.056  0.00  0.00    +0.000 A 
ATOM     23  C   UNL     1       5.896   3.910  16.456  0.00  0.00    +0.000 A 
ATOM     24  N   UNL     1       7.049   4.372  16.967  0.00  0.00    +0.000 NA
ATOM     25  O   UNL     1       7.742   4.917  15.900  0.00  0.00    +0.000 OA
ENDBRANCH  19  23
ENDBRANCH   1  19
TORSDOF 3
ENDMDL
MODEL 5
REMARK VINA RESULT:      -6.3      2.766      4.129
REMARK  Name = 
REMARK  4 active torsions:
REMARK  status: ('A' for Active; 'I' for Inactive)
REMARK    1  A    between atoms: C_1  and  C_2
REMARK    2  A    between atoms: C_4  and  C_5
REMARK    3  A    between atoms: C_5  and  N_6
REMARK    4  A    between atoms: N_12  and  C_13
REMARK                            x       y       z     vdW  Elec       q    Type
REMARK                         _______ _______ _______ _____ _____    ______ ____
ROOT
ATOM      1  N   UNL     1       1.713   7.927  20.768  0.00  0.00    +0.000 NA
ATOM      2  C   UNL     1       1.983   8.670  19.523  0.00  0.00    +0.000 C 
ATOM      3  C   UNL     1       1.471   7.996  18.234  0.00  0.00    +0.000 C 
ATOM      4  C   UNL     1       1.902   6.511  18.097  0.00  0.00    +0.000 C 
ATOM      5  C   UNL     1       3.356   6.437  17.598  0.00  0.00    +0.000 C 
ATOM      6  O   UNL     1       4.000   7.469  17.404  0.00  0.00    +0.000 OA
ATOM      7  N   UNL     1       3.890   5.178  17.344  0.00  0.00    +0.000 N 
ATOM      8  C   UNL     1       3.192   3.934  17.663  0.00  0.00    +0.000 C 
ATOM      9  C   UNL     1       2.961   3.809  19.155  0.00  0.00    +0.000 C 
ATOM     10  O   UNL     1       1.714   4.388  19.503  0.00  0.00    +0.000 OA
ATOM     11  C   UNL     1       1.588   5.803  19.426  0.00  0.00    +0.000 C 
ATOM     12  C   UNL     1       2.202   6.538  20.630  0.00  0.00    +0.000 C 
ENDROOT
BRANCH   7  13
ATOM     13  C   UNL     1       5.175   5.048  16.736  0.00  0.00    +0.000 A 
ATOM     14  C   UNL     1       5.323   5.078  15.352  0.00  0.00    +0.000 A 
ATOM     15  C   UNL     1       6.581   4.868  14.787  0.00  0.00    +0.000 A 
ATOM     16  C   UNL     1       7.660   4.660  15.636  0.00  0.00    +0.000 A 
ATOM     17  N   UNL     1       7.563   4.630  16.979  0.00  0.00    +0.000 NA
ATOM     18  C   UNL     1       6.323   4.825  17.497  0.00  0.00    +0.000 A 
ENDBRANCH   7  13
BRANCH   1  19
ATOM     19  C   UNL     1       0.287   7.968  21.174  0.00  0.00    +0.000 C 
BRANCH  19  23
ATOM     20  C   UNL     1      -1.169  12.688  22.498  0.00  0.00    +0.000 C 
ATOM     21  C   UNL     1      -0.682  11.307  22.355  0.00  0.00    +0.000 A 
ATOM     22  C   UNL     1      -0.502  10.467  21.287  0.00  0.00    +0.000 A 
ATOM     23  C   UNL     1      -0.061   9.251  21.863  0.00  0.00    +0.000 A 
ATOM     24  N   UNL     1       0.062   9.367  23.195  0.00  0.00    +0.000 NA
ATOM     25  O   UNL     1      -0.336  10.658  23.498  0.00  0.00    +0.000 OA
ENDBRANCH  19  23
ENDBRANCH   1  19
TORSDOF 3
ENDMDL
MODEL 6
REMARK VINA RESULT:      -6.1      2.328      8.333
REMARK  Name = 
REMARK  4 active torsions:
REMARK  status: ('A' for Active; 'I' for Inactive)
REMARK    1  A    between atoms: C_1  and  C_2
REMARK    2  A    between atoms: C_4  and  C_5
REMARK    3  A    between atoms: C_5  and  N_6
REMARK    4  A    between atoms: N_12  and  C_13
REMARK                            x       y       z     vdW  Elec       q    Type
REMARK                         _______ _______ _______ _____ _____    ______ ____
ROOT
ATOM      1  N   UNL     1       1.940   8.535  20.124  0.00  0.00    +0.000 NA
ATOM      2  C   UNL     1       1.369   8.335  21.469  0.00  0.00    +0.000 C 
ATOM      3  C   UNL     1      -0.165   8.469  21.556  0.00  0.00    +0.000 C 
ATOM      4  C   UNL     1      -0.712   9.771  20.910  0.00  0.00    +0.000 C 
ATOM      5  C   UNL     1      -0.520  10.950  21.881  0.00  0.00    +0.000 C 
ATOM      6  O   UNL     1       0.032  10.777  22.969  0.00  0.00    +0.000 OA
ATOM      7  N   UNL     1      -1.021  12.191  21.500  0.00  0.00    +0.000 N 
ATOM      8  C   UNL     1      -1.584  12.453  20.177  0.00  0.00    +0.000 C 
ATOM      9  C   UNL     1      -0.540  12.265  19.095  0.00  0.00    +0.000 C 
ATOM     10  O   UNL     1      -0.552  10.922  18.638  0.00  0.00    +0.000 OA
ATOM     11  C   UNL     1      -0.076   9.910  19.516  0.00  0.00    +0.000 C 
ATOM     12  C   UNL     1       1.457   9.818  19.569  0.00  0.00    +0.000 C 
ENDROOT
BRANCH   7  13
ATOM     13  C   UNL     1      -1.012  13.286  22.415  0.00  0.00    +0.000 A 
ATOM     14  C   UNL     1      -2.025  13.444  23.358  0.00  0.00    +0.000 A 
ATOM     15  C   UNL     1      -2.030  14.567  24.185  0.00  0.00    +0.000 A 
ATOM     16  C   UNL     1      -0.998  15.487  24.055  0.00  0.00    +0.000 A 
ATOM     17  N   UNL     1       0.004  15.370  23.162  0.00  0.00    +0.000 NA
ATOM     18  C   UNL     1      -0.027  14.271  22.364  0.00  0.00    +0.000 A 
ENDBRANCH   7  13
BRANCH   1  19
ATOM     19  C   UNL     1       1.672   7.404  19.203  0.00  0.00    +0.000 C 
BRANCH  19  23
ATOM     20  C   UNL     1       2.419   2.839  21.381  0.00  0.00    +0.000 C 
ATOM     21  C   UNL     1       2.450   4.152  20.718  0.00  0.00    +0.000 A 
ATOM     22  C   UNL     1       1.515   5.129  20.498  0.00  0.00    +0.000 A 
ATOM     23  C   UNL     1       2.198   6.110  19.739  0.00  0.00    +0.000 A 
ATOM     24  N   UNL     1       3.483   5.765  19.553  0.00  0.00    +0.000 NA
ATOM     25  O   UNL     1       3.632   4.531  20.164  0.00  0.00    +0.000 OA
ENDBRANCH  19  23
ENDBRANCH   1  19
TORSDOF 3
ENDMDL
MODEL 7
REMARK VINA RESULT:      -6.1      4.138      5.943
REMARK  Name = 
REMARK  4 active torsions:
REMARK  status: ('A' for Active; 'I' for Inactive)
REMARK    1  A    between atoms: C_1  and  C_2
REMARK    2  A    between atoms: C_4  and  C_5
REMARK    3  A    between atoms: C_5  and  N_6
REMARK    4  A    between atoms: N_12  and  C_13
REMARK                            x       y       z     vdW  Elec       q    Type
REMARK                         _______ _______ _______ _____ _____    ______ ____
ROOT
ATOM      1  N   UNL     1       2.523   6.537  18.469  0.00  0.00    +0.000 NA
ATOM      2  C   UNL     1       2.188   5.220  17.895  0.00  0.00    +0.000 C 
ATOM      3  C   UNL     1       3.229   4.112  18.148  0.00  0.00    +0.000 C 
ATOM      4  C   UNL     1       4.679   4.525  17.775  0.00  0.00    +0.000 C 
ATOM      5  C   UNL     1       4.875   4.410  16.253  0.00  0.00    +0.000 C 
ATOM      6  O   UNL     1       3.939   4.065  15.529  0.00  0.00    +0.000 OA
ATOM      7  N   UNL     1       6.142   4.670  15.741  0.00  0.00    +0.000 N 
ATOM      8  C   UNL     1       7.243   5.182  16.555  0.00  0.00    +0.000 C 
ATOM      9  C   UNL     1       6.914   6.552  17.113  0.00  0.00    +0.000 C 
ATOM     10  O   UNL     1       6.278   6.422  18.374  0.00  0.00    +0.000 OA
ATOM     11  C   UNL     1       4.955   5.900  18.408  0.00  0.00    +0.000 C 
ATOM     12  C   UNL     1       3.880   6.933  18.035  0.00  0.00    +0.000 C 
ENDROOT
BRANCH   7  13
ATOM     13  C   UNL     1       6.428   4.433  14.363  0.00  0.00    +0.000 A 
ATOM     14  C   UNL     1       5.737   3.463  13.641  0.00  0.00    +0.000 A 
ATOM     15  C   UNL     1       6.094   3.201  12.318  0.00  0.00    +0.000 A 
ATOM     16  C   UNL     1       7.122   3.944  11.753  0.00  0.00    +0.000 A 
ATOM     17  N   UNL     1       7.811   4.895  12.412  0.00  0.00    +0.000 NA
ATOM     18  C   UNL     1       7.447   5.117  13.701  0.00  0.00    +0.000 A 
ENDBRANCH   7  13
BRANCH   1  19
ATOM     19  C   UNL     1       2.386   6.583  19.945  0.00  0.00    +0.000 C 
BRANCH  19  23
ATOM     20  C   UNL     1      -0.238  10.179  22.462  0.00  0.00    +0.000 C 
ATOM     21  C   UNL     1       0.488   9.291  21.540  0.00  0.00    +0.000 A 
ATOM     22  C   UNL     1       1.012   8.030  21.648  0.00  0.00    +0.000 A 
ATOM     23  C   UNL     1       1.639   7.798  20.400  0.00  0.00    +0.000 A 
ATOM     24  N   UNL     1       1.462   8.840  19.572  0.00  0.00    +0.000 NA
ATOM     25  O   UNL     1       0.746   9.778  20.297  0.00  0.00    +0.000 OA
ENDBRANCH  19  23
ENDBRANCH   1  19
TORSDOF 3
ENDMDL
MODEL 8
REMARK VINA RESULT:      -6.1      2.272      9.077
REMARK  Name = 
REMARK  4 active torsions:
REMARK  status: ('A' for Active; 'I' for Inactive)
REMARK    1  A    between atoms: C_1  and  C_2
REMARK    2  A    between atoms: C_4  and  C_5
REMARK    3  A    between atoms: C_5  and  N_6
REMARK    4  A    between atoms: N_12  and  C_13
REMARK                            x       y       z     vdW  Elec       q    Type
REMARK                         _______ _______ _______ _____ _____    ______ ____
ROOT
ATOM      1  N   UNL     1      -0.290  10.032  19.433  0.00  0.00    +0.000 NA
ATOM      2  C   UNL     1      -1.276  10.639  18.519  0.00  0.00    +0.000 C 
ATOM      3  C   UNL     1      -1.274  12.181  18.487  0.00  0.00    +0.000 C 
ATOM      4  C   UNL     1      -1.348  12.832  19.894  0.00  0.00    +0.000 C 
ATOM      5  C   UNL     1      -2.802  12.811  20.399  0.00  0.00    +0.000 C 
ATOM      6  O   UNL     1      -3.690  12.294  19.718  0.00  0.00    +0.000 OA
ATOM      7  N   UNL     1      -3.074  13.423  21.618  0.00  0.00    +0.000 N 
ATOM      8  C   UNL     1      -2.032  13.949  22.497  0.00  0.00    +0.000 C 
ATOM      9  C   UNL     1      -1.113  12.843  22.974  0.00  0.00    +0.000 C 
ATOM     10  O   UNL     1      -0.027  12.693  22.073  0.00  0.00    +0.000 OA
ATOM     11  C   UNL     1      -0.295  12.152  20.785  0.00  0.00    +0.000 C 
ATOM     12  C   UNL     1      -0.437  10.622  20.781  0.00  0.00    +0.000 C 
ENDROOT
BRANCH   7  13
ATOM     13  C   UNL     1      -4.420  13.571  22.068  0.00  0.00    +0.000 A 
ATOM     14  C   UNL     1      -5.191  14.665  21.682  0.00  0.00    +0.000 A 
ATOM     15  C   UNL     1      -6.476  14.823  22.203  0.00  0.00    +0.000 A 
ATOM     16  C   UNL     1      -6.956  13.858  23.078  0.00  0.00    +0.000 A 
ATOM     17  N   UNL     1      -6.247  12.782  23.472  0.00  0.00    +0.000 NA
ATOM     18  C   UNL     1      -4.996  12.664  22.957  0.00  0.00    +0.000 A 
ENDBRANCH   7  13
BRANCH   1  19
ATOM     19  C   UNL     1       1.105  10.136  18.939  0.00  0.00    +0.000 C 
BRANCH  19  23
ATOM     20  C   UNL     1       3.641   5.860  17.741  0.00  0.00    +0.000 C 
ATOM     21  C   UNL     1       2.867   6.979  18.302  0.00  0.00    +0.000 A 
ATOM     22  C   UNL     1       2.399   8.162  17.795  0.00  0.00    +0.000 A 
ATOM     23  C   UNL     1       1.784   8.803  18.897  0.00  0.00    +0.000 A 
ATOM     24  N   UNL     1       1.836   8.028  19.993  0.00  0.00    +0.000 NA
ATOM     25  O   UNL     1       2.524   6.888  19.615  0.00  0.00    +0.000 OA
ENDBRANCH  19  23
ENDBRANCH   1  19
TORSDOF 3
ENDMDL
MODEL 9
REMARK VINA RESULT:      -6.0      2.462      3.846
REMARK  Name = 
REMARK  4 active torsions:
REMARK  status: ('A' for Active; 'I' for Inactive)
REMARK    1  A    between atoms: C_1  and  C_2
REMARK    2  A    between atoms: C_4  and  C_5
REMARK    3  A    between atoms: C_5  and  N_6
REMARK    4  A    between atoms: N_12  and  C_13
REMARK                            x       y       z     vdW  Elec       q    Type
REMARK                         _______ _______ _______ _____ _____    ______ ____
ROOT
ATOM      1  N   UNL     1       1.341   9.290  20.247  0.00  0.00    +0.000 NA
ATOM      2  C   UNL     1       1.768   9.496  18.850  0.00  0.00    +0.000 C 
ATOM      3  C   UNL     1       1.412   8.350  17.881  0.00  0.00    +0.000 C 
ATOM      4  C   UNL     1       1.843   6.948  18.392  0.00  0.00    +0.000 C 
ATOM      5  C   UNL     1       3.347   6.744  18.134  0.00  0.00    +0.000 C 
ATOM      6  O   UNL     1       4.019   7.643  17.625  0.00  0.00    +0.000 OA
ATOM      7  N   UNL     1       3.898   5.509  18.461  0.00  0.00    +0.000 N 
ATOM      8  C   UNL     1       3.156   4.463  19.161  0.00  0.00    +0.000 C 
ATOM      9  C   UNL     1       2.743   4.923  20.544  0.00  0.00    +0.000 C 
ATOM     10  O   UNL     1       1.467   5.542  20.488  0.00  0.00    +0.000 OA
ATOM     11  C   UNL     1       1.363   6.807  19.846  0.00  0.00    +0.000 C 
ATOM     12  C   UNL     1       1.831   7.979  20.725  0.00  0.00    +0.000 C 
ENDROOT
BRANCH   7  13
ATOM     13  C   UNL     1       5.247   5.203  18.107  0.00  0.00    +0.000 A 
ATOM     14  C   UNL     1       5.574   4.767  16.825  0.00  0.00    +0.000 A 
ATOM     15  C   UNL     1       6.888   4.400  16.535  0.00  0.00    +0.000 A 
ATOM     16  C   UNL     1       7.840   4.509  17.539  0.00  0.00    +0.000 A 
ATOM     17  N   UNL     1       7.570   4.932  18.788  0.00  0.00    +0.000 NA
ATOM     18  C   UNL     1       6.279   5.270  19.043  0.00  0.00    +0.000 A 
ENDBRANCH   7  13
BRANCH   1  19
ATOM     19  C   UNL     1      -0.123   9.429  20.436  0.00  0.00    +0.000 C 
BRANCH  19  23
ATOM     20  C   UNL     1      -1.044  14.448  20.101  0.00  0.00    +0.000 C 
ATOM     21  C   UNL     1      -0.963  12.980  20.032  0.00  0.00    +0.000 A 
ATOM     22  C   UNL     1      -0.255  12.033  20.724  0.00  0.00    +0.000 A 
ATOM     23  C   UNL     1      -0.601  10.808  20.103  0.00  0.00    +0.000 A 
ATOM     24  N   UNL     1      -1.501  11.002  19.125  0.00  0.00    +0.000 NA
ATOM     25  O   UNL     1      -1.718  12.369  19.081  0.00  0.00    +0.000 OA
ENDBRANCH  19  23
ENDBRANCH   1  19
TORSDOF 3
ENDMDL
