MODEL 1
REMARK VINA RESULT:      -7.7      0.000      0.000
REMARK  Name = 
REMARK  14 active torsions:
REMARK  status: ('A' for Active; 'I' for Inactive)
REMARK    1  A    between atoms: C_1  and  C_2
REMARK    2  A    between atoms: C_2  and  C_3
REMARK    3  A    between atoms: C_3  and  C_4
REMARK    4  A    between atoms: C_4  and  O_5
REMARK    5  A    between atoms: O_5  and  C_6
REMARK    6  A    between atoms: C_9  and  C_10
REMARK    7  A    between atoms: C_13  and  C_14
REMARK    8  A    between atoms: C_16  and  C_17
REMARK    9  A    between atoms: C_20  and  C_21
REMARK   10  A    between atoms: C_21  and  C_22
REMARK   11  A    between atoms: N_24  and  C_25
REMARK   12  A    between atoms: N_24  and  C_27
REMARK   13  A    between atoms: C_25  and  C_26
REMARK   14  A    between atoms: C_27  and  C_28
REMARK                            x       y       z     vdW  Elec       q    Type
REMARK                         _______ _______ _______ _____ _____    ______ ____
ROOT
ATOM      1  C   UNL     1       3.103   6.919  18.428  0.00  0.00    +0.000 A 
ATOM      2  N   UNL     1       2.777   8.164  18.047  0.00  0.00    +0.000 NA
ATOM      3  N   UNL     1       1.975   8.651  19.018  0.00  0.00    +0.000 N 
ATOM      4  C   UNL     1       1.351   9.903  19.073  0.00  0.00    +0.000 A 
ATOM      5  C   UNL     1       1.558  10.893  17.968  0.00  0.00    +0.000 C 
ATOM      6  C   UNL     1       0.575  10.197  20.136  0.00  0.00    +0.000 A 
ATOM      7  C   UNL     1       0.469   9.146  21.190  0.00  0.00    +0.000 A 
ATOM      8  C   UNL     1      -0.416   9.444  22.375  0.00  0.00    +0.000 C 
ATOM      9  N   UNL     1       1.077   7.994  21.169  0.00  0.00    +0.000 NA
ATOM     10  C   UNL     1       1.830   7.731  20.060  0.00  0.00    +0.000 A 
ATOM     11  C   UNL     1       2.578   6.620  19.716  0.00  0.00    +0.000 A 
ENDROOT
BRANCH   1  15
ATOM     12  C   UNL     1       5.352   4.637  15.591  0.00  0.00    +0.000 A 
ATOM     13  C   UNL     1       5.643   5.984  15.828  0.00  0.00    +0.000 A 
ATOM     14  C   UNL     1       4.941   6.702  16.790  0.00  0.00    +0.000 A 
ATOM     15  C   UNL     1       3.926   6.096  17.538  0.00  0.00    +0.000 A 
ATOM     16  C   UNL     1       3.669   4.736  17.335  0.00  0.00    +0.000 A 
ATOM     17  C   UNL     1       4.383   4.008  16.370  0.00  0.00    +0.000 A 
BRANCH  12  18
ATOM     18  O   UNL     1       5.939   3.868  14.618  0.00  0.00    +0.000 OA
BRANCH  18  19
ATOM     19  C   UNL     1       6.813   4.584  13.742  0.00  0.00    +0.000 C 
BRANCH  19  20
ATOM     20  C   UNL     1       6.840   3.926  12.369  0.00  0.00    +0.000 C 
BRANCH  20  22
ATOM     21  C   UNL     1       5.780   1.861  11.392  0.00  0.00    +0.000 C 
ATOM     22  C   UNL     1       5.534   3.172  12.119  0.00  0.00    +0.000 C 
ENDBRANCH  20  22
ENDBRANCH  19  20
ENDBRANCH  18  19
ENDBRANCH  12  18
ENDBRANCH   1  15
BRANCH  11  23
ATOM     23  C   UNL     1       2.844   5.428  20.579  0.00  0.00    +0.000 C 
BRANCH  23  24
ATOM     24  C   UNL     1       1.869   4.265  20.425  0.00  0.00    +0.000 C 
ATOM     25  O   UNL     1       0.656   4.398  20.595  0.00  0.00    +0.000 OA
ATOM     26  N   UNL     1       2.427   3.030  20.025  0.00  0.00    +0.000 N 
BRANCH  26  27
ATOM     27  C   UNL     1       1.501   1.898  19.848  0.00  0.00    +0.000 C 
ATOM     28  C   UNL     1       0.628   1.964  18.600  0.00  0.00    +0.000 C 
ENDBRANCH  26  27
BRANCH  26  29
ATOM     29  C   UNL     1       3.854   2.722  20.212  0.00  0.00    +0.000 C 
ATOM     30  C   UNL     1       4.342   1.613  19.292  0.00  0.00    +0.000 C 
ENDBRANCH  26  29
ENDBRANCH  23  24
ENDBRANCH  11  23
TORSDOF 9
ENDMDL
MODEL 2
REMARK VINA RESULT:      -7.5      0.795      1.360
REMARK  Name = 
REMARK  14 active torsions:
REMARK  status: ('A' for Active; 'I' for Inactive)
REMARK    1  A    between atoms: C_1  and  C_2
REMARK    2  A    between atoms: C_2  and  C_3
REMARK    3  A    between atoms: C_3  and  C_4
REMARK    4  A    between atoms: C_4  and  O_5
REMARK    5  A    between atoms: O_5  and  C_6
REMARK    6  A    between atoms: C_9  and  C_10
REMARK    7  A    between atoms: C_13  and  C_14
REMARK    8  A    between atoms: C_16  and  C_17
REMARK    9  A    between atoms: C_20  and  C_21
REMARK   10  A    between atoms: C_21  and  C_22
REMARK   11  A    between atoms: N_24  and  C_25
REMARK   12  A    between atoms: N_24  and  C_27
REMARK   13  A    between atoms: C_25  and  C_26
REMARK   14  A    between atoms: C_27  and  C_28
REMARK                            x       y       z     vdW  Elec       q    Type
REMARK                         _______ _______ _______ _____ _____    ______ ____
ROOT
ATOM      1  C   UNL     1       2.691   7.154  18.767  0.00  0.00    +0.000 A 
ATOM      2  N   UNL     1       2.409   8.420  18.422  0.00  0.00    +0.000 NA
ATOM      3  N   UNL     1       1.662   8.921  19.429  0.00  0.00    +0.000 N 
ATOM      4  C   UNL     1       1.097  10.199  19.530  0.00  0.00    +0.000 A 
ATOM      5  C   UNL     1       1.311  11.201  18.438  0.00  0.00    +0.000 C 
ATOM      6  C   UNL     1       0.372  10.505  20.625  0.00  0.00    +0.000 A 
ATOM      7  C   UNL     1       0.255   9.437  21.662  0.00  0.00    +0.000 A 
ATOM      8  C   UNL     1      -0.573   9.750  22.883  0.00  0.00    +0.000 C 
ATOM      9  N   UNL     1       0.811   8.261  21.598  0.00  0.00    +0.000 NA
ATOM     10  C   UNL     1       1.513   7.988  20.458  0.00  0.00    +0.000 A 
ATOM     11  C   UNL     1       2.197   6.852  20.067  0.00  0.00    +0.000 A 
ENDROOT
BRANCH   1  15
ATOM     12  C   UNL     1       5.007   4.549  16.285  0.00  0.00    +0.000 A 
ATOM     13  C   UNL     1       3.787   4.134  16.828  0.00  0.00    +0.000 A 
ATOM     14  C   UNL     1       3.017   5.006  17.589  0.00  0.00    +0.000 A 
ATOM     15  C   UNL     1       3.446   6.314  17.833  0.00  0.00    +0.000 A 
ATOM     16  C   UNL     1       4.643   6.744  17.248  0.00  0.00    +0.000 A 
ATOM     17  C   UNL     1       5.416   5.867  16.473  0.00  0.00    +0.000 A 
BRANCH  12  18
ATOM     18  O   UNL     1       5.867   3.742  15.582  0.00  0.00    +0.000 OA
BRANCH  18  19
ATOM     19  C   UNL     1       6.513   4.381  14.480  0.00  0.00    +0.000 C 
BRANCH  19  20
ATOM     20  C   UNL     1       6.172   3.665  13.180  0.00  0.00    +0.000 C 
BRANCH  20  22
ATOM     21  C   UNL     1       7.899   5.361  12.486  0.00  0.00    +0.000 C 
ATOM     22  C   UNL     1       7.068   4.167  12.049  0.00  0.00    +0.000 C 
ENDBRANCH  20  22
ENDBRANCH  19  20
ENDBRANCH  18  19
ENDBRANCH  12  18
ENDBRANCH   1  15
BRANCH  11  23
ATOM     23  C   UNL     1       2.440   5.632  20.897  0.00  0.00    +0.000 C 
BRANCH  23  24
ATOM     24  C   UNL     1       1.559   4.427  20.580  0.00  0.00    +0.000 C 
ATOM     25  O   UNL     1       0.333   4.515  20.492  0.00  0.00    +0.000 OA
ATOM     26  N   UNL     1       2.230   3.207  20.342  0.00  0.00    +0.000 N 
BRANCH  26  27
ATOM     27  C   UNL     1       1.401   2.035  20.013  0.00  0.00    +0.000 C 
ATOM     28  C   UNL     1       0.901   1.979  18.573  0.00  0.00    +0.000 C 
ENDBRANCH  26  27
BRANCH  26  29
ATOM     29  C   UNL     1       3.597   2.961  20.829  0.00  0.00    +0.000 C 
ATOM     30  C   UNL     1       4.445   2.181  19.834  0.00  0.00    +0.000 C 
ENDBRANCH  26  29
ENDBRANCH  23  24
ENDBRANCH  11  23
TORSDOF 9
ENDMDL
MODEL 3
REMARK VINA RESULT:      -7.1      1.616      2.567
REMARK  Name = 
REMARK  14 active torsions:
REMARK  status: ('A' for Active; 'I' for Inactive)
REMARK    1  A    between atoms: C_1  and  C_2
REMARK    2  A    between atoms: C_2  and  C_3
REMARK    3  A    between atoms: C_3  and  C_4
REMARK    4  A    between atoms: C_4  and  O_5
REMARK    5  A    between atoms: O_5  and  C_6
REMARK    6  A    between atoms: C_9  and  C_10
REMARK    7  A    between atoms: C_13  and  C_14
REMARK    8  A    between atoms: C_16  and  C_17
REMARK    9  A    between atoms: C_20  and  C_21
REMARK   10  A    between atoms: C_21  and  C_22
REMARK   11  A    between atoms: N_24  and  C_25
REMARK   12  A    between atoms: N_24  and  C_27
REMARK   13  A    between atoms: C_25  and  C_26
REMARK   14  A    between atoms: C_27  and  C_28
REMARK                            x       y       z     vdW  Elec       q    Type
REMARK                         _______ _______ _______ _____ _____    ______ ____
ROOT
ATOM      1  C   UNL     1       2.501   7.501  18.804  0.00  0.00    +0.000 A 
ATOM      2  N   UNL     1       2.146   8.762  18.512  0.00  0.00    +0.000 NA
ATOM      3  N   UNL     1       1.406   9.190  19.557  0.00  0.00    +0.000 N 
ATOM      4  C   UNL     1       0.782  10.433  19.720  0.00  0.00    +0.000 A 
ATOM      5  C   UNL     1       0.913  11.482  18.658  0.00  0.00    +0.000 C 
ATOM      6  C   UNL     1       0.076  10.665  20.846  0.00  0.00    +0.000 A 
ATOM      7  C   UNL     1       0.044   9.558  21.846  0.00  0.00    +0.000 A 
ATOM      8  C   UNL     1      -0.762   9.786  23.101  0.00  0.00    +0.000 C 
ATOM      9  N   UNL     1       0.655   8.414  21.724  0.00  0.00    +0.000 NA
ATOM     10  C   UNL     1       1.334   8.216  20.556  0.00  0.00    +0.000 A 
ATOM     11  C   UNL     1       2.062   7.130  20.106  0.00  0.00    +0.000 A 
ENDROOT
BRANCH   1  15
ATOM     12  C   UNL     1       4.927   5.170  16.160  0.00  0.00    +0.000 A 
ATOM     13  C   UNL     1       3.964   4.568  16.975  0.00  0.00    +0.000 A 
ATOM     14  C   UNL     1       3.144   5.340  17.792  0.00  0.00    +0.000 A 
ATOM     15  C   UNL     1       3.267   6.733  17.819  0.00  0.00    +0.000 A 
ATOM     16  C   UNL     1       4.198   7.337  16.966  0.00  0.00    +0.000 A 
ATOM     17  C   UNL     1       5.019   6.560  16.136  0.00  0.00    +0.000 A 
BRANCH  12  18
ATOM     18  O   UNL     1       5.825   4.490  15.376  0.00  0.00    +0.000 OA
BRANCH  18  19
ATOM     19  C   UNL     1       7.196   4.709  15.717  0.00  0.00    +0.000 C 
BRANCH  19  20
ATOM     20  C   UNL     1       7.411   4.489  17.208  0.00  0.00    +0.000 C 
BRANCH  20  22
ATOM     21  C   UNL     1       7.710   5.662  19.416  0.00  0.00    +0.000 C 
ATOM     22  C   UNL     1       7.674   5.823  17.906  0.00  0.00    +0.000 C 
ENDBRANCH  20  22
ENDBRANCH  19  20
ENDBRANCH  18  19
ENDBRANCH  12  18
ENDBRANCH   1  15
BRANCH  11  23
ATOM     23  C   UNL     1       2.390   5.896  20.884  0.00  0.00    +0.000 C 
BRANCH  23  24
ATOM     24  C   UNL     1       1.527   4.674  20.585  0.00  0.00    +0.000 C 
ATOM     25  O   UNL     1       0.299   4.738  20.516  0.00  0.00    +0.000 OA
ATOM     26  N   UNL     1       2.217   3.465  20.342  0.00  0.00    +0.000 N 
BRANCH  26  27
ATOM     27  C   UNL     1       1.405   2.277  20.030  0.00  0.00    +0.000 C 
ATOM     28  C   UNL     1       0.913   2.189  18.589  0.00  0.00    +0.000 C 
ENDBRANCH  26  27
BRANCH  26  29
ATOM     29  C   UNL     1       3.596   3.247  20.809  0.00  0.00    +0.000 C 
ATOM     30  C   UNL     1       4.396   2.345  19.880  0.00  0.00    +0.000 C 
ENDBRANCH  26  29
ENDBRANCH  23  24
ENDBRANCH  11  23
TORSDOF 9
ENDMDL
MODEL 4
REMARK VINA RESULT:      -7.0      2.524      7.589
REMARK  Name = 
REMARK  14 active torsions:
REMARK  status: ('A' for Active; 'I' for Inactive)
REMARK    1  A    between atoms: C_1  and  C_2
REMARK    2  A    between atoms: C_2  and  C_3
REMARK    3  A    between atoms: C_3  and  C_4
REMARK    4  A    between atoms: C_4  and  O_5
REMARK    5  A    between atoms: O_5  and  C_6
REMARK    6  A    between atoms: C_9  and  C_10
REMARK    7  A    between atoms: C_13  and  C_14
REMARK    8  A    between atoms: C_16  and  C_17
REMARK    9  A    between atoms: C_20  and  C_21
REMARK   10  A    between atoms: C_21  and  C_22
REMARK   11  A    between atoms: N_24  and  C_25
REMARK   12  A    between atoms: N_24  and  C_27
REMARK   13  A    between atoms: C_25  and  C_26
REMARK   14  A    between atoms: C_27  and  C_28
REMARK                            x       y       z     vdW  Elec       q    Type
REMARK                         _______ _______ _______ _____ _____    ______ ____
ROOT
ATOM      1  C   UNL     1       2.293   6.530  19.331  0.00  0.00    +0.000 A 
ATOM      2  N   UNL     1       1.998   5.696  20.339  0.00  0.00    +0.000 NA
ATOM      3  N   UNL     1       2.430   4.477  19.950  0.00  0.00    +0.000 N 
ATOM      4  C   UNL     1       2.331   3.265  20.644  0.00  0.00    +0.000 A 
ATOM      5  C   UNL     1       1.694   3.227  22.000  0.00  0.00    +0.000 C 
ATOM      6  C   UNL     1       2.824   2.146  20.074  0.00  0.00    +0.000 A 
ATOM      7  C   UNL     1       3.464   2.312  18.737  0.00  0.00    +0.000 A 
ATOM      8  C   UNL     1       3.999   1.069  18.070  0.00  0.00    +0.000 C 
ATOM      9  N   UNL     1       3.600   3.441  18.100  0.00  0.00    +0.000 NA
ATOM     10  C   UNL     1       3.061   4.541  18.705  0.00  0.00    +0.000 A 
ATOM     11  C   UNL     1       3.014   5.862  18.302  0.00  0.00    +0.000 A 
ENDROOT
BRANCH   1  15
ATOM     12  C   UNL     1       0.806  10.534  19.599  0.00  0.00    +0.000 A 
ATOM     13  C   UNL     1       0.811   9.690  20.712  0.00  0.00    +0.000 A 
ATOM     14  C   UNL     1       1.345   8.408  20.628  0.00  0.00    +0.000 A 
ATOM     15  C   UNL     1       1.884   7.934  19.428  0.00  0.00    +0.000 A 
ATOM     16  C   UNL     1       1.925   8.798  18.327  0.00  0.00    +0.000 A 
ATOM     17  C   UNL     1       1.394  10.094  18.414  0.00  0.00    +0.000 A 
BRANCH  12  18
ATOM     18  O   UNL     1       0.240  11.784  19.565  0.00  0.00    +0.000 OA
BRANCH  18  19
ATOM     19  C   UNL     1      -0.620  12.018  18.449  0.00  0.00    +0.000 C 
BRANCH  19  20
ATOM     20  C   UNL     1      -2.046  11.603  18.785  0.00  0.00    +0.000 C 
BRANCH  20  22
ATOM     21  C   UNL     1      -2.231  10.270  16.656  0.00  0.00    +0.000 C 
ATOM     22  C   UNL     1      -2.359  10.239  18.170  0.00  0.00    +0.000 C 
ENDBRANCH  20  22
ENDBRANCH  19  20
ENDBRANCH  18  19
ENDBRANCH  12  18
ENDBRANCH   1  15
BRANCH  11  23
ATOM     23  C   UNL     1       3.681   6.448  17.099  0.00  0.00    +0.000 C 
BRANCH  23  24
ATOM     24  C   UNL     1       5.206   6.418  17.102  0.00  0.00    +0.000 C 
ATOM     25  O   UNL     1       5.879   7.278  17.673  0.00  0.00    +0.000 OA
ATOM     26  N   UNL     1       5.811   5.317  16.455  0.00  0.00    +0.000 N 
BRANCH  26  27
ATOM     27  C   UNL     1       7.282   5.255  16.465  0.00  0.00    +0.000 C 
ATOM     28  C   UNL     1       7.890   4.480  17.629  0.00  0.00    +0.000 C 
ENDBRANCH  26  27
BRANCH  26  29
ATOM     29  C   UNL     1       5.101   4.524  15.439  0.00  0.00    +0.000 C 
ATOM     30  C   UNL     1       5.957   4.231  14.216  0.00  0.00    +0.000 C 
ENDBRANCH  26  29
ENDBRANCH  23  24
ENDBRANCH  11  23
TORSDOF 9
ENDMDL
MODEL 5
REMARK VINA RESULT:      -7.0      4.151      7.465
REMARK  Name = 
REMARK  14 active torsions:
REMARK  status: ('A' for Active; 'I' for Inactive)
REMARK    1  A    between atoms: C_1  and  C_2
REMARK    2  A    between atoms: C_2  and  C_3
REMARK    3  A    between atoms: C_3  and  C_4
REMARK    4  A    between atoms: C_4  and  O_5
REMARK    5  A    between atoms: O_5  and  C_6
REMARK    6  A    between atoms: C_9  and  C_10
REMARK    7  A    between atoms: C_13  and  C_14
REMARK    8  A    between atoms: C_16  and  C_17
REMARK    9  A    between atoms: C_20  and  C_21
REMARK   10  A    between atoms: C_21  and  C_22
REMARK   11  A    between atoms: N_24  and  C_25
REMARK   12  A    between atoms: N_24  and  C_27
REMARK   13  A    between atoms: C_25  and  C_26
REMARK   14  A    between atoms: C_27  and  C_28
REMARK                            x       y       z     vdW  Elec       q    Type
REMARK                         _______ _______ _______ _____ _____    ______ ____
ROOT
ATOM      1  C   UNL     1       1.139  11.301  18.999  0.00  0.00    +0.000 A 
ATOM      2  N   UNL     1       2.095  12.187  18.680  0.00  0.00    +0.000 NA
ATOM      3  N   UNL     1       1.513  13.403  18.751  0.00  0.00    +0.000 N 
ATOM      4  C   UNL     1       2.088  14.652  18.482  0.00  0.00    +0.000 A 
ATOM      5  C   UNL     1       3.527  14.741  18.073  0.00  0.00    +0.000 C 
ATOM      6  C   UNL     1       1.328  15.758  18.606  0.00  0.00    +0.000 A 
ATOM      7  C   UNL     1      -0.080  15.548  19.051  0.00  0.00    +0.000 A 
ATOM      8  C   UNL     1      -0.955  16.771  19.171  0.00  0.00    +0.000 C 
ATOM      9  N   UNL     1      -0.614  14.396  19.344  0.00  0.00    +0.000 NA
ATOM     10  C   UNL     1       0.186  13.302  19.177  0.00  0.00    +0.000 A 
ATOM     11  C   UNL     1      -0.066  11.958  19.376  0.00  0.00    +0.000 A 
ENDROOT
BRANCH   1  15
ATOM     12  C   UNL     1       2.313   7.186  18.998  0.00  0.00    +0.000 A 
ATOM     13  C   UNL     1       1.773   7.783  20.141  0.00  0.00    +0.000 A 
ATOM     14  C   UNL     1       1.345   9.106  20.115  0.00  0.00    +0.000 A 
ATOM     15  C   UNL     1       1.450   9.870  18.949  0.00  0.00    +0.000 A 
ATOM     16  C   UNL     1       1.945   9.258  17.792  0.00  0.00    +0.000 A 
ATOM     17  C   UNL     1       2.369   7.920  17.815  0.00  0.00    +0.000 A 
BRANCH  12  18
ATOM     18  O   UNL     1       2.825   5.914  18.946  0.00  0.00    +0.000 OA
BRANCH  18  19
ATOM     19  C   UNL     1       2.036   4.986  18.199  0.00  0.00    +0.000 C 
BRANCH  19  20
ATOM     20  C   UNL     1       1.916   3.668  18.953  0.00  0.00    +0.000 C 
BRANCH  20  22
ATOM     21  C   UNL     1       1.382   2.905  21.293  0.00  0.00    +0.000 C 
ATOM     22  C   UNL     1       0.986   3.829  20.154  0.00  0.00    +0.000 C 
ENDBRANCH  20  22
ENDBRANCH  19  20
ENDBRANCH  18  19
ENDBRANCH  12  18
ENDBRANCH   1  15
BRANCH  11  23
ATOM     23  C   UNL     1      -1.307  11.364  19.964  0.00  0.00    +0.000 C 
BRANCH  23  24
ATOM     24  C   UNL     1      -2.623  11.847  19.363  0.00  0.00    +0.000 C 
ATOM     25  O   UNL     1      -3.312  12.715  19.902  0.00  0.00    +0.000 OA
ATOM     26  N   UNL     1      -2.990  11.278  18.123  0.00  0.00    +0.000 N 
BRANCH  26  27
ATOM     27  C   UNL     1      -4.246  11.745  17.512  0.00  0.00    +0.000 C 
ATOM     28  C   UNL     1      -5.502  11.016  17.977  0.00  0.00    +0.000 C 
ENDBRANCH  26  27
BRANCH  26  29
ATOM     29  C   UNL     1      -2.445   9.990  17.664  0.00  0.00    +0.000 C 
ATOM     30  C   UNL     1      -2.480   9.841  16.150  0.00  0.00    +0.000 C 
ENDBRANCH  26  29
ENDBRANCH  23  24
ENDBRANCH  11  23
TORSDOF 9
ENDMDL
MODEL 6
REMARK VINA RESULT:      -6.8      2.577      7.477
REMARK  Name = 
REMARK  14 active torsions:
REMARK  status: ('A' for Active; 'I' for Inactive)
REMARK    1  A    between atoms: C_1  and  C_2
REMARK    2  A    between atoms: C_2  and  C_3
REMARK    3  A    between atoms: C_3  and  C_4
REMARK    4  A    between atoms: C_4  and  O_5
REMARK    5  A    between atoms: O_5  and  C_6
REMARK    6  A    between atoms: C_9  and  C_10
REMARK    7  A    between atoms: C_13  and  C_14
REMARK    8  A    between atoms: C_16  and  C_17
REMARK    9  A    between atoms: C_20  and  C_21
REMARK   10  A    between atoms: C_21  and  C_22
REMARK   11  A    between atoms: N_24  and  C_25
REMARK   12  A    between atoms: N_24  and  C_27
REMARK   13  A    between atoms: C_25  and  C_26
REMARK   14  A    between atoms: C_27  and  C_28
REMARK                            x       y       z     vdW  Elec       q    Type
REMARK                         _______ _______ _______ _____ _____    ______ ____
ROOT
ATOM      1  C   UNL     1       2.479   6.530  18.857  0.00  0.00    +0.000 A 
ATOM      2  N   UNL     1       1.602   5.636  19.339  0.00  0.00    +0.000 NA
ATOM      3  N   UNL     1       2.139   4.422  19.095  0.00  0.00    +0.000 N 
ATOM      4  C   UNL     1       1.596   3.164  19.385  0.00  0.00    +0.000 A 
ATOM      5  C   UNL     1       0.264   3.061  20.065  0.00  0.00    +0.000 C 
ATOM      6  C   UNL     1       2.294   2.060  19.051  0.00  0.00    +0.000 A 
ATOM      7  C   UNL     1       3.622   2.286  18.408  0.00  0.00    +0.000 A 
ATOM      8  C   UNL     1       4.409   1.064  18.003  0.00  0.00    +0.000 C 
ATOM      9  N   UNL     1       4.156   3.451  18.171  0.00  0.00    +0.000 NA
ATOM     10  C   UNL     1       3.400   4.539  18.503  0.00  0.00    +0.000 A 
ATOM     11  C   UNL     1       3.653   5.891  18.372  0.00  0.00    +0.000 A 
ENDROOT
BRANCH   1  15
ATOM     12  C   UNL     1       1.206  10.614  18.989  0.00  0.00    +0.000 A 
ATOM     13  C   UNL     1       1.065   9.777  20.100  0.00  0.00    +0.000 A 
ATOM     14  C   UNL     1       1.530   8.467  20.064  0.00  0.00    +0.000 A 
ATOM     15  C   UNL     1       2.144   7.956  18.917  0.00  0.00    +0.000 A 
ATOM     16  C   UNL     1       2.330   8.809  17.823  0.00  0.00    +0.000 A 
ATOM     17  C   UNL     1       1.869  10.134  17.861  0.00  0.00    +0.000 A 
BRANCH  12  18
ATOM     18  O   UNL     1       0.718  11.894  18.905  0.00  0.00    +0.000 OA
BRANCH  18  19
ATOM     19  C   UNL     1      -0.646  12.037  19.308  0.00  0.00    +0.000 C 
BRANCH  19  20
ATOM     20  C   UNL     1      -1.573  11.830  18.119  0.00  0.00    +0.000 C 
BRANCH  20  22
ATOM     21  C   UNL     1      -2.151   9.792  16.758  0.00  0.00    +0.000 C 
ATOM     22  C   UNL     1      -2.155  10.417  18.142  0.00  0.00    +0.000 C 
ENDBRANCH  20  22
ENDBRANCH  19  20
ENDBRANCH  18  19
ENDBRANCH  12  18
ENDBRANCH   1  15
BRANCH  11  23
ATOM     23  C   UNL     1       4.934   6.514  17.918  0.00  0.00    +0.000 C 
BRANCH  23  24
ATOM     24  C   UNL     1       5.384   6.155  16.505  0.00  0.00    +0.000 C 
ATOM     25  O   UNL     1       4.780   6.545  15.505  0.00  0.00    +0.000 OA
ATOM     26  N   UNL     1       6.566   5.389  16.401  0.00  0.00    +0.000 N 
BRANCH  26  27
ATOM     27  C   UNL     1       7.032   5.049  15.046  0.00  0.00    +0.000 C 
ATOM     28  C   UNL     1       6.312   3.876  14.388  0.00  0.00    +0.000 C 
ENDBRANCH  26  27
BRANCH  26  29
ATOM     29  C   UNL     1       7.069   4.575  17.520  0.00  0.00    +0.000 C 
ATOM     30  C   UNL     1       7.853   5.392  18.536  0.00  0.00    +0.000 C 
ENDBRANCH  26  29
ENDBRANCH  23  24
ENDBRANCH  11  23
TORSDOF 9
ENDMDL
MODEL 7
REMARK VINA RESULT:      -6.8      0.932      1.119
REMARK  Name = 
REMARK  14 active torsions:
REMARK  status: ('A' for Active; 'I' for Inactive)
REMARK    1  A    between atoms: C_1  and  C_2
REMARK    2  A    between atoms: C_2  and  C_3
REMARK    3  A    between atoms: C_3  and  C_4
REMARK    4  A    between atoms: C_4  and  O_5
REMARK    5  A    between atoms: O_5  and  C_6
REMARK    6  A    between atoms: C_9  and  C_10
REMARK    7  A    between atoms: C_13  and  C_14
REMARK    8  A    between atoms: C_16  and  C_17
REMARK    9  A    between atoms: C_20  and  C_21
REMARK   10  A    between atoms: C_21  and  C_22
REMARK   11  A    between atoms: N_24  and  C_25
REMARK   12  A    between atoms: N_24  and  C_27
REMARK   13  A    between atoms: C_25  and  C_26
REMARK   14  A    between atoms: C_27  and  C_28
REMARK                            x       y       z     vdW  Elec       q    Type
REMARK                         _______ _______ _______ _____ _____    ______ ____
ROOT
ATOM      1  C   UNL     1       3.463   7.115  18.373  0.00  0.00    +0.000 A 
ATOM      2  N   UNL     1       2.948   8.314  18.055  0.00  0.00    +0.000 NA
ATOM      3  N   UNL     1       2.029   8.586  19.006  0.00  0.00    +0.000 N 
ATOM      4  C   UNL     1       1.199   9.710  19.105  0.00  0.00    +0.000 A 
ATOM      5  C   UNL     1       1.287  10.800  18.081  0.00  0.00    +0.000 C 
ATOM      6  C   UNL     1       0.335   9.791  20.137  0.00  0.00    +0.000 A 
ATOM      7  C   UNL     1       0.359   8.661  21.112  0.00  0.00    +0.000 A 
ATOM      8  C   UNL     1      -0.618   8.720  22.260  0.00  0.00    +0.000 C 
ATOM      9  N   UNL     1       1.156   7.632  21.053  0.00  0.00    +0.000 NA
ATOM     10  C   UNL     1       1.994   7.581  19.976  0.00  0.00    +0.000 A 
ATOM     11  C   UNL     1       2.935   6.639  19.606  0.00  0.00    +0.000 A 
ENDROOT
BRANCH   1  15
ATOM     12  C   UNL     1       6.502   5.622  15.757  0.00  0.00    +0.000 A 
ATOM     13  C   UNL     1       6.744   5.789  17.124  0.00  0.00    +0.000 A 
ATOM     14  C   UNL     1       5.733   6.225  17.974  0.00  0.00    +0.000 A 
ATOM     15  C   UNL     1       4.456   6.510  17.482  0.00  0.00    +0.000 A 
ATOM     16  C   UNL     1       4.201   6.294  16.123  0.00  0.00    +0.000 A 
ATOM     17  C   UNL     1       5.218   5.847  15.265  0.00  0.00    +0.000 A 
BRANCH  12  18
ATOM     18  O   UNL     1       7.451   5.266  14.831  0.00  0.00    +0.000 OA
BRANCH  18  19
ATOM     19  C   UNL     1       7.138   4.090  14.082  0.00  0.00    +0.000 C 
BRANCH  19  20
ATOM     20  C   UNL     1       6.997   4.427  12.604  0.00  0.00    +0.000 C 
BRANCH  20  22
ATOM     21  C   UNL     1       4.918   3.252  11.806  0.00  0.00    +0.000 C 
ATOM     22  C   UNL     1       6.436   3.229  11.840  0.00  0.00    +0.000 C 
ENDBRANCH  20  22
ENDBRANCH  19  20
ENDBRANCH  18  19
ENDBRANCH  12  18
ENDBRANCH   1  15
BRANCH  11  23
ATOM     23  C   UNL     1       3.360   5.447  20.403  0.00  0.00    +0.000 C 
BRANCH  23  24
ATOM     24  C   UNL     1       2.415   4.250  20.364  0.00  0.00    +0.000 C 
ATOM     25  O   UNL     1       1.407   4.186  21.069  0.00  0.00    +0.000 OA
ATOM     26  N   UNL     1       2.731   3.234  19.435  0.00  0.00    +0.000 N 
BRANCH  26  27
ATOM     27  C   UNL     1       1.821   2.079  19.364  0.00  0.00    +0.000 C 
ATOM     28  C   UNL     1       0.555   2.301  18.543  0.00  0.00    +0.000 C 
ENDBRANCH  26  27
BRANCH  26  29
ATOM     29  C   UNL     1       4.091   3.066  18.896  0.00  0.00    +0.000 C 
ATOM     30  C   UNL     1       4.104   2.843  17.390  0.00  0.00    +0.000 C 
ENDBRANCH  26  29
ENDBRANCH  23  24
ENDBRANCH  11  23
TORSDOF 9
ENDMDL
MODEL 8
REMARK VINA RESULT:      -6.7      2.501      7.803
REMARK  Name = 
REMARK  14 active torsions:
REMARK  status: ('A' for Active; 'I' for Inactive)
REMARK    1  A    between atoms: C_1  and  C_2
REMARK    2  A    between atoms: C_2  and  C_3
REMARK    3  A    between atoms: C_3  and  C_4
REMARK    4  A    between atoms: C_4  and  O_5
REMARK    5  A    between atoms: O_5  and  C_6
REMARK    6  A    between atoms: C_9  and  C_10
REMARK    7  A    between atoms: C_13  and  C_14
REMARK    8  A    between atoms: C_16  and  C_17
REMARK    9  A    between atoms: C_20  and  C_21
REMARK   10  A    between atoms: C_21  and  C_22
REMARK   11  A    between atoms: N_24  and  C_25
REMARK   12  A    between atoms: N_24  and  C_27
REMARK   13  A    between atoms: C_25  and  C_26
REMARK   14  A    between atoms: C_27  and  C_28
REMARK                            x       y       z     vdW  Elec       q    Type
REMARK                         _______ _______ _______ _____ _____    ______ ____
ROOT
ATOM      1  C   UNL     1       2.298   6.566  19.281  0.00  0.00    +0.000 A 
ATOM      2  N   UNL     1       1.891   5.682  20.206  0.00  0.00    +0.000 NA
ATOM      3  N   UNL     1       2.351   4.480  19.797  0.00  0.00    +0.000 N 
ATOM      4  C   UNL     1       2.168   3.234  20.410  0.00  0.00    +0.000 A 
ATOM      5  C   UNL     1       1.392   3.133  21.687  0.00  0.00    +0.000 C 
ATOM      6  C   UNL     1       2.707   2.140  19.834  0.00  0.00    +0.000 A 
ATOM      7  C   UNL     1       3.485   2.368  18.581  0.00  0.00    +0.000 A 
ATOM      8  C   UNL     1       4.075   1.154  17.906  0.00  0.00    +0.000 C 
ATOM      9  N   UNL     1       3.697   3.527  18.025  0.00  0.00    +0.000 NA
ATOM     10  C   UNL     1       3.109   4.601  18.630  0.00  0.00    +0.000 A 
ATOM     11  C   UNL     1       3.117   5.943  18.298  0.00  0.00    +0.000 A 
ENDROOT
BRANCH   1  15
ATOM     12  C   UNL     1       0.828  10.566  19.667  0.00  0.00    +0.000 A 
ATOM     13  C   UNL     1       0.906   9.715  20.774  0.00  0.00    +0.000 A 
ATOM     14  C   UNL     1       1.435   8.435  20.647  0.00  0.00    +0.000 A 
ATOM     15  C   UNL     1       1.895   7.968  19.412  0.00  0.00    +0.000 A 
ATOM     16  C   UNL     1       1.862   8.838  18.316  0.00  0.00    +0.000 A 
ATOM     17  C   UNL     1       1.336  10.132  18.444  0.00  0.00    +0.000 A 
BRANCH  12  18
ATOM     18  O   UNL     1       0.259  11.815  19.678  0.00  0.00    +0.000 OA
BRANCH  18  19
ATOM     19  C   UNL     1       0.555  12.592  20.840  0.00  0.00    +0.000 C 
BRANCH  19  20
ATOM     20  C   UNL     1       1.781  13.461  20.596  0.00  0.00    +0.000 C 
BRANCH  20  22
ATOM     21  C   UNL     1       2.998  13.638  18.398  0.00  0.00    +0.000 C 
ATOM     22  C   UNL     1       1.753  14.028  19.177  0.00  0.00    +0.000 C 
ENDBRANCH  20  22
ENDBRANCH  19  20
ENDBRANCH  18  19
ENDBRANCH  12  18
ENDBRANCH   1  15
BRANCH  11  23
ATOM     23  C   UNL     1       3.911   6.582  17.204  0.00  0.00    +0.000 C 
BRANCH  23  24
ATOM     24  C   UNL     1       5.418   6.349  17.253  0.00  0.00    +0.000 C 
ATOM     25  O   UNL     1       6.147   6.930  18.058  0.00  0.00    +0.000 OA
ATOM     26  N   UNL     1       5.931   5.388  16.354  0.00  0.00    +0.000 N 
BRANCH  26  27
ATOM     27  C   UNL     1       7.381   5.130  16.398  0.00  0.00    +0.000 C 
ATOM     28  C   UNL     1       7.872   4.408  17.648  0.00  0.00    +0.000 C 
ENDBRANCH  26  27
BRANCH  26  29
ATOM     29  C   UNL     1       5.205   4.992  15.136  0.00  0.00    +0.000 C 
ATOM     30  C   UNL     1       6.003   4.042  14.256  0.00  0.00    +0.000 C 
ENDBRANCH  26  29
ENDBRANCH  23  24
ENDBRANCH  11  23
TORSDOF 9
ENDMDL
MODEL 9
REMARK VINA RESULT:      -6.7      4.549      7.867
REMARK  Name = 
REMARK  14 active torsions:
REMARK  status: ('A' for Active; 'I' for Inactive)
REMARK    1  A    between atoms: C_1  and  C_2
REMARK    2  A    between atoms: C_2  and  C_3
REMARK    3  A    between atoms: C_3  and  C_4
REMARK    4  A    between atoms: C_4  and  O_5
REMARK    5  A    between atoms: O_5  and  C_6
REMARK    6  A    between atoms: C_9  and  C_10
REMARK    7  A    between atoms: C_13  and  C_14
REMARK    8  A    between atoms: C_16  and  C_17
REMARK    9  A    between atoms: C_20  and  C_21
REMARK   10  A    between atoms: C_21  and  C_22
REMARK   11  A    between atoms: N_24  and  C_25
REMARK   12  A    between atoms: N_24  and  C_27
REMARK   13  A    between atoms: C_25  and  C_26
REMARK   14  A    between atoms: C_27  and  C_28
REMARK                            x       y       z     vdW  Elec       q    Type
REMARK                         _______ _______ _______ _____ _____    ______ ____
ROOT
ATOM      1  C   UNL     1       0.843  11.615  19.441  0.00  0.00    +0.000 A 
ATOM      2  N   UNL     1       1.496  12.416  20.298  0.00  0.00    +0.000 NA
ATOM      3  N   UNL     1       1.057  13.667  20.042  0.00  0.00    +0.000 N 
ATOM      4  C   UNL     1       1.456  14.863  20.654  0.00  0.00    +0.000 A 
ATOM      5  C   UNL     1       2.480  14.839  21.748  0.00  0.00    +0.000 C 
ATOM      6  C   UNL     1       0.897  16.020  20.247  0.00  0.00    +0.000 A 
ATOM      7  C   UNL     1      -0.134  15.916  19.174  0.00  0.00    +0.000 A 
ATOM      8  C   UNL     1      -0.753  17.202  18.685  0.00  0.00    +0.000 C 
ATOM      9  N   UNL     1      -0.543  14.806  18.626  0.00  0.00    +0.000 NA
ATOM     10  C   UNL     1       0.071  13.663  19.053  0.00  0.00    +0.000 A 
ATOM     11  C   UNL     1      -0.107  12.346  18.675  0.00  0.00    +0.000 A 
ENDROOT
BRANCH   1  15
ATOM     12  C   UNL     1       2.009   7.500  19.570  0.00  0.00    +0.000 A 
ATOM     13  C   UNL     1       1.388   8.109  20.665  0.00  0.00    +0.000 A 
ATOM     14  C   UNL     1       0.966   9.432  20.593  0.00  0.00    +0.000 A 
ATOM     15  C   UNL     1       1.155  10.183  19.429  0.00  0.00    +0.000 A 
ATOM     16  C   UNL     1       1.731   9.558  18.318  0.00  0.00    +0.000 A 
ATOM     17  C   UNL     1       2.150   8.220  18.386  0.00  0.00    +0.000 A 
BRANCH  12  18
ATOM     18  O   UNL     1       2.521   6.226  19.569  0.00  0.00    +0.000 OA
BRANCH  18  19
ATOM     19  C   UNL     1       2.231   5.468  20.746  0.00  0.00    +0.000 C 
BRANCH  19  20
ATOM     20  C   UNL     1       2.224   3.980  20.426  0.00  0.00    +0.000 C 
BRANCH  20  22
ATOM     21  C   UNL     1       0.907   2.486  18.885  0.00  0.00    +0.000 C 
ATOM     22  C   UNL     1       0.831   3.543  19.974  0.00  0.00    +0.000 C 
ENDBRANCH  20  22
ENDBRANCH  19  20
ENDBRANCH  18  19
ENDBRANCH  12  18
ENDBRANCH   1  15
BRANCH  11  23
ATOM     23  C   UNL     1      -1.153  11.822  17.743  0.00  0.00    +0.000 C 
BRANCH  23  24
ATOM     24  C   UNL     1      -2.555  11.681  18.329  0.00  0.00    +0.000 C 
ATOM     25  O   UNL     1      -2.869  12.185  19.408  0.00  0.00    +0.000 OA
ATOM     26  N   UNL     1      -3.494  10.977  17.542  0.00  0.00    +0.000 N 
BRANCH  26  27
ATOM     27  C   UNL     1      -4.859  10.847  18.077  0.00  0.00    +0.000 C 
ATOM     28  C   UNL     1      -5.856  11.885  17.572  0.00  0.00    +0.000 C 
ENDBRANCH  26  27
BRANCH  26  29
ATOM     29  C   UNL     1      -3.079  10.033  16.492  0.00  0.00    +0.000 C 
ATOM     30  C   UNL     1      -3.381  10.541  15.090  0.00  0.00    +0.000 C 
ENDBRANCH  26  29
ENDBRANCH  23  24
ENDBRANCH  11  23
TORSDOF 9
ENDMDL
