MODEL 1
REMARK VINA RESULT:      -9.2      0.000      0.000
REMARK  Name = 
REMARK  7 active torsions:
REMARK  status: ('A' for Active; 'I' for Inactive)
REMARK    1  A    between atoms: C_1  and  C_2
REMARK    2  A    between atoms: C_2  and  O_3
REMARK    3  A    between atoms: O_3  and  C_4
REMARK    4  A    between atoms: C_7  and  C_8
REMARK    5  A    between atoms: N_10  and  C_11
REMARK    6  A    between atoms: C_15  and  C_16
REMARK    7  A    between atoms: C_29  and  N_30
REMARK                            x       y       z     vdW  Elec       q    Type
REMARK                         _______ _______ _______ _____ _____    ______ ____
ROOT
ATOM      1  C   UNL     1       3.019   5.718  19.695  0.00  0.00    +0.000 A 
ATOM      2  C   UNL     1       2.949   4.455  20.285  0.00  0.00    +0.000 A 
ATOM      3  C   UNL     1       3.570   3.357  19.698  0.00  0.00    +0.000 A 
ATOM      4  C   UNL     1       4.268   3.509  18.504  0.00  0.00    +0.000 A 
ATOM      5  C   UNL     1       4.371   4.762  17.877  0.00  0.00    +0.000 A 
ATOM      6  C   UNL     1       3.717   5.857  18.485  0.00  0.00    +0.000 A 
ENDROOT
BRANCH   5   7
ATOM      7  C   UNL     1       5.171   4.933  16.627  0.00  0.00    +0.000 A 
ATOM      8  C   UNL     1       4.923   4.163  15.551  0.00  0.00    +0.000 A 
ATOM      9  C   UNL     1       5.734   4.261  14.347  0.00  0.00    +0.000 A 
ATOM     10  C   UNL     1       5.400   3.603  13.161  0.00  0.00    +0.000 A 
ATOM     11  C   UNL     1       6.265   3.669  12.060  0.00  0.00    +0.000 A 
ATOM     12  C   UNL     1       7.471   4.366  12.154  0.00  0.00    +0.000 A 
ATOM     13  C   UNL     1       7.799   5.034  13.332  0.00  0.00    +0.000 A 
ATOM     14  C   UNL     1       6.911   4.993  14.403  0.00  0.00    +0.000 A 
ATOM     15  O   UNL     1       7.222   5.759  15.535  0.00  0.00    +0.000 OA
ATOM     16  C   UNL     1       6.284   5.934  16.548  0.00  0.00    +0.000 A 
ATOM     17  O   UNL     1       6.412   6.843  17.363  0.00  0.00    +0.000 OA
ENDBRANCH   5   7
BRANCH   1  20
ATOM     18  C   UNL     1       1.896   7.921  19.543  0.00  0.00    +0.000 C 
ATOM     19  O   UNL     1       1.835   7.993  18.319  0.00  0.00    +0.000 OA
ATOM     20  N   UNL     1       2.423   6.869  20.273  0.00  0.00    +0.000 N 
ATOM     21  H   UNL     1       2.242   6.833  21.269  0.00  0.00    +0.000 HD
BRANCH  18  25
ATOM     22  C   UNL     1      -0.073  10.951  21.904  0.00  0.00    +0.000 A 
ATOM     23  C   UNL     1       0.322   9.719  22.433  0.00  0.00    +0.000 A 
ATOM     24  C   UNL     1       0.981   8.780  21.642  0.00  0.00    +0.000 A 
ATOM     25  C   UNL     1       1.266   9.034  20.295  0.00  0.00    +0.000 A 
ATOM     26  C   UNL     1       0.883  10.251  19.733  0.00  0.00    +0.000 A 
ATOM     27  C   UNL     1       0.215  11.191  20.550  0.00  0.00    +0.000 A 
BRANCH  27  28
ATOM     28  N   UNL     1      -0.166  12.450  19.935  0.00  0.00    +0.000 N 
ATOM     29  O   UNL     1      -1.264  12.508  19.366  0.00  0.00    +0.000 OA
ATOM     30  O   UNL     1       0.680  13.355  19.963  0.00  0.00    +0.000 OA
ENDBRANCH  27  28
BRANCH  22  31
ATOM     31  O   UNL     1      -0.699  11.919  22.650  0.00  0.00    +0.000 OA
BRANCH  31  33
ATOM     32  C   UNL     1      -3.066  12.410  22.436  0.00  0.00    +0.000 C 
ATOM     33  C   UNL     1      -2.006  11.584  23.136  0.00  0.00    +0.000 C 
ENDBRANCH  31  33
ENDBRANCH  22  31
ENDBRANCH  18  25
ENDBRANCH   1  20
TORSDOF 6
ENDMDL
MODEL 2
REMARK VINA RESULT:      -9.2      3.752     10.593
REMARK  Name = 
REMARK  7 active torsions:
REMARK  status: ('A' for Active; 'I' for Inactive)
REMARK    1  A    between atoms: C_1  and  C_2
REMARK    2  A    between atoms: C_2  and  O_3
REMARK    3  A    between atoms: O_3  and  C_4
REMARK    4  A    between atoms: C_7  and  C_8
REMARK    5  A    between atoms: N_10  and  C_11
REMARK    6  A    between atoms: C_15  and  C_16
REMARK    7  A    between atoms: C_29  and  N_30
REMARK                            x       y       z     vdW  Elec       q    Type
REMARK                         _______ _______ _______ _____ _____    ______ ____
ROOT
ATOM      1  C   UNL     1       0.970  10.380  18.676  0.00  0.00    +0.000 A 
ATOM      2  C   UNL     1       1.697  11.572  18.689  0.00  0.00    +0.000 A 
ATOM      3  C   UNL     1       1.056  12.801  18.568  0.00  0.00    +0.000 A 
ATOM      4  C   UNL     1      -0.327  12.853  18.427  0.00  0.00    +0.000 A 
ATOM      5  C   UNL     1      -1.100  11.680  18.415  0.00  0.00    +0.000 A 
ATOM      6  C   UNL     1      -0.423  10.444  18.522  0.00  0.00    +0.000 A 
ENDROOT
BRANCH   5   7
ATOM      7  C   UNL     1      -2.590  11.742  18.324  0.00  0.00    +0.000 A 
ATOM      8  C   UNL     1      -3.318  12.176  19.371  0.00  0.00    +0.000 A 
ATOM      9  C   UNL     1      -4.772  12.180  19.332  0.00  0.00    +0.000 A 
ATOM     10  C   UNL     1      -5.548  12.778  20.329  0.00  0.00    +0.000 A 
ATOM     11  C   UNL     1      -6.945  12.675  20.279  0.00  0.00    +0.000 A 
ATOM     12  C   UNL     1      -7.561  11.956  19.254  0.00  0.00    +0.000 A 
ATOM     13  C   UNL     1      -6.789  11.370  18.252  0.00  0.00    +0.000 A 
ATOM     14  C   UNL     1      -5.406  11.514  18.293  0.00  0.00    +0.000 A 
ATOM     15  O   UNL     1      -4.666  11.003  17.218  0.00  0.00    +0.000 OA
ATOM     16  C   UNL     1      -3.313  11.297  17.089  0.00  0.00    +0.000 A 
ATOM     17  O   UNL     1      -2.743  11.140  16.012  0.00  0.00    +0.000 OA
ENDBRANCH   5   7
BRANCH   1  20
ATOM     18  C   UNL     1       1.519   8.345  19.977  0.00  0.00    +0.000 C 
ATOM     19  O   UNL     1       0.909   8.633  21.003  0.00  0.00    +0.000 OA
ATOM     20  N   UNL     1       1.582   9.107  18.823  0.00  0.00    +0.000 N 
ATOM     21  H   UNL     1       1.946   8.681  17.980  0.00  0.00    +0.000 HD
BRANCH  18  25
ATOM     22  C   UNL     1       3.505   4.527  19.637  0.00  0.00    +0.000 A 
ATOM     23  C   UNL     1       3.942   5.668  18.961  0.00  0.00    +0.000 A 
ATOM     24  C   UNL     1       3.288   6.889  19.121  0.00  0.00    +0.000 A 
ATOM     25  C   UNL     1       2.173   7.013  19.958  0.00  0.00    +0.000 A 
ATOM     26  C   UNL     1       1.706   5.894  20.645  0.00  0.00    +0.000 A 
ATOM     27  C   UNL     1       2.381   4.665  20.470  0.00  0.00    +0.000 A 
BRANCH  27  28
ATOM     28  N   UNL     1       1.873   3.520  21.205  0.00  0.00    +0.000 N 
ATOM     29  O   UNL     1       2.399   3.249  22.293  0.00  0.00    +0.000 OA
ATOM     30  O   UNL     1       0.994   2.851  20.644  0.00  0.00    +0.000 OA
ENDBRANCH  27  28
BRANCH  22  31
ATOM     31  O   UNL     1       4.132   3.310  19.534  0.00  0.00    +0.000 OA
BRANCH  31  33
ATOM     32  C   UNL     1       3.355   1.335  18.357  0.00  0.00    +0.000 C 
ATOM     33  C   UNL     1       4.055   2.675  18.251  0.00  0.00    +0.000 C 
ENDBRANCH  31  33
ENDBRANCH  22  31
ENDBRANCH  18  25
ENDBRANCH   1  20
TORSDOF 6
ENDMDL
MODEL 3
REMARK VINA RESULT:      -9.2      3.655     10.590
REMARK  Name = 
REMARK  7 active torsions:
REMARK  status: ('A' for Active; 'I' for Inactive)
REMARK    1  A    between atoms: C_1  and  C_2
REMARK    2  A    between atoms: C_2  and  O_3
REMARK    3  A    between atoms: O_3  and  C_4
REMARK    4  A    between atoms: C_7  and  C_8
REMARK    5  A    between atoms: N_10  and  C_11
REMARK    6  A    between atoms: C_15  and  C_16
REMARK    7  A    between atoms: C_29  and  N_30
REMARK                            x       y       z     vdW  Elec       q    Type
REMARK                         _______ _______ _______ _____ _____    ______ ____
ROOT
ATOM      1  C   UNL     1       0.988  10.235  18.870  0.00  0.00    +0.000 A 
ATOM      2  C   UNL     1       1.750  11.405  18.894  0.00  0.00    +0.000 A 
ATOM      3  C   UNL     1       1.152  12.650  18.731  0.00  0.00    +0.000 A 
ATOM      4  C   UNL     1      -0.222  12.742  18.537  0.00  0.00    +0.000 A 
ATOM      5  C   UNL     1      -1.030  11.593  18.513  0.00  0.00    +0.000 A 
ATOM      6  C   UNL     1      -0.396  10.339  18.663  0.00  0.00    +0.000 A 
ENDROOT
BRANCH   5   7
ATOM      7  C   UNL     1      -2.513  11.700  18.365  0.00  0.00    +0.000 A 
ATOM      8  C   UNL     1      -3.269  12.137  19.390  0.00  0.00    +0.000 A 
ATOM      9  C   UNL     1      -4.720  12.183  19.294  0.00  0.00    +0.000 A 
ATOM     10  C   UNL     1      -5.518  12.786  20.270  0.00  0.00    +0.000 A 
ATOM     11  C   UNL     1      -6.914  12.725  20.163  0.00  0.00    +0.000 A 
ATOM     12  C   UNL     1      -7.509  12.039  19.102  0.00  0.00    +0.000 A 
ATOM     13  C   UNL     1      -6.715  11.449  18.122  0.00  0.00    +0.000 A 
ATOM     14  C   UNL     1      -5.330  11.553  18.220  0.00  0.00    +0.000 A 
ATOM     15  O   UNL     1      -4.563  11.038  17.165  0.00  0.00    +0.000 OA
ATOM     16  C   UNL     1      -3.198  11.296  17.094  0.00  0.00    +0.000 A 
ATOM     17  O   UNL     1      -2.591  11.140  16.038  0.00  0.00    +0.000 OA
ENDBRANCH   5   7
BRANCH   1  20
ATOM     18  C   UNL     1       2.317   8.288  18.110  0.00  0.00    +0.000 C 
ATOM     19  O   UNL     1       2.640   8.726  17.009  0.00  0.00    +0.000 OA
ATOM     20  N   UNL     1       1.553   8.947  19.059  0.00  0.00    +0.000 N 
ATOM     21  H   UNL     1       1.518   8.571  19.998  0.00  0.00    +0.000 HD
BRANCH  18  25
ATOM     22  C   UNL     1       3.861   4.490  19.459  0.00  0.00    +0.000 A 
ATOM     23  C   UNL     1       2.753   5.106  20.046  0.00  0.00    +0.000 A 
ATOM     24  C   UNL     1       2.270   6.320  19.561  0.00  0.00    +0.000 A 
ATOM     25  C   UNL     1       2.876   6.963  18.475  0.00  0.00    +0.000 A 
ATOM     26  C   UNL     1       3.986   6.379  17.868  0.00  0.00    +0.000 A 
ATOM     27  C   UNL     1       4.463   5.149  18.374  0.00  0.00    +0.000 A 
BRANCH  27  28
ATOM     28  N   UNL     1       5.617   4.564  17.715  0.00  0.00    +0.000 N 
ATOM     29  O   UNL     1       5.454   4.070  16.591  0.00  0.00    +0.000 OA
ATOM     30  O   UNL     1       6.670   4.538  18.368  0.00  0.00    +0.000 OA
ENDBRANCH  27  28
BRANCH  22  31
ATOM     31  O   UNL     1       4.357   3.281  19.883  0.00  0.00    +0.000 OA
BRANCH  31  33
ATOM     32  C   UNL     1       3.460   1.667  18.309  0.00  0.00    +0.000 C 
ATOM     33  C   UNL     1       3.474   2.160  19.742  0.00  0.00    +0.000 C 
ENDBRANCH  31  33
ENDBRANCH  22  31
ENDBRANCH  18  25
ENDBRANCH   1  20
TORSDOF 6
ENDMDL
MODEL 4
REMARK VINA RESULT:      -9.1      1.283      1.927
REMARK  Name = 
REMARK  7 active torsions:
REMARK  status: ('A' for Active; 'I' for Inactive)
REMARK    1  A    between atoms: C_1  and  C_2
REMARK    2  A    between atoms: C_2  and  O_3
REMARK    3  A    between atoms: O_3  and  C_4
REMARK    4  A    between atoms: C_7  and  C_8
REMARK    5  A    between atoms: N_10  and  C_11
REMARK    6  A    between atoms: C_15  and  C_16
REMARK    7  A    between atoms: C_29  and  N_30
REMARK                            x       y       z     vdW  Elec       q    Type
REMARK                         _______ _______ _______ _____ _____    ______ ____
ROOT
ATOM      1  C   UNL     1       3.051   5.865  19.528  0.00  0.00    +0.000 A 
ATOM      2  C   UNL     1       3.039   4.641  20.199  0.00  0.00    +0.000 A 
ATOM      3  C   UNL     1       3.709   3.537  19.681  0.00  0.00    +0.000 A 
ATOM      4  C   UNL     1       4.398   3.642  18.477  0.00  0.00    +0.000 A 
ATOM      5  C   UNL     1       4.443   4.855  17.771  0.00  0.00    +0.000 A 
ATOM      6  C   UNL     1       3.740   5.957  18.309  0.00  0.00    +0.000 A 
ENDROOT
BRANCH   5   7
ATOM      7  C   UNL     1       5.233   4.981  16.509  0.00  0.00    +0.000 A 
ATOM      8  C   UNL     1       4.970   4.179  15.460  0.00  0.00    +0.000 A 
ATOM      9  C   UNL     1       5.771   4.234  14.247  0.00  0.00    +0.000 A 
ATOM     10  C   UNL     1       5.422   3.540  13.085  0.00  0.00    +0.000 A 
ATOM     11  C   UNL     1       6.278   3.565  11.975  0.00  0.00    +0.000 A 
ATOM     12  C   UNL     1       7.489   4.257  12.037  0.00  0.00    +0.000 A 
ATOM     13  C   UNL     1       7.832   4.960  13.189  0.00  0.00    +0.000 A 
ATOM     14  C   UNL     1       6.954   4.959  14.269  0.00  0.00    +0.000 A 
ATOM     15  O   UNL     1       7.279   5.758  15.374  0.00  0.00    +0.000 OA
ATOM     16  C   UNL     1       6.352   5.971  16.388  0.00  0.00    +0.000 A 
ATOM     17  O   UNL     1       6.493   6.906  17.173  0.00  0.00    +0.000 OA
ENDBRANCH   5   7
BRANCH   1  20
ATOM     18  C   UNL     1       1.886   8.032  19.240  0.00  0.00    +0.000 C 
ATOM     19  O   UNL     1       1.876   8.054  18.012  0.00  0.00    +0.000 OA
ATOM     20  N   UNL     1       2.405   7.023  20.034  0.00  0.00    +0.000 N 
ATOM     21  H   UNL     1       2.181   7.021  21.021  0.00  0.00    +0.000 HD
BRANCH  18  25
ATOM     22  C   UNL     1       0.071  11.497  21.065  0.00  0.00    +0.000 A 
ATOM     23  C   UNL     1       0.606  11.516  19.775  0.00  0.00    +0.000 A 
ATOM     24  C   UNL     1       1.157  10.367  19.213  0.00  0.00    +0.000 A 
ATOM     25  C   UNL     1       1.198   9.158  19.919  0.00  0.00    +0.000 A 
ATOM     26  C   UNL     1       0.678   9.104  21.210  0.00  0.00    +0.000 A 
ATOM     27  C   UNL     1       0.123  10.279  21.765  0.00  0.00    +0.000 A 
BRANCH  27  28
ATOM     28  N   UNL     1      -0.416  10.186  23.110  0.00  0.00    +0.000 N 
ATOM     29  O   UNL     1      -1.543  10.655  23.316  0.00  0.00    +0.000 OA
ATOM     30  O   UNL     1       0.335   9.707  23.972  0.00  0.00    +0.000 OA
ENDBRANCH  27  28
BRANCH  22  31
ATOM     31  O   UNL     1      -0.509  12.595  21.652  0.00  0.00    +0.000 OA
BRANCH  31  33
ATOM     32  C   UNL     1      -0.738  14.835  20.748  0.00  0.00    +0.000 C 
ATOM     33  C   UNL     1       0.169  13.842  21.447  0.00  0.00    +0.000 C 
ENDBRANCH  31  33
ENDBRANCH  22  31
ENDBRANCH  18  25
ENDBRANCH   1  20
TORSDOF 6
ENDMDL
MODEL 5
REMARK VINA RESULT:      -9.1      3.542     10.615
REMARK  Name = 
REMARK  7 active torsions:
REMARK  status: ('A' for Active; 'I' for Inactive)
REMARK    1  A    between atoms: C_1  and  C_2
REMARK    2  A    between atoms: C_2  and  O_3
REMARK    3  A    between atoms: O_3  and  C_4
REMARK    4  A    between atoms: C_7  and  C_8
REMARK    5  A    between atoms: N_10  and  C_11
REMARK    6  A    between atoms: C_15  and  C_16
REMARK    7  A    between atoms: C_29  and  N_30
REMARK                            x       y       z     vdW  Elec       q    Type
REMARK                         _______ _______ _______ _____ _____    ______ ____
ROOT
ATOM      1  C   UNL     1       1.143  10.053  18.078  0.00  0.00    +0.000 A 
ATOM      2  C   UNL     1       1.893  11.172  18.447  0.00  0.00    +0.000 A 
ATOM      3  C   UNL     1       1.275  12.391  18.706  0.00  0.00    +0.000 A 
ATOM      4  C   UNL     1      -0.107  12.510  18.593  0.00  0.00    +0.000 A 
ATOM      5  C   UNL     1      -0.902  11.409  18.231  0.00  0.00    +0.000 A 
ATOM      6  C   UNL     1      -0.249  10.187  17.957  0.00  0.00    +0.000 A 
ENDROOT
BRANCH   5   7
ATOM      7  C   UNL     1      -2.391  11.525  18.170  0.00  0.00    +0.000 A 
ATOM      8  C   UNL     1      -3.086  11.930  19.250  0.00  0.00    +0.000 A 
ATOM      9  C   UNL     1      -4.540  11.982  19.237  0.00  0.00    +0.000 A 
ATOM     10  C   UNL     1      -5.279  12.555  20.274  0.00  0.00    +0.000 A 
ATOM     11  C   UNL     1      -6.680  12.501  20.245  0.00  0.00    +0.000 A 
ATOM     12  C   UNL     1      -7.336  11.853  19.197  0.00  0.00    +0.000 A 
ATOM     13  C   UNL     1      -6.600  11.293  18.154  0.00  0.00    +0.000 A 
ATOM     14  C   UNL     1      -5.212  11.390  18.178  0.00  0.00    +0.000 A 
ATOM     15  O   UNL     1      -4.507  10.908  17.066  0.00  0.00    +0.000 OA
ATOM     16  C   UNL     1      -3.147  11.165  16.927  0.00  0.00    +0.000 A 
ATOM     17  O   UNL     1      -2.600  11.043  15.834  0.00  0.00    +0.000 OA
ENDBRANCH   5   7
BRANCH   1  20
ATOM     18  C   UNL     1       2.072   7.881  18.823  0.00  0.00    +0.000 C 
ATOM     19  O   UNL     1       1.888   8.026  20.028  0.00  0.00    +0.000 OA
ATOM     20  N   UNL     1       1.729   8.784  17.831  0.00  0.00    +0.000 N 
ATOM     21  H   UNL     1       1.748   8.475  16.867  0.00  0.00    +0.000 HD
BRANCH  18  25
ATOM     22  C   UNL     1       3.481   3.948  17.738  0.00  0.00    +0.000 A 
ATOM     23  C   UNL     1       2.126   4.249  17.891  0.00  0.00    +0.000 A 
ATOM     24  C   UNL     1       1.712   5.540  18.214  0.00  0.00    +0.000 A 
ATOM     25  C   UNL     1       2.636   6.575  18.401  0.00  0.00    +0.000 A 
ATOM     26  C   UNL     1       3.997   6.310  18.261  0.00  0.00    +0.000 A 
ATOM     27  C   UNL     1       4.398   4.995  17.934  0.00  0.00    +0.000 A 
BRANCH  27  28
ATOM     28  N   UNL     1       5.823   4.754  17.790  0.00  0.00    +0.000 N 
ATOM     29  O   UNL     1       6.464   4.451  18.804  0.00  0.00    +0.000 OA
ATOM     30  O   UNL     1       6.304   4.947  16.664  0.00  0.00    +0.000 OA
ENDBRANCH  27  28
BRANCH  22  31
ATOM     31  O   UNL     1       3.937   2.699  17.393  0.00  0.00    +0.000 OA
BRANCH  31  33
ATOM     32  C   UNL     1       4.170   1.873  19.662  0.00  0.00    +0.000 C 
ATOM     33  C   UNL     1       3.580   1.636  18.286  0.00  0.00    +0.000 C 
ENDBRANCH  31  33
ENDBRANCH  22  31
ENDBRANCH  18  25
ENDBRANCH   1  20
TORSDOF 6
ENDMDL
MODEL 6
REMARK VINA RESULT:      -9.0      3.871     10.431
REMARK  Name = 
REMARK  7 active torsions:
REMARK  status: ('A' for Active; 'I' for Inactive)
REMARK    1  A    between atoms: C_1  and  C_2
REMARK    2  A    between atoms: C_2  and  O_3
REMARK    3  A    between atoms: O_3  and  C_4
REMARK    4  A    between atoms: C_7  and  C_8
REMARK    5  A    between atoms: N_10  and  C_11
REMARK    6  A    between atoms: C_15  and  C_16
REMARK    7  A    between atoms: C_29  and  N_30
REMARK                            x       y       z     vdW  Elec       q    Type
REMARK                         _______ _______ _______ _____ _____    ______ ____
ROOT
ATOM      1  C   UNL     1       1.066  10.036  18.589  0.00  0.00    +0.000 A 
ATOM      2  C   UNL     1       1.847  11.189  18.695  0.00  0.00    +0.000 A 
ATOM      3  C   UNL     1       1.265  12.452  18.641  0.00  0.00    +0.000 A 
ATOM      4  C   UNL     1      -0.111  12.578  18.475  0.00  0.00    +0.000 A 
ATOM      5  C   UNL     1      -0.936  11.446  18.372  0.00  0.00    +0.000 A 
ATOM      6  C   UNL     1      -0.318  10.175  18.412  0.00  0.00    +0.000 A 
ENDROOT
BRANCH   5   7
ATOM      7  C   UNL     1      -2.419  11.584  18.254  0.00  0.00    +0.000 A 
ATOM      8  C   UNL     1      -3.145  12.029  19.298  0.00  0.00    +0.000 A 
ATOM      9  C   UNL     1      -4.596  12.106  19.232  0.00  0.00    +0.000 A 
ATOM     10  C   UNL     1      -5.361  12.719  20.228  0.00  0.00    +0.000 A 
ATOM     11  C   UNL     1      -6.760  12.687  20.150  0.00  0.00    +0.000 A 
ATOM     12  C   UNL     1      -7.390  12.023  19.097  0.00  0.00    +0.000 A 
ATOM     13  C   UNL     1      -6.629  11.423  18.096  0.00  0.00    +0.000 A 
ATOM     14  C   UNL     1      -5.241  11.497  18.166  0.00  0.00    +0.000 A 
ATOM     15  O   UNL     1      -4.506  10.975  17.092  0.00  0.00    +0.000 OA
ATOM     16  C   UNL     1      -3.138  11.204  16.995  0.00  0.00    +0.000 A 
ATOM     17  O   UNL     1      -2.555  11.044  15.926  0.00  0.00    +0.000 OA
ENDBRANCH   5   7
BRANCH   1  20
ATOM     18  C   UNL     1       1.799   8.032  19.849  0.00  0.00    +0.000 C 
ATOM     19  O   UNL     1       1.487   8.418  20.972  0.00  0.00    +0.000 OA
ATOM     20  N   UNL     1       1.615   8.729  18.666  0.00  0.00    +0.000 N 
ATOM     21  H   UNL     1       1.728   8.233  17.790  0.00  0.00    +0.000 HD
BRANCH  18  25
ATOM     22  C   UNL     1       3.288   3.981  19.873  0.00  0.00    +0.000 A 
ATOM     23  C   UNL     1       2.159   4.374  20.594  0.00  0.00    +0.000 A 
ATOM     24  C   UNL     1       1.694   5.687  20.536  0.00  0.00    +0.000 A 
ATOM     25  C   UNL     1       2.343   6.655  19.759  0.00  0.00    +0.000 A 
ATOM     26  C   UNL     1       3.477   6.299  19.030  0.00  0.00    +0.000 A 
ATOM     27  C   UNL     1       3.933   4.963  19.102  0.00  0.00    +0.000 A 
BRANCH  27  28
ATOM     28  N   UNL     1       5.112   4.624  18.326  0.00  0.00    +0.000 N 
ATOM     29  O   UNL     1       4.969   4.420  17.113  0.00  0.00    +0.000 OA
ATOM     30  O   UNL     1       6.169   4.489  18.960  0.00  0.00    +0.000 OA
ENDBRANCH  27  28
BRANCH  22  31
ATOM     31  O   UNL     1       3.767   2.694  19.876  0.00  0.00    +0.000 OA
BRANCH  31  33
ATOM     32  C   UNL     1       1.984   2.290  18.281  0.00  0.00    +0.000 C 
ATOM     33  C   UNL     1       3.354   1.872  18.776  0.00  0.00    +0.000 C 
ENDBRANCH  31  33
ENDBRANCH  22  31
ENDBRANCH  18  25
ENDBRANCH   1  20
TORSDOF 6
ENDMDL
MODEL 7
REMARK VINA RESULT:      -8.9      1.187      1.890
REMARK  Name = 
REMARK  7 active torsions:
REMARK  status: ('A' for Active; 'I' for Inactive)
REMARK    1  A    between atoms: C_1  and  C_2
REMARK    2  A    between atoms: C_2  and  O_3
REMARK    3  A    between atoms: O_3  and  C_4
REMARK    4  A    between atoms: C_7  and  C_8
REMARK    5  A    between atoms: N_10  and  C_11
REMARK    6  A    between atoms: C_15  and  C_16
REMARK    7  A    between atoms: C_29  and  N_30
REMARK                            x       y       z     vdW  Elec       q    Type
REMARK                         _______ _______ _______ _____ _____    ______ ____
ROOT
ATOM      1  C   UNL     1       3.039   5.871  19.322  0.00  0.00    +0.000 A 
ATOM      2  C   UNL     1       3.273   4.777  20.158  0.00  0.00    +0.000 A 
ATOM      3  C   UNL     1       4.150   3.766  19.779  0.00  0.00    +0.000 A 
ATOM      4  C   UNL     1       4.803   3.833  18.552  0.00  0.00    +0.000 A 
ATOM      5  C   UNL     1       4.603   4.918  17.683  0.00  0.00    +0.000 A 
ATOM      6  C   UNL     1       3.694   5.924  18.083  0.00  0.00    +0.000 A 
ENDROOT
BRANCH   5   7
ATOM      7  C   UNL     1       5.351   5.017  16.393  0.00  0.00    +0.000 A 
ATOM      8  C   UNL     1       5.067   4.180  15.376  0.00  0.00    +0.000 A 
ATOM      9  C   UNL     1       5.828   4.211  14.137  0.00  0.00    +0.000 A 
ATOM     10  C   UNL     1       5.452   3.478  13.008  0.00  0.00    +0.000 A 
ATOM     11  C   UNL     1       6.272   3.482  11.871  0.00  0.00    +0.000 A 
ATOM     12  C   UNL     1       7.474   4.192  11.873  0.00  0.00    +0.000 A 
ATOM     13  C   UNL     1       7.843   4.933  12.993  0.00  0.00    +0.000 A 
ATOM     14  C   UNL     1       6.999   4.952  14.100  0.00  0.00    +0.000 A 
ATOM     15  O   UNL     1       7.348   5.788  15.170  0.00  0.00    +0.000 OA
ATOM     16  C   UNL     1       6.450   6.019  16.207  0.00  0.00    +0.000 A 
ATOM     17  O   UNL     1       6.603   6.978  16.959  0.00  0.00    +0.000 OA
ENDBRANCH   5   7
BRANCH   1  20
ATOM     18  C   UNL     1       2.052   8.115  18.961  0.00  0.00    +0.000 C 
ATOM     19  O   UNL     1       2.632   8.385  17.913  0.00  0.00    +0.000 OA
ATOM     20  N   UNL     1       2.173   6.938  19.681  0.00  0.00    +0.000 N 
ATOM     21  H   UNL     1       1.503   6.749  20.416  0.00  0.00    +0.000 HD
BRANCH  18  25
ATOM     22  C   UNL     1      -0.725  11.207  20.123  0.00  0.00    +0.000 A 
ATOM     23  C   UNL     1      -0.386  10.959  18.791  0.00  0.00    +0.000 A 
ATOM     24  C   UNL     1       0.494   9.931  18.457  0.00  0.00    +0.000 A 
ATOM     25  C   UNL     1       1.069   9.117  19.441  0.00  0.00    +0.000 A 
ATOM     26  C   UNL     1       0.757   9.340  20.780  0.00  0.00    +0.000 A 
ATOM     27  C   UNL     1      -0.137  10.386  21.100  0.00  0.00    +0.000 A 
BRANCH  27  28
ATOM     28  N   UNL     1      -0.446  10.587  22.505  0.00  0.00    +0.000 N 
ATOM     29  O   UNL     1      -0.322  11.729  22.968  0.00  0.00    +0.000 OA
ATOM     30  O   UNL     1      -0.740   9.574  23.155  0.00  0.00    +0.000 OA
ENDBRANCH  27  28
BRANCH  22  31
ATOM     31  O   UNL     1      -1.609  12.189  20.500  0.00  0.00    +0.000 OA
BRANCH  31  33
ATOM     32  C   UNL     1      -3.964  12.764  20.396  0.00  0.00    +0.000 C 
ATOM     33  C   UNL     1      -2.715  12.407  19.614  0.00  0.00    +0.000 C 
ENDBRANCH  31  33
ENDBRANCH  22  31
ENDBRANCH  18  25
ENDBRANCH   1  20
TORSDOF 6
ENDMDL
MODEL 8
REMARK VINA RESULT:      -8.9      1.191      1.771
REMARK  Name = 
REMARK  7 active torsions:
REMARK  status: ('A' for Active; 'I' for Inactive)
REMARK    1  A    between atoms: C_1  and  C_2
REMARK    2  A    between atoms: C_2  and  O_3
REMARK    3  A    between atoms: O_3  and  C_4
REMARK    4  A    between atoms: C_7  and  C_8
REMARK    5  A    between atoms: N_10  and  C_11
REMARK    6  A    between atoms: C_15  and  C_16
REMARK    7  A    between atoms: C_29  and  N_30
REMARK                            x       y       z     vdW  Elec       q    Type
REMARK                         _______ _______ _______ _____ _____    ______ ____
ROOT
ATOM      1  C   UNL     1       2.740   6.468  19.326  0.00  0.00    +0.000 A 
ATOM      2  C   UNL     1       2.861   5.406  20.225  0.00  0.00    +0.000 A 
ATOM      3  C   UNL     1       3.684   4.321  19.940  0.00  0.00    +0.000 A 
ATOM      4  C   UNL     1       4.395   4.281  18.745  0.00  0.00    +0.000 A 
ATOM      5  C   UNL     1       4.310   5.330  17.815  0.00  0.00    +0.000 A 
ATOM      6  C   UNL     1       3.454   6.413  18.120  0.00  0.00    +0.000 A 
ENDROOT
BRANCH   5   7
ATOM      7  C   UNL     1       5.122   5.313  16.561  0.00  0.00    +0.000 A 
ATOM      8  C   UNL     1       4.803   4.474  15.556  0.00  0.00    +0.000 A 
ATOM      9  C   UNL     1       5.619   4.389  14.355  0.00  0.00    +0.000 A 
ATOM     10  C   UNL     1       5.225   3.658  13.231  0.00  0.00    +0.000 A 
ATOM     11  C   UNL     1       6.091   3.545  12.135  0.00  0.00    +0.000 A 
ATOM     12  C   UNL     1       7.356   4.134  12.175  0.00  0.00    +0.000 A 
ATOM     13  C   UNL     1       7.745   4.874  13.289  0.00  0.00    +0.000 A 
ATOM     14  C   UNL     1       6.858   5.012  14.353  0.00  0.00    +0.000 A 
ATOM     15  O   UNL     1       7.238   5.846  15.414  0.00  0.00    +0.000 OA
ATOM     16  C   UNL     1       6.321   6.197  16.399  0.00  0.00    +0.000 A 
ATOM     17  O   UNL     1       6.533   7.161  17.129  0.00  0.00    +0.000 OA
ENDBRANCH   5   7
BRANCH   1  20
ATOM     18  C   UNL     1       1.685   8.611  18.669  0.00  0.00    +0.000 C 
ATOM     19  O   UNL     1       2.086   8.645  17.509  0.00  0.00    +0.000 OA
ATOM     20  N   UNL     1       1.933   7.606  19.589  0.00  0.00    +0.000 N 
ATOM     21  H   UNL     1       1.392   7.590  20.445  0.00  0.00    +0.000 HD
BRANCH  18  25
ATOM     22  C   UNL     1      -0.955  11.903  19.575  0.00  0.00    +0.000 A 
ATOM     23  C   UNL     1      -1.013  11.198  18.370  0.00  0.00    +0.000 A 
ATOM     24  C   UNL     1      -0.160  10.122  18.130  0.00  0.00    +0.000 A 
ATOM     25  C   UNL     1       0.783   9.715  19.081  0.00  0.00    +0.000 A 
ATOM     26  C   UNL     1       0.872  10.398  20.292  0.00  0.00    +0.000 A 
ATOM     27  C   UNL     1      -0.000  11.487  20.518  0.00  0.00    +0.000 A 
BRANCH  27  28
ATOM     28  N   UNL     1       0.114  12.173  21.792  0.00  0.00    +0.000 N 
ATOM     29  O   UNL     1      -0.431  11.660  22.778  0.00  0.00    +0.000 OA
ATOM     30  O   UNL     1       0.691  13.270  21.777  0.00  0.00    +0.000 OA
ENDBRANCH  27  28
BRANCH  22  31
ATOM     31  O   UNL     1      -1.793  12.951  19.870  0.00  0.00    +0.000 OA
BRANCH  31  33
ATOM     32  C   UNL     1      -3.851  13.599  20.979  0.00  0.00    +0.000 C 
ATOM     33  C   UNL     1      -3.175  12.614  20.045  0.00  0.00    +0.000 C 
ENDBRANCH  31  33
ENDBRANCH  22  31
ENDBRANCH  18  25
ENDBRANCH   1  20
TORSDOF 6
ENDMDL
MODEL 9
REMARK VINA RESULT:      -8.8      3.114     10.708
REMARK  Name = 
REMARK  7 active torsions:
REMARK  status: ('A' for Active; 'I' for Inactive)
REMARK    1  A    between atoms: C_1  and  C_2
REMARK    2  A    between atoms: C_2  and  O_3
REMARK    3  A    between atoms: O_3  and  C_4
REMARK    4  A    between atoms: C_7  and  C_8
REMARK    5  A    between atoms: N_10  and  C_11
REMARK    6  A    between atoms: C_15  and  C_16
REMARK    7  A    between atoms: C_29  and  N_30
REMARK                            x       y       z     vdW  Elec       q    Type
REMARK                         _______ _______ _______ _____ _____    ______ ____
ROOT
ATOM      1  C   UNL     1       1.404  10.754  18.288  0.00  0.00    +0.000 A 
ATOM      2  C   UNL     1       2.111  11.956  18.352  0.00  0.00    +0.000 A 
ATOM      3  C   UNL     1       1.470  13.145  18.688  0.00  0.00    +0.000 A 
ATOM      4  C   UNL     1       0.106  13.146  18.962  0.00  0.00    +0.000 A 
ATOM      5  C   UNL     1      -0.644  11.959  18.917  0.00  0.00    +0.000 A 
ATOM      6  C   UNL     1       0.027  10.769  18.556  0.00  0.00    +0.000 A 
ENDROOT
BRANCH   5   7
ATOM      7  C   UNL     1      -2.096  11.954  19.271  0.00  0.00    +0.000 A 
ATOM      8  C   UNL     1      -3.021  11.650  18.340  0.00  0.00    +0.000 A 
ATOM      9  C   UNL     1      -4.443  11.706  18.641  0.00  0.00    +0.000 A 
ATOM     10  C   UNL     1      -5.417  11.236  17.756  0.00  0.00    +0.000 A 
ATOM     11  C   UNL     1      -6.774  11.394  18.065  0.00  0.00    +0.000 A 
ATOM     12  C   UNL     1      -7.156  12.045  19.240  0.00  0.00    +0.000 A 
ATOM     13  C   UNL     1      -6.187  12.502  20.130  0.00  0.00    +0.000 A 
ATOM     14  C   UNL     1      -4.843  12.302  19.828  0.00  0.00    +0.000 A 
ATOM     15  O   UNL     1      -3.897  12.681  20.790  0.00  0.00    +0.000 OA
ATOM     16  C   UNL     1      -2.562  12.317  20.649  0.00  0.00    +0.000 A 
ATOM     17  O   UNL     1      -1.803  12.350  21.614  0.00  0.00    +0.000 OA
ENDBRANCH   5   7
BRANCH   1  20
ATOM     18  C   UNL     1       2.100   8.443  18.848  0.00  0.00    +0.000 C 
ATOM     19  O   UNL     1       1.622   8.394  19.978  0.00  0.00    +0.000 OA
ATOM     20  N   UNL     1       2.024   9.516  17.976  0.00  0.00    +0.000 N 
ATOM     21  H   UNL     1       2.281   9.370  17.007  0.00  0.00    +0.000 HD
BRANCH  18  25
ATOM     22  C   UNL     1       4.044   4.976  17.167  0.00  0.00    +0.000 A 
ATOM     23  C   UNL     1       4.478   6.280  16.918  0.00  0.00    +0.000 A 
ATOM     24  C   UNL     1       3.839   7.371  17.505  0.00  0.00    +0.000 A 
ATOM     25  C   UNL     1       2.741   7.199  18.356  0.00  0.00    +0.000 A 
ATOM     26  C   UNL     1       2.277   5.912  18.623  0.00  0.00    +0.000 A 
ATOM     27  C   UNL     1       2.937   4.818  18.019  0.00  0.00    +0.000 A 
BRANCH  27  28
ATOM     28  N   UNL     1       2.433   3.491  18.322  0.00  0.00    +0.000 N 
ATOM     29  O   UNL     1       1.487   3.063  17.647  0.00  0.00    +0.000 OA
ATOM     30  O   UNL     1       2.944   2.915  19.293  0.00  0.00    +0.000 OA
ENDBRANCH  27  28
BRANCH  22  31
ATOM     31  O   UNL     1       4.657   3.868  16.635  0.00  0.00    +0.000 OA
BRANCH  31  33
ATOM     32  C   UNL     1       6.044   3.895  14.644  0.00  0.00    +0.000 C 
ATOM     33  C   UNL     1       5.992   4.067  16.149  0.00  0.00    +0.000 C 
ENDBRANCH  31  33
ENDBRANCH  22  31
ENDBRANCH  18  25
ENDBRANCH   1  20
TORSDOF 6
ENDMDL
