MODEL 1
REMARK VINA RESULT:      -8.2      0.000      0.000
REMARK  Name = 
REMARK  3 active torsions:
REMARK  status: ('A' for Active; 'I' for Inactive)
REMARK    1  A    between atoms: C_2  and  C_11
REMARK    2  A    between atoms: N_3  and  C_4
REMARK    3  A    between atoms: C_16  and  C_17
REMARK                            x       y       z     vdW  Elec       q    Type
REMARK                         _______ _______ _______ _____ _____    ______ ____
ROOT
ATOM      1  C   UNL     1       5.280   4.472  15.635  0.00  0.00    +0.000 A 
ATOM      2  C   UNL     1       4.815   3.834  14.464  0.00  0.00    +0.000 A 
ATOM      3  C   UNL     1       5.614   3.754  13.330  0.00  0.00    +0.000 A 
ATOM      4  C   UNL     1       6.884   4.311  13.349  0.00  0.00    +0.000 A 
ATOM      5  C   UNL     1       7.356   4.935  14.510  0.00  0.00    +0.000 A 
ATOM      6  C   UNL     1       6.578   5.046  15.688  0.00  0.00    +0.000 A 
ENDROOT
BRANCH   6   7
ATOM      7  C   UNL     1       7.172   5.739  16.872  0.00  0.00    +0.000 A 
ATOM      8  C   UNL     1       7.538   5.015  18.028  0.00  0.00    +0.000 A 
ATOM      9  C   UNL     1       8.082   5.642  19.157  0.00  0.00    +0.000 A 
ATOM     10  C   UNL     1       8.303   7.013  19.151  0.00  0.00    +0.000 A 
ATOM     11  C   UNL     1       7.952   7.756  18.029  0.00  0.00    +0.000 A 
ATOM     12  C   UNL     1       7.373   7.130  16.917  0.00  0.00    +0.000 A 
ENDBRANCH   6   7
BRANCH   1  14
ATOM     13  O   UNL     1       3.955   5.702  17.120  0.00  0.00    +0.000 OA
ATOM     14  C   UNL     1       4.295   4.584  16.751  0.00  0.00    +0.000 C 
ATOM     15  N   UNL     1       3.844   3.371  17.254  0.00  0.00    +0.000 N 
ATOM     16  H   UNL     1       4.234   2.529  16.850  0.00  0.00    +0.000 HD
BRANCH  15  17
ATOM     17  C   UNL     1       2.948   3.183  18.331  0.00  0.00    +0.000 A 
ATOM     18  C   UNL     1       1.565   3.358  18.232  0.00  0.00    +0.000 A 
ATOM     19  C   UNL     1       0.737   3.214  19.351  0.00  0.00    +0.000 A 
ATOM     20  C   UNL     1       1.284   2.877  20.584  0.00  0.00    +0.000 A 
ATOM     21  C   UNL     1       2.654   2.673  20.682  0.00  0.00    +0.000 A 
ATOM     22  F   UNL     1       3.186   2.341  21.865  0.00  0.00    +0.000 F 
ATOM     23  C   UNL     1       3.487   2.816  19.571  0.00  0.00    +0.000 A 
ENDBRANCH  15  17
ENDBRANCH   1  14
TORSDOF 3
ENDMDL
MODEL 2
REMARK VINA RESULT:      -8.2      0.032      1.023
REMARK  Name = 
REMARK  3 active torsions:
REMARK  status: ('A' for Active; 'I' for Inactive)
REMARK    1  A    between atoms: C_2  and  C_11
REMARK    2  A    between atoms: N_3  and  C_4
REMARK    3  A    between atoms: C_16  and  C_17
REMARK                            x       y       z     vdW  Elec       q    Type
REMARK                         _______ _______ _______ _____ _____    ______ ____
ROOT
ATOM      1  C   UNL     1       5.272   4.458  15.645  0.00  0.00    +0.000 A 
ATOM      2  C   UNL     1       4.807   3.828  14.470  0.00  0.00    +0.000 A 
ATOM      3  C   UNL     1       5.608   3.751  13.336  0.00  0.00    +0.000 A 
ATOM      4  C   UNL     1       6.879   4.305  13.362  0.00  0.00    +0.000 A 
ATOM      5  C   UNL     1       7.351   4.921  14.526  0.00  0.00    +0.000 A 
ATOM      6  C   UNL     1       6.571   5.028  15.704  0.00  0.00    +0.000 A 
ENDROOT
BRANCH   6   7
ATOM      7  C   UNL     1       7.164   5.712  16.892  0.00  0.00    +0.000 A 
ATOM      8  C   UNL     1       7.368   7.110  16.898  0.00  0.00    +0.000 A 
ATOM      9  C   UNL     1       7.937   7.775  17.992  0.00  0.00    +0.000 A 
ATOM     10  C   UNL     1       8.293   7.062  19.129  0.00  0.00    +0.000 A 
ATOM     11  C   UNL     1       8.107   5.683  19.157  0.00  0.00    +0.000 A 
ATOM     12  C   UNL     1       7.573   5.018  18.045  0.00  0.00    +0.000 A 
ENDBRANCH   6   7
BRANCH   1  14
ATOM     13  O   UNL     1       3.946   5.684  17.133  0.00  0.00    +0.000 OA
ATOM     14  C   UNL     1       4.284   4.568  16.759  0.00  0.00    +0.000 C 
ATOM     15  N   UNL     1       3.830   3.354  17.256  0.00  0.00    +0.000 N 
ATOM     16  H   UNL     1       4.218   2.512  16.848  0.00  0.00    +0.000 HD
BRANCH  15  17
ATOM     17  C   UNL     1       2.931   3.162  18.330  0.00  0.00    +0.000 A 
ATOM     18  C   UNL     1       1.545   3.315  18.222  0.00  0.00    +0.000 A 
ATOM     19  C   UNL     1       0.714   3.169  19.338  0.00  0.00    +0.000 A 
ATOM     20  C   UNL     1       1.259   2.853  20.577  0.00  0.00    +0.000 A 
ATOM     21  C   UNL     1       2.632   2.671  20.685  0.00  0.00    +0.000 A 
ATOM     22  F   UNL     1       3.163   2.360  21.873  0.00  0.00    +0.000 F 
ATOM     23  C   UNL     1       3.468   2.816  19.576  0.00  0.00    +0.000 A 
ENDBRANCH  15  17
ENDBRANCH   1  14
TORSDOF 3
ENDMDL
MODEL 3
REMARK VINA RESULT:      -8.1      0.993      1.410
REMARK  Name = 
REMARK  3 active torsions:
REMARK  status: ('A' for Active; 'I' for Inactive)
REMARK    1  A    between atoms: C_2  and  C_11
REMARK    2  A    between atoms: N_3  and  C_4
REMARK    3  A    between atoms: C_16  and  C_17
REMARK                            x       y       z     vdW  Elec       q    Type
REMARK                         _______ _______ _______ _____ _____    ______ ____
ROOT
ATOM      1  C   UNL     1       5.456   4.408  15.548  0.00  0.00    +0.000 A 
ATOM      2  C   UNL     1       5.036   3.759  14.365  0.00  0.00    +0.000 A 
ATOM      3  C   UNL     1       5.842   3.749  13.232  0.00  0.00    +0.000 A 
ATOM      4  C   UNL     1       7.072   4.388  13.265  0.00  0.00    +0.000 A 
ATOM      5  C   UNL     1       7.500   5.023  14.437  0.00  0.00    +0.000 A 
ATOM      6  C   UNL     1       6.713   5.064  15.614  0.00  0.00    +0.000 A 
ENDROOT
BRANCH   6   7
ATOM      7  C   UNL     1       7.258   5.775  16.810  0.00  0.00    +0.000 A 
ATOM      8  C   UNL     1       7.592   5.066  17.986  0.00  0.00    +0.000 A 
ATOM      9  C   UNL     1       8.089   5.710  19.127  0.00  0.00    +0.000 A 
ATOM     10  C   UNL     1       8.295   7.083  19.115  0.00  0.00    +0.000 A 
ATOM     11  C   UNL     1       7.974   7.812  17.974  0.00  0.00    +0.000 A 
ATOM     12  C   UNL     1       7.441   7.168  16.849  0.00  0.00    +0.000 A 
ENDBRANCH   6   7
BRANCH   1  14
ATOM     13  O   UNL     1       3.850   5.479  16.870  0.00  0.00    +0.000 OA
ATOM     14  C   UNL     1       4.462   4.438  16.661  0.00  0.00    +0.000 C 
ATOM     15  N   UNL     1       4.324   3.242  17.351  0.00  0.00    +0.000 N 
ATOM     16  H   UNL     1       4.916   2.472  17.066  0.00  0.00    +0.000 HD
BRANCH  15  17
ATOM     17  C   UNL     1       3.493   3.001  18.469  0.00  0.00    +0.000 A 
ATOM     18  C   UNL     1       3.960   2.932  19.785  0.00  0.00    +0.000 A 
ATOM     19  C   UNL     1       3.094   2.630  20.843  0.00  0.00    +0.000 A 
ATOM     20  C   UNL     1       1.744   2.409  20.598  0.00  0.00    +0.000 A 
ATOM     21  C   UNL     1       1.269   2.505  19.296  0.00  0.00    +0.000 A 
ATOM     22  F   UNL     1      -0.031   2.299  19.053  0.00  0.00    +0.000 F 
ATOM     23  C   UNL     1       2.126   2.803  18.235  0.00  0.00    +0.000 A 
ENDBRANCH  15  17
ENDBRANCH   1  14
TORSDOF 3
ENDMDL
MODEL 4
REMARK VINA RESULT:      -7.9      0.967      1.734
REMARK  Name = 
REMARK  3 active torsions:
REMARK  status: ('A' for Active; 'I' for Inactive)
REMARK    1  A    between atoms: C_2  and  C_11
REMARK    2  A    between atoms: N_3  and  C_4
REMARK    3  A    between atoms: C_16  and  C_17
REMARK                            x       y       z     vdW  Elec       q    Type
REMARK                         _______ _______ _______ _____ _____    ______ ____
ROOT
ATOM      1  C   UNL     1       5.311   4.369  15.635  0.00  0.00    +0.000 A 
ATOM      2  C   UNL     1       4.862   3.677  14.487  0.00  0.00    +0.000 A 
ATOM      3  C   UNL     1       5.620   3.660  13.322  0.00  0.00    +0.000 A 
ATOM      4  C   UNL     1       6.831   4.334  13.287  0.00  0.00    +0.000 A 
ATOM      5  C   UNL     1       7.288   5.012  14.424  0.00  0.00    +0.000 A 
ATOM      6  C   UNL     1       6.550   5.062  15.631  0.00  0.00    +0.000 A 
ENDROOT
BRANCH   6   7
ATOM      7  C   UNL     1       7.122   5.819  16.785  0.00  0.00    +0.000 A 
ATOM      8  C   UNL     1       7.287   7.221  16.723  0.00  0.00    +0.000 A 
ATOM      9  C   UNL     1       7.835   7.954  17.784  0.00  0.00    +0.000 A 
ATOM     10  C   UNL     1       8.208   7.307  18.954  0.00  0.00    +0.000 A 
ATOM     11  C   UNL     1       8.061   5.927  19.049  0.00  0.00    +0.000 A 
ATOM     12  C   UNL     1       7.548   5.194  17.971  0.00  0.00    +0.000 A 
ENDBRANCH   6   7
BRANCH   1  14
ATOM     13  O   UNL     1       3.748   5.436  17.010  0.00  0.00    +0.000 OA
ATOM     14  C   UNL     1       4.363   4.401  16.788  0.00  0.00    +0.000 C 
ATOM     15  N   UNL     1       4.269   3.210  17.496  0.00  0.00    +0.000 N 
ATOM     16  H   UNL     1       4.857   2.444  17.195  0.00  0.00    +0.000 HD
BRANCH  15  17
ATOM     17  C   UNL     1       3.487   2.972  18.650  0.00  0.00    +0.000 A 
ATOM     18  C   UNL     1       4.022   2.797  19.929  0.00  0.00    +0.000 A 
ATOM     19  C   UNL     1       3.198   2.505  21.022  0.00  0.00    +0.000 A 
ATOM     20  C   UNL     1       1.822   2.400  20.850  0.00  0.00    +0.000 A 
ATOM     21  C   UNL     1       1.282   2.602  19.586  0.00  0.00    +0.000 A 
ATOM     22  F   UNL     1      -0.042   2.508  19.415  0.00  0.00    +0.000 F 
ATOM     23  C   UNL     1       2.097   2.892  18.491  0.00  0.00    +0.000 A 
ENDBRANCH  15  17
ENDBRANCH   1  14
TORSDOF 3
ENDMDL
MODEL 5
REMARK VINA RESULT:      -7.8      4.648      6.383
REMARK  Name = 
REMARK  3 active torsions:
REMARK  status: ('A' for Active; 'I' for Inactive)
REMARK    1  A    between atoms: C_2  and  C_11
REMARK    2  A    between atoms: N_3  and  C_4
REMARK    3  A    between atoms: C_16  and  C_17
REMARK                            x       y       z     vdW  Elec       q    Type
REMARK                         _______ _______ _______ _____ _____    ______ ____
ROOT
ATOM      1  C   UNL     1       3.615   6.394  17.601  0.00  0.00    +0.000 A 
ATOM      2  C   UNL     1       4.499   6.922  16.633  0.00  0.00    +0.000 A 
ATOM      3  C   UNL     1       5.391   6.099  15.956  0.00  0.00    +0.000 A 
ATOM      4  C   UNL     1       5.414   4.742  16.238  0.00  0.00    +0.000 A 
ATOM      5  C   UNL     1       4.534   4.209  17.187  0.00  0.00    +0.000 A 
ATOM      6  C   UNL     1       3.611   5.007  17.906  0.00  0.00    +0.000 A 
ENDROOT
BRANCH   6   7
ATOM      7  C   UNL     1       2.720   4.343  18.905  0.00  0.00    +0.000 A 
ATOM      8  C   UNL     1       3.143   4.147  20.239  0.00  0.00    +0.000 A 
ATOM      9  C   UNL     1       2.335   3.513  21.190  0.00  0.00    +0.000 A 
ATOM     10  C   UNL     1       1.062   3.080  20.842  0.00  0.00    +0.000 A 
ATOM     11  C   UNL     1       0.614   3.255  19.537  0.00  0.00    +0.000 A 
ATOM     12  C   UNL     1       1.442   3.855  18.579  0.00  0.00    +0.000 A 
ENDBRANCH   6   7
BRANCH   1  14
ATOM     13  O   UNL     1       2.586   7.225  19.531  0.00  0.00    +0.000 OA
ATOM     14  C   UNL     1       2.779   7.391  18.333  0.00  0.00    +0.000 C 
ATOM     15  N   UNL     1       2.309   8.440  17.554  0.00  0.00    +0.000 N 
ATOM     16  H   UNL     1       2.544   8.427  16.569  0.00  0.00    +0.000 HD
BRANCH  15  17
ATOM     17  C   UNL     1       1.466   9.494  17.974  0.00  0.00    +0.000 A 
ATOM     18  C   UNL     1       1.935  10.711  18.477  0.00  0.00    +0.000 A 
ATOM     19  C   UNL     1       1.048  11.693  18.933  0.00  0.00    +0.000 A 
ATOM     20  C   UNL     1      -0.324  11.474  18.876  0.00  0.00    +0.000 A 
ATOM     21  C   UNL     1      -0.796  10.278  18.350  0.00  0.00    +0.000 A 
ATOM     22  F   UNL     1      -2.116  10.064  18.287  0.00  0.00    +0.000 F 
ATOM     23  C   UNL     1       0.082   9.293  17.895  0.00  0.00    +0.000 A 
ENDBRANCH  15  17
ENDBRANCH   1  14
TORSDOF 3
ENDMDL
MODEL 6
REMARK VINA RESULT:      -7.8      4.535      6.346
REMARK  Name = 
REMARK  3 active torsions:
REMARK  status: ('A' for Active; 'I' for Inactive)
REMARK    1  A    between atoms: C_2  and  C_11
REMARK    2  A    between atoms: N_3  and  C_4
REMARK    3  A    between atoms: C_16  and  C_17
REMARK                            x       y       z     vdW  Elec       q    Type
REMARK                         _______ _______ _______ _____ _____    ______ ____
ROOT
ATOM      1  C   UNL     1       3.700   6.270  17.538  0.00  0.00    +0.000 A 
ATOM      2  C   UNL     1       4.583   6.766  16.553  0.00  0.00    +0.000 A 
ATOM      3  C   UNL     1       5.448   5.914  15.875  0.00  0.00    +0.000 A 
ATOM      4  C   UNL     1       5.443   4.560  16.173  0.00  0.00    +0.000 A 
ATOM      5  C   UNL     1       4.563   4.059  17.140  0.00  0.00    +0.000 A 
ATOM      6  C   UNL     1       3.668   4.887  17.859  0.00  0.00    +0.000 A 
ENDROOT
BRANCH   6   7
ATOM      7  C   UNL     1       2.775   4.255  18.877  0.00  0.00    +0.000 A 
ATOM      8  C   UNL     1       1.476   3.818  18.532  0.00  0.00    +0.000 A 
ATOM      9  C   UNL     1       0.613   3.237  19.470  0.00  0.00    +0.000 A 
ATOM     10  C   UNL     1       1.036   3.048  20.779  0.00  0.00    +0.000 A 
ATOM     11  C   UNL     1       2.307   3.469  21.153  0.00  0.00    +0.000 A 
ATOM     12  C   UNL     1       3.153   4.084  20.221  0.00  0.00    +0.000 A 
ENDBRANCH   6   7
BRANCH   1  14
ATOM     13  O   UNL     1       2.662   7.115  19.456  0.00  0.00    +0.000 OA
ATOM     14  C   UNL     1       2.896   7.294  18.267  0.00  0.00    +0.000 C 
ATOM     15  N   UNL     1       2.503   8.381  17.498  0.00  0.00    +0.000 N 
ATOM     16  H   UNL     1       2.764   8.375  16.520  0.00  0.00    +0.000 HD
BRANCH  15  17
ATOM     17  C   UNL     1       1.703   9.469  17.917  0.00  0.00    +0.000 A 
ATOM     18  C   UNL     1       2.215  10.728  18.246  0.00  0.00    +0.000 A 
ATOM     19  C   UNL     1       1.377  11.748  18.712  0.00  0.00    +0.000 A 
ATOM     20  C   UNL     1       0.011  11.523  18.841  0.00  0.00    +0.000 A 
ATOM     21  C   UNL     1      -0.507  10.284  18.488  0.00  0.00    +0.000 A 
ATOM     22  F   UNL     1      -1.822  10.063  18.604  0.00  0.00    +0.000 F 
ATOM     23  C   UNL     1       0.322   9.261  18.024  0.00  0.00    +0.000 A 
ENDBRANCH  15  17
ENDBRANCH   1  14
TORSDOF 3
ENDMDL
MODEL 7
REMARK VINA RESULT:      -7.8      3.285      4.810
REMARK  Name = 
REMARK  3 active torsions:
REMARK  status: ('A' for Active; 'I' for Inactive)
REMARK    1  A    between atoms: C_2  and  C_11
REMARK    2  A    between atoms: N_3  and  C_4
REMARK    3  A    between atoms: C_16  and  C_17
REMARK                            x       y       z     vdW  Elec       q    Type
REMARK                         _______ _______ _______ _____ _____    ______ ____
ROOT
ATOM      1  C   UNL     1       4.930   5.613  16.422  0.00  0.00    +0.000 A 
ATOM      2  C   UNL     1       5.772   5.996  15.354  0.00  0.00    +0.000 A 
ATOM      3  C   UNL     1       6.345   5.043  14.521  0.00  0.00    +0.000 A 
ATOM      4  C   UNL     1       6.088   3.699  14.743  0.00  0.00    +0.000 A 
ATOM      5  C   UNL     1       5.245   3.312  15.792  0.00  0.00    +0.000 A 
ATOM      6  C   UNL     1       4.641   4.245  16.670  0.00  0.00    +0.000 A 
ENDROOT
BRANCH   6   7
ATOM      7  C   UNL     1       3.764   3.729  17.764  0.00  0.00    +0.000 A 
ATOM      8  C   UNL     1       2.419   3.379  17.512  0.00  0.00    +0.000 A 
ATOM      9  C   UNL     1       1.570   2.908  18.522  0.00  0.00    +0.000 A 
ATOM     10  C   UNL     1       2.053   2.745  19.814  0.00  0.00    +0.000 A 
ATOM     11  C   UNL     1       3.372   3.083  20.098  0.00  0.00    +0.000 A 
ATOM     12  C   UNL     1       4.205   3.590  19.092  0.00  0.00    +0.000 A 
ENDBRANCH   6   7
BRANCH   1  14
ATOM     13  O   UNL     1       5.293   7.469  17.799  0.00  0.00    +0.000 OA
ATOM     14  C   UNL     1       4.459   6.718  17.308  0.00  0.00    +0.000 C 
ATOM     15  N   UNL     1       3.082   6.786  17.471  0.00  0.00    +0.000 N 
ATOM     16  H   UNL     1       2.525   6.079  17.008  0.00  0.00    +0.000 HD
BRANCH  15  17
ATOM     17  C   UNL     1       2.370   7.699  18.283  0.00  0.00    +0.000 A 
ATOM     18  C   UNL     1       1.875   8.924  17.826  0.00  0.00    +0.000 A 
ATOM     19  C   UNL     1       1.231   9.811  18.696  0.00  0.00    +0.000 A 
ATOM     20  C   UNL     1       1.060   9.476  20.034  0.00  0.00    +0.000 A 
ATOM     21  C   UNL     1       1.524   8.248  20.487  0.00  0.00    +0.000 A 
ATOM     22  F   UNL     1       1.356   7.915  21.773  0.00  0.00    +0.000 F 
ATOM     23  C   UNL     1       2.169   7.358  19.627  0.00  0.00    +0.000 A 
ENDBRANCH  15  17
ENDBRANCH   1  14
TORSDOF 3
ENDMDL
MODEL 8
REMARK VINA RESULT:      -7.8      3.573      5.053
REMARK  Name = 
REMARK  3 active torsions:
REMARK  status: ('A' for Active; 'I' for Inactive)
REMARK    1  A    between atoms: C_2  and  C_11
REMARK    2  A    between atoms: N_3  and  C_4
REMARK    3  A    between atoms: C_16  and  C_17
REMARK                            x       y       z     vdW  Elec       q    Type
REMARK                         _______ _______ _______ _____ _____    ______ ____
ROOT
ATOM      1  C   UNL     1       4.954   5.564  16.461  0.00  0.00    +0.000 A 
ATOM      2  C   UNL     1       5.764   6.007  15.392  0.00  0.00    +0.000 A 
ATOM      3  C   UNL     1       6.326   5.102  14.499  0.00  0.00    +0.000 A 
ATOM      4  C   UNL     1       6.090   3.746  14.665  0.00  0.00    +0.000 A 
ATOM      5  C   UNL     1       5.279   3.300  15.716  0.00  0.00    +0.000 A 
ATOM      6  C   UNL     1       4.688   4.182  16.652  0.00  0.00    +0.000 A 
ENDROOT
BRANCH   6   7
ATOM      7  C   UNL     1       3.846   3.605  17.743  0.00  0.00    +0.000 A 
ATOM      8  C   UNL     1       2.506   3.225  17.502  0.00  0.00    +0.000 A 
ATOM      9  C   UNL     1       1.690   2.696  18.510  0.00  0.00    +0.000 A 
ATOM     10  C   UNL     1       2.201   2.503  19.787  0.00  0.00    +0.000 A 
ATOM     11  C   UNL     1       3.515   2.868  20.059  0.00  0.00    +0.000 A 
ATOM     12  C   UNL     1       4.315   3.433  19.057  0.00  0.00    +0.000 A 
ENDBRANCH   6   7
BRANCH   1  14
ATOM     13  O   UNL     1       5.325   7.387  17.880  0.00  0.00    +0.000 OA
ATOM     14  C   UNL     1       4.493   6.620  17.410  0.00  0.00    +0.000 C 
ATOM     15  N   UNL     1       3.126   6.629  17.653  0.00  0.00    +0.000 N 
ATOM     16  H   UNL     1       2.571   5.916  17.197  0.00  0.00    +0.000 HD
BRANCH  15  17
ATOM     17  C   UNL     1       2.429   7.486  18.535  0.00  0.00    +0.000 A 
ATOM     18  C   UNL     1       2.210   7.201  19.886  0.00  0.00    +0.000 A 
ATOM     19  C   UNL     1       1.460   8.064  20.693  0.00  0.00    +0.000 A 
ATOM     20  C   UNL     1       0.931   9.234  20.160  0.00  0.00    +0.000 A 
ATOM     21  C   UNL     1       1.170   9.537  18.825  0.00  0.00    +0.000 A 
ATOM     22  F   UNL     1       0.669  10.665  18.307  0.00  0.00    +0.000 F 
ATOM     23  C   UNL     1       1.916   8.681  18.013  0.00  0.00    +0.000 A 
ENDBRANCH  15  17
ENDBRANCH   1  14
TORSDOF 3
ENDMDL
MODEL 9
REMARK VINA RESULT:      -7.7      2.860      5.771
REMARK  Name = 
REMARK  3 active torsions:
REMARK  status: ('A' for Active; 'I' for Inactive)
REMARK    1  A    between atoms: C_2  and  C_11
REMARK    2  A    between atoms: N_3  and  C_4
REMARK    3  A    between atoms: C_16  and  C_17
REMARK                            x       y       z     vdW  Elec       q    Type
REMARK                         _______ _______ _______ _____ _____    ______ ____
ROOT
ATOM      1  C   UNL     1       3.788   4.293  17.440  0.00  0.00    +0.000 A 
ATOM      2  C   UNL     1       2.494   3.733  17.533  0.00  0.00    +0.000 A 
ATOM      3  C   UNL     1       1.641   4.078  18.574  0.00  0.00    +0.000 A 
ATOM      4  C   UNL     1       2.068   4.982  19.535  0.00  0.00    +0.000 A 
ATOM      5  C   UNL     1       3.345   5.550  19.443  0.00  0.00    +0.000 A 
ATOM      6  C   UNL     1       4.251   5.227  18.404  0.00  0.00    +0.000 A 
ENDROOT
BRANCH   6   7
ATOM      7  C   UNL     1       5.594   5.882  18.400  0.00  0.00    +0.000 A 
ATOM      8  C   UNL     1       6.620   5.441  19.266  0.00  0.00    +0.000 A 
ATOM      9  C   UNL     1       7.882   6.048  19.294  0.00  0.00    +0.000 A 
ATOM     10  C   UNL     1       8.166   7.099  18.432  0.00  0.00    +0.000 A 
ATOM     11  C   UNL     1       7.179   7.560  17.568  0.00  0.00    +0.000 A 
ATOM     12  C   UNL     1       5.905   6.975  17.571  0.00  0.00    +0.000 A 
ENDBRANCH   6   7
BRANCH   1  14
ATOM     13  O   UNL     1       5.113   2.640  16.446  0.00  0.00    +0.000 OA
ATOM     14  C   UNL     1       4.647   3.767  16.337  0.00  0.00    +0.000 C 
ATOM     15  N   UNL     1       4.816   4.635  15.267  0.00  0.00    +0.000 N 
ATOM     16  H   UNL     1       4.375   5.544  15.333  0.00  0.00    +0.000 HD
BRANCH  15  17
ATOM     17  C   UNL     1       5.607   4.415  14.116  0.00  0.00    +0.000 A 
ATOM     18  C   UNL     1       5.263   3.525  13.094  0.00  0.00    +0.000 A 
ATOM     19  C   UNL     1       6.119   3.308  12.009  0.00  0.00    +0.000 A 
ATOM     20  C   UNL     1       7.327   3.991  11.925  0.00  0.00    +0.000 A 
ATOM     21  C   UNL     1       7.661   4.898  12.922  0.00  0.00    +0.000 A 
ATOM     22  F   UNL     1       8.819   5.564  12.845  0.00  0.00    +0.000 F 
ATOM     23  C   UNL     1       6.813   5.120  14.009  0.00  0.00    +0.000 A 
ENDBRANCH  15  17
ENDBRANCH   1  14
TORSDOF 3
ENDMDL
