MODEL 1
REMARK VINA RESULT:      -8.1      0.000      0.000
REMARK  Name = 
REMARK  10 active torsions:
REMARK  status: ('A' for Active; 'I' for Inactive)
REMARK    1  A    between atoms: C_1  and  C_2
REMARK    2  A    between atoms: C_5  and  C_6
REMARK    3  A    between atoms: C_8  and  C_9
REMARK    4  A    between atoms: N_11  and  C_12
REMARK    5  A    between atoms: C_12  and  C_13
REMARK    6  A    between atoms: C_12  and  C_14
REMARK    7  A    between atoms: C_14  and  N_15
REMARK    8  A    between atoms: N_18  and  S_19
REMARK    9  A    between atoms: S_19  and  C_20
REMARK   10  A    between atoms: C_26  and  C_27
REMARK                            x       y       z     vdW  Elec       q    Type
REMARK                         _______ _______ _______ _____ _____    ______ ____
ROOT
ATOM      1  C   UNL     1      -0.634  10.921  18.227  0.00  0.00    +0.000 A 
ATOM      2  C   UNL     1       0.057   9.740  17.927  0.00  0.00    +0.000 A 
ATOM      3  C   UNL     1       1.436   9.618  18.141  0.00  0.00    +0.000 A 
ATOM      4  C   UNL     1       2.167  10.756  18.527  0.00  0.00    +0.000 A 
ATOM      5  C   UNL     1       1.523  11.989  18.742  0.00  0.00    +0.000 A 
ATOM      6  C   UNL     1       0.121  12.040  18.617  0.00  0.00    +0.000 A 
ENDROOT
BRANCH   1  11
ATOM      7  C   UNL     1      -6.447  11.015  18.288  0.00  0.00    +0.000 C 
ATOM      8  C   UNL     1      -4.948  10.987  18.278  0.00  0.00    +0.000 A 
ATOM      9  C   UNL     1      -4.210  11.923  19.006  0.00  0.00    +0.000 A 
ATOM     10  C   UNL     1      -2.813  11.901  18.971  0.00  0.00    +0.000 A 
ATOM     11  C   UNL     1      -2.111  10.954  18.206  0.00  0.00    +0.000 A 
ATOM     12  C   UNL     1      -2.868  10.017  17.483  0.00  0.00    +0.000 A 
ATOM     13  C   UNL     1      -4.267  10.031  17.521  0.00  0.00    +0.000 A 
ENDBRANCH   1  11
BRANCH   5  14
ATOM     14  C   UNL     1       2.295  13.202  19.063  0.00  0.00    +0.000 A 
ATOM     15  C   UNL     1       2.862  14.139  18.213  0.00  0.00    +0.000 A 
ATOM     16  N   UNL     1       3.493  15.215  18.813  0.00  0.00    +0.000 NA
ATOM     17  C   UNL     1       3.415  15.085  20.117  0.00  0.00    +0.000 A 
ATOM     18  S   UNL     1       2.610  13.686  20.688  0.00  0.00    +0.000 S 
ENDBRANCH   5  14
BRANCH   3  19
ATOM     19  C   UNL     1       2.129   8.286  18.007  0.00  0.00    +0.000 C 
ATOM     20  O   UNL     1       2.903   8.083  17.076  0.00  0.00    +0.000 OA
ATOM     21  N   UNL     1       1.864   7.362  19.002  0.00  0.00    +0.000 N 
ATOM     22  H   UNL     1       1.427   7.706  19.844  0.00  0.00    +0.000 HD
BRANCH  21  23
ATOM     23  C   UNL     1       2.550   6.080  19.201  0.00  0.00    +0.000 C 
ATOM     24  C   UNL     1       1.733   5.159  20.108  0.00  0.00    +0.000 C 
BRANCH  23  25
ATOM     25  C   UNL     1       4.044   6.177  19.614  0.00  0.00    +0.000 C 
BRANCH  25  26
ATOM     26  N   UNL     1       4.869   5.053  19.109  0.00  0.00    +0.000 NA
ATOM     27  C   UNL     1       4.414   4.467  17.834  0.00  0.00    +0.000 C 
ATOM     28  C   UNL     1       4.679   5.312  16.570  0.00  0.00    +0.000 C 
ATOM     29  N   UNL     1       6.087   5.800  16.477  0.00  0.00    +0.000 NA
ATOM     30  C   UNL     1       6.581   6.362  17.772  0.00  0.00    +0.000 C 
ATOM     31  C   UNL     1       6.291   5.431  18.963  0.00  0.00    +0.000 C 
BRANCH  29  32
ATOM     32  S   UNL     1       7.181   4.840  15.612  0.00  0.00    +0.000 S 
ATOM     33  C   UNL     1       6.073   3.810  14.660  0.00  0.00    +0.000 C 
ATOM     34  O   UNL     1       7.884   5.688  14.668  0.00  0.00    +0.000 OA
ATOM     35  O   UNL     1       7.891   4.006  16.548  0.00  0.00    +0.000 OA
ENDBRANCH  29  32
ENDBRANCH  25  26
ENDBRANCH  23  25
ENDBRANCH  21  23
ENDBRANCH   3  19
TORSDOF 7
ENDMDL
MODEL 2
REMARK VINA RESULT:      -8.1      0.771      1.142
REMARK  Name = 
REMARK  10 active torsions:
REMARK  status: ('A' for Active; 'I' for Inactive)
REMARK    1  A    between atoms: C_1  and  C_2
REMARK    2  A    between atoms: C_5  and  C_6
REMARK    3  A    between atoms: C_8  and  C_9
REMARK    4  A    between atoms: N_11  and  C_12
REMARK    5  A    between atoms: C_12  and  C_13
REMARK    6  A    between atoms: C_12  and  C_14
REMARK    7  A    between atoms: C_14  and  N_15
REMARK    8  A    between atoms: N_18  and  S_19
REMARK    9  A    between atoms: S_19  and  C_20
REMARK   10  A    between atoms: C_26  and  C_27
REMARK                            x       y       z     vdW  Elec       q    Type
REMARK                         _______ _______ _______ _____ _____    ______ ____
ROOT
ATOM      1  C   UNL     1      -0.754  11.244  18.336  0.00  0.00    +0.000 A 
ATOM      2  C   UNL     1      -0.107  10.041  18.023  0.00  0.00    +0.000 A 
ATOM      3  C   UNL     1       1.249   9.838  18.307  0.00  0.00    +0.000 A 
ATOM      4  C   UNL     1       2.013  10.918  18.782  0.00  0.00    +0.000 A 
ATOM      5  C   UNL     1       1.421  12.173  19.015  0.00  0.00    +0.000 A 
ATOM      6  C   UNL     1       0.034  12.304  18.815  0.00  0.00    +0.000 A 
ENDROOT
BRANCH   1  11
ATOM      7  C   UNL     1      -6.521  11.778  17.823  0.00  0.00    +0.000 C 
ATOM      8  C   UNL     1      -5.033  11.647  17.952  0.00  0.00    +0.000 A 
ATOM      9  C   UNL     1      -4.273  11.077  16.928  0.00  0.00    +0.000 A 
ATOM     10  C   UNL     1      -2.890  10.939  17.068  0.00  0.00    +0.000 A 
ATOM     11  C   UNL     1      -2.223  11.355  18.234  0.00  0.00    +0.000 A 
ATOM     12  C   UNL     1      -3.001  11.930  19.254  0.00  0.00    +0.000 A 
ATOM     13  C   UNL     1      -4.386  12.076  19.113  0.00  0.00    +0.000 A 
ENDBRANCH   1  11
BRANCH   5  14
ATOM     14  C   UNL     1       2.233  13.330  19.432  0.00  0.00    +0.000 A 
ATOM     15  C   UNL     1       2.530  13.788  20.706  0.00  0.00    +0.000 A 
ATOM     16  N   UNL     1       3.371  14.884  20.787  0.00  0.00    +0.000 NA
ATOM     17  C   UNL     1       3.700  15.264  19.574  0.00  0.00    +0.000 A 
ATOM     18  S   UNL     1       3.022  14.355  18.291  0.00  0.00    +0.000 S 
ENDBRANCH   5  14
BRANCH   3  19
ATOM     19  C   UNL     1       1.880   8.477  18.152  0.00  0.00    +0.000 C 
ATOM     20  O   UNL     1       2.522   8.204  17.142  0.00  0.00    +0.000 OA
ATOM     21  N   UNL     1       1.720   7.610  19.218  0.00  0.00    +0.000 N 
ATOM     22  H   UNL     1       1.405   8.007  20.090  0.00  0.00    +0.000 HD
BRANCH  21  23
ATOM     23  C   UNL     1       2.389   6.314  19.392  0.00  0.00    +0.000 C 
ATOM     24  C   UNL     1       1.696   5.484  20.473  0.00  0.00    +0.000 C 
BRANCH  23  25
ATOM     25  C   UNL     1       3.931   6.376  19.562  0.00  0.00    +0.000 C 
BRANCH  25  26
ATOM     26  N   UNL     1       4.630   5.181  19.030  0.00  0.00    +0.000 NA
ATOM     27  C   UNL     1       4.222   4.771  17.672  0.00  0.00    +0.000 C 
ATOM     28  C   UNL     1       4.730   5.660  16.518  0.00  0.00    +0.000 C 
ATOM     29  N   UNL     1       6.197   5.932  16.591  0.00  0.00    +0.000 NA
ATOM     30  C   UNL     1       6.637   6.311  17.969  0.00  0.00    +0.000 C 
ATOM     31  C   UNL     1       6.098   5.346  19.041  0.00  0.00    +0.000 C 
BRANCH  29  32
ATOM     32  S   UNL     1       7.220   4.885  15.739  0.00  0.00    +0.000 S 
ATOM     33  C   UNL     1       6.044   3.737  15.035  0.00  0.00    +0.000 C 
ATOM     34  O   UNL     1       7.807   5.620  14.635  0.00  0.00    +0.000 OA
ATOM     35  O   UNL     1       8.038   4.177  16.692  0.00  0.00    +0.000 OA
ENDBRANCH  29  32
ENDBRANCH  25  26
ENDBRANCH  23  25
ENDBRANCH  21  23
ENDBRANCH   3  19
TORSDOF 7
ENDMDL
MODEL 3
REMARK VINA RESULT:      -7.8      1.833      5.051
REMARK  Name = 
REMARK  10 active torsions:
REMARK  status: ('A' for Active; 'I' for Inactive)
REMARK    1  A    between atoms: C_1  and  C_2
REMARK    2  A    between atoms: C_5  and  C_6
REMARK    3  A    between atoms: C_8  and  C_9
REMARK    4  A    between atoms: N_11  and  C_12
REMARK    5  A    between atoms: C_12  and  C_13
REMARK    6  A    between atoms: C_12  and  C_14
REMARK    7  A    between atoms: C_14  and  N_15
REMARK    8  A    between atoms: N_18  and  S_19
REMARK    9  A    between atoms: S_19  and  C_20
REMARK   10  A    between atoms: C_26  and  C_27
REMARK                            x       y       z     vdW  Elec       q    Type
REMARK                         _______ _______ _______ _____ _____    ______ ____
ROOT
ATOM      1  C   UNL     1       1.604  12.527  18.922  0.00  0.00    +0.000 A 
ATOM      2  C   UNL     1       2.116  11.225  18.845  0.00  0.00    +0.000 A 
ATOM      3  C   UNL     1       1.290  10.123  18.588  0.00  0.00    +0.000 A 
ATOM      4  C   UNL     1      -0.103  10.311  18.553  0.00  0.00    +0.000 A 
ATOM      5  C   UNL     1      -0.663  11.590  18.726  0.00  0.00    +0.000 A 
ATOM      6  C   UNL     1       0.208  12.685  18.878  0.00  0.00    +0.000 A 
ENDROOT
BRANCH   1  11
ATOM      7  C   UNL     1       5.294  17.018  19.059  0.00  0.00    +0.000 C 
ATOM      8  C   UNL     1       4.348  15.855  19.024  0.00  0.00    +0.000 A 
ATOM      9  C   UNL     1       3.978  15.269  17.811  0.00  0.00    +0.000 A 
ATOM     10  C   UNL     1       3.077  14.202  17.789  0.00  0.00    +0.000 A 
ATOM     11  C   UNL     1       2.513  13.690  18.971  0.00  0.00    +0.000 A 
ATOM     12  C   UNL     1       2.899  14.286  20.183  0.00  0.00    +0.000 A 
ATOM     13  C   UNL     1       3.806  15.352  20.210  0.00  0.00    +0.000 A 
ENDBRANCH   1  11
BRANCH   5  14
ATOM     14  C   UNL     1      -2.124  11.778  18.775  0.00  0.00    +0.000 A 
ATOM     15  C   UNL     1      -3.098  11.365  17.880  0.00  0.00    +0.000 A 
ATOM     16  N   UNL     1      -4.410  11.647  18.221  0.00  0.00    +0.000 NA
ATOM     17  C   UNL     1      -4.426  12.285  19.369  0.00  0.00    +0.000 A 
ATOM     18  S   UNL     1      -2.901  12.591  20.083  0.00  0.00    +0.000 S 
ENDBRANCH   5  14
BRANCH   3  19
ATOM     19  C   UNL     1       1.875   8.762  18.308  0.00  0.00    +0.000 C 
ATOM     20  O   UNL     1       2.459   8.546  17.250  0.00  0.00    +0.000 OA
ATOM     21  N   UNL     1       1.745   7.826  19.318  0.00  0.00    +0.000 N 
ATOM     22  H   UNL     1       1.484   8.167  20.231  0.00  0.00    +0.000 HD
BRANCH  21  23
ATOM     23  C   UNL     1       2.386   6.506  19.368  0.00  0.00    +0.000 C 
ATOM     24  C   UNL     1       1.768   5.640  20.466  0.00  0.00    +0.000 C 
BRANCH  23  25
ATOM     25  C   UNL     1       3.938   6.518  19.399  0.00  0.00    +0.000 C 
BRANCH  25  26
ATOM     26  N   UNL     1       4.548   5.292  18.829  0.00  0.00    +0.000 NA
ATOM     27  C   UNL     1       4.166   4.993  17.436  0.00  0.00    +0.000 C 
ATOM     28  C   UNL     1       4.805   5.889  16.354  0.00  0.00    +0.000 C 
ATOM     29  N   UNL     1       6.286   6.019  16.500  0.00  0.00    +0.000 NA
ATOM     30  C   UNL     1       6.696   6.282  17.914  0.00  0.00    +0.000 C 
ATOM     31  C   UNL     1       6.024   5.318  18.908  0.00  0.00    +0.000 C 
BRANCH  29  32
ATOM     32  S   UNL     1       7.246   4.926  15.634  0.00  0.00    +0.000 S 
ATOM     33  C   UNL     1       6.004   3.891  14.872  0.00  0.00    +0.000 C 
ATOM     34  O   UNL     1       7.907   5.649  14.564  0.00  0.00    +0.000 OA
ATOM     35  O   UNL     1       7.991   4.130  16.576  0.00  0.00    +0.000 OA
ENDBRANCH  29  32
ENDBRANCH  25  26
ENDBRANCH  23  25
ENDBRANCH  21  23
ENDBRANCH   3  19
TORSDOF 7
ENDMDL
MODEL 4
REMARK VINA RESULT:      -7.5      4.762      8.489
REMARK  Name = 
REMARK  10 active torsions:
REMARK  status: ('A' for Active; 'I' for Inactive)
REMARK    1  A    between atoms: C_1  and  C_2
REMARK    2  A    between atoms: C_5  and  C_6
REMARK    3  A    between atoms: C_8  and  C_9
REMARK    4  A    between atoms: N_11  and  C_12
REMARK    5  A    between atoms: C_12  and  C_13
REMARK    6  A    between atoms: C_12  and  C_14
REMARK    7  A    between atoms: C_14  and  N_15
REMARK    8  A    between atoms: N_18  and  S_19
REMARK    9  A    between atoms: S_19  and  C_20
REMARK   10  A    between atoms: C_26  and  C_27
REMARK                            x       y       z     vdW  Elec       q    Type
REMARK                         _______ _______ _______ _____ _____    ______ ____
ROOT
ATOM      1  C   UNL     1       0.653  10.495  18.643  0.00  0.00    +0.000 A 
ATOM      2  C   UNL     1       1.300  11.739  18.625  0.00  0.00    +0.000 A 
ATOM      3  C   UNL     1       0.582  12.942  18.638  0.00  0.00    +0.000 A 
ATOM      4  C   UNL     1      -0.818  12.900  18.519  0.00  0.00    +0.000 A 
ATOM      5  C   UNL     1      -1.498  11.671  18.434  0.00  0.00    +0.000 A 
ATOM      6  C   UNL     1      -0.747  10.484  18.529  0.00  0.00    +0.000 A 
ENDROOT
BRANCH   1  11
ATOM      7  C   UNL     1       3.604   5.537  19.360  0.00  0.00    +0.000 C 
ATOM      8  C   UNL     1       2.837   6.812  19.172  0.00  0.00    +0.000 A 
ATOM      9  C   UNL     1       2.935   7.537  17.982  0.00  0.00    +0.000 A 
ATOM     10  C   UNL     1       2.234   8.736  17.827  0.00  0.00    +0.000 A 
ATOM     11  C   UNL     1       1.423   9.252  18.852  0.00  0.00    +0.000 A 
ATOM     12  C   UNL     1       1.332   8.509  20.041  0.00  0.00    +0.000 A 
ATOM     13  C   UNL     1       2.026   7.304  20.198  0.00  0.00    +0.000 A 
ENDBRANCH   1  11
BRANCH   5  14
ATOM     14  C   UNL     1      -2.956  11.624  18.224  0.00  0.00    +0.000 A 
ATOM     15  C   UNL     1      -3.981  12.071  19.042  0.00  0.00    +0.000 A 
ATOM     16  N   UNL     1      -5.268  11.935  18.550  0.00  0.00    +0.000 NA
ATOM     17  C   UNL     1      -5.216  11.373  17.364  0.00  0.00    +0.000 A 
ATOM     18  S   UNL     1      -3.655  10.969  16.790  0.00  0.00    +0.000 S 
ENDBRANCH   5  14
BRANCH   3  19
ATOM     19  C   UNL     1       1.285  14.263  18.823  0.00  0.00    +0.000 C 
ATOM     20  O   UNL     1       0.659  15.249  19.201  0.00  0.00    +0.000 OA
ATOM     21  N   UNL     1       2.648  14.264  18.581  0.00  0.00    +0.000 N 
ATOM     22  H   UNL     1       3.106  13.367  18.527  0.00  0.00    +0.000 HD
BRANCH  21  23
ATOM     23  C   UNL     1       3.580  15.361  18.869  0.00  0.00    +0.000 C 
ATOM     24  C   UNL     1       3.469  16.462  17.815  0.00  0.00    +0.000 C 
BRANCH  23  25
ATOM     25  C   UNL     1       5.045  14.934  19.157  0.00  0.00    +0.000 C 
BRANCH  25  26
ATOM     26  N   UNL     1       6.025  15.515  18.207  0.00  0.00    +0.000 NA
ATOM     27  C   UNL     1       6.893  16.568  18.769  0.00  0.00    +0.000 C 
ATOM     28  C   UNL     1       8.008  16.085  19.721  0.00  0.00    +0.000 C 
ATOM     29  N   UNL     1       8.808  14.956  19.160  0.00  0.00    +0.000 NA
ATOM     30  C   UNL     1       7.947  13.897  18.549  0.00  0.00    +0.000 C 
ATOM     31  C   UNL     1       6.888  14.482  17.597  0.00  0.00    +0.000 C 
BRANCH  29  32
ATOM     32  S   UNL     1      10.218  15.356  18.312  0.00  0.00    +0.000 S 
ATOM     33  C   UNL     1      11.439  15.319  19.617  0.00  0.00    +0.000 C 
ATOM     34  O   UNL     1      10.532  14.264  17.409  0.00  0.00    +0.000 OA
ATOM     35  O   UNL     1      10.094  16.712  17.839  0.00  0.00    +0.000 OA
ENDBRANCH  29  32
ENDBRANCH  25  26
ENDBRANCH  23  25
ENDBRANCH  21  23
ENDBRANCH   3  19
TORSDOF 7
ENDMDL
MODEL 5
REMARK VINA RESULT:      -7.5      4.680      8.521
REMARK  Name = 
REMARK  10 active torsions:
REMARK  status: ('A' for Active; 'I' for Inactive)
REMARK    1  A    between atoms: C_1  and  C_2
REMARK    2  A    between atoms: C_5  and  C_6
REMARK    3  A    between atoms: C_8  and  C_9
REMARK    4  A    between atoms: N_11  and  C_12
REMARK    5  A    between atoms: C_12  and  C_13
REMARK    6  A    between atoms: C_12  and  C_14
REMARK    7  A    between atoms: C_14  and  N_15
REMARK    8  A    between atoms: N_18  and  S_19
REMARK    9  A    between atoms: S_19  and  C_20
REMARK   10  A    between atoms: C_26  and  C_27
REMARK                            x       y       z     vdW  Elec       q    Type
REMARK                         _______ _______ _______ _____ _____    ______ ____
ROOT
ATOM      1  C   UNL     1       1.138   9.915  18.545  0.00  0.00    +0.000 A 
ATOM      2  C   UNL     1       1.790  11.119  18.842  0.00  0.00    +0.000 A 
ATOM      3  C   UNL     1       1.094  12.332  18.925  0.00  0.00    +0.000 A 
ATOM      4  C   UNL     1      -0.262  12.364  18.557  0.00  0.00    +0.000 A 
ATOM      5  C   UNL     1      -0.929  11.192  18.156  0.00  0.00    +0.000 A 
ATOM      6  C   UNL     1      -0.219   9.977  18.187  0.00  0.00    +0.000 A 
ENDROOT
BRANCH   1  11
ATOM      7  C   UNL     1       3.996   4.894  19.197  0.00  0.00    +0.000 C 
ATOM      8  C   UNL     1       3.265   6.192  19.032  0.00  0.00    +0.000 A 
ATOM      9  C   UNL     1       2.407   6.662  20.029  0.00  0.00    +0.000 A 
ATOM     10  C   UNL     1       1.712   7.861  19.855  0.00  0.00    +0.000 A 
ATOM     11  C   UNL     1       1.845   8.625  18.681  0.00  0.00    +0.000 A 
ATOM     12  C   UNL     1       2.715   8.141  17.690  0.00  0.00    +0.000 A 
ATOM     13  C   UNL     1       3.417   6.943  17.864  0.00  0.00    +0.000 A 
ENDBRANCH   1  11
BRANCH   5  14
ATOM     14  C   UNL     1      -2.326  11.236  17.688  0.00  0.00    +0.000 A 
ATOM     15  C   UNL     1      -3.476  11.590  18.375  0.00  0.00    +0.000 A 
ATOM     16  N   UNL     1      -4.655  11.583  17.650  0.00  0.00    +0.000 NA
ATOM     17  C   UNL     1      -4.398  11.212  16.416  0.00  0.00    +0.000 A 
ATOM     18  S   UNL     1      -2.763  10.842  16.067  0.00  0.00    +0.000 S 
ENDBRANCH   5  14
BRANCH   3  19
ATOM     19  C   UNL     1       1.766  13.579  19.442  0.00  0.00    +0.000 C 
ATOM     20  O   UNL     1       1.633  13.912  20.616  0.00  0.00    +0.000 OA
ATOM     21  N   UNL     1       2.550  14.267  18.533  0.00  0.00    +0.000 N 
ATOM     22  H   UNL     1       2.800  13.783  17.683  0.00  0.00    +0.000 HD
BRANCH  21  23
ATOM     23  C   UNL     1       3.449  15.388  18.834  0.00  0.00    +0.000 C 
ATOM     24  C   UNL     1       3.337  16.478  17.768  0.00  0.00    +0.000 C 
BRANCH  23  25
ATOM     25  C   UNL     1       4.917  14.999  19.160  0.00  0.00    +0.000 C 
BRANCH  25  26
ATOM     26  N   UNL     1       5.913  15.707  18.320  0.00  0.00    +0.000 NA
ATOM     27  C   UNL     1       6.824  16.607  19.053  0.00  0.00    +0.000 C 
ATOM     28  C   UNL     1       7.923  15.918  19.889  0.00  0.00    +0.000 C 
ATOM     29  N   UNL     1       8.678  14.881  19.123  0.00  0.00    +0.000 NA
ATOM     30  C   UNL     1       7.773  13.983  18.340  0.00  0.00    +0.000 C 
ATOM     31  C   UNL     1       6.733  14.770  17.523  0.00  0.00    +0.000 C 
BRANCH  29  32
ATOM     32  S   UNL     1      10.098  15.376  18.346  0.00  0.00    +0.000 S 
ATOM     33  C   UNL     1      11.100  15.892  19.733  0.00  0.00    +0.000 C 
ATOM     34  O   UNL     1      10.737  14.206  17.775  0.00  0.00    +0.000 OA
ATOM     35  O   UNL     1       9.796  16.535  17.544  0.00  0.00    +0.000 OA
ENDBRANCH  29  32
ENDBRANCH  25  26
ENDBRANCH  23  25
ENDBRANCH  21  23
ENDBRANCH   3  19
TORSDOF 7
ENDMDL
MODEL 6
REMARK VINA RESULT:      -7.5      0.810      1.206
REMARK  Name = 
REMARK  10 active torsions:
REMARK  status: ('A' for Active; 'I' for Inactive)
REMARK    1  A    between atoms: C_1  and  C_2
REMARK    2  A    between atoms: C_5  and  C_6
REMARK    3  A    between atoms: C_8  and  C_9
REMARK    4  A    between atoms: N_11  and  C_12
REMARK    5  A    between atoms: C_12  and  C_13
REMARK    6  A    between atoms: C_12  and  C_14
REMARK    7  A    between atoms: C_14  and  N_15
REMARK    8  A    between atoms: N_18  and  S_19
REMARK    9  A    between atoms: S_19  and  C_20
REMARK   10  A    between atoms: C_26  and  C_27
REMARK                            x       y       z     vdW  Elec       q    Type
REMARK                         _______ _______ _______ _____ _____    ______ ____
ROOT
ATOM      1  C   UNL     1      -0.851  11.463  18.489  0.00  0.00    +0.000 A 
ATOM      2  C   UNL     1      -0.219  10.244  18.210  0.00  0.00    +0.000 A 
ATOM      3  C   UNL     1       1.168  10.088  18.328  0.00  0.00    +0.000 A 
ATOM      4  C   UNL     1       1.959  11.222  18.588  0.00  0.00    +0.000 A 
ATOM      5  C   UNL     1       1.370  12.485  18.775  0.00  0.00    +0.000 A 
ATOM      6  C   UNL     1      -0.035  12.577  18.752  0.00  0.00    +0.000 A 
ENDROOT
BRANCH   1  11
ATOM      7  C   UNL     1      -6.648  11.856  18.700  0.00  0.00    +0.000 C 
ATOM      8  C   UNL     1      -5.153  11.761  18.641  0.00  0.00    +0.000 A 
ATOM      9  C   UNL     1      -4.521  11.030  17.632  0.00  0.00    +0.000 A 
ATOM     10  C   UNL     1      -3.128  10.928  17.601  0.00  0.00    +0.000 A 
ATOM     11  C   UNL     1      -2.323  11.544  18.575  0.00  0.00    +0.000 A 
ATOM     12  C   UNL     1      -2.973  12.280  19.580  0.00  0.00    +0.000 A 
ATOM     13  C   UNL     1      -4.368  12.389  19.611  0.00  0.00    +0.000 A 
ENDBRANCH   1  11
BRANCH   5  14
ATOM     14  C   UNL     1       2.199  13.689  18.964  0.00  0.00    +0.000 A 
ATOM     15  C   UNL     1       2.855  14.466  18.022  0.00  0.00    +0.000 A 
ATOM     16  N   UNL     1       3.524  15.580  18.498  0.00  0.00    +0.000 NA
ATOM     17  C   UNL     1       3.385  15.638  19.803  0.00  0.00    +0.000 A 
ATOM     18  S   UNL     1       2.475  14.378  20.520  0.00  0.00    +0.000 S 
ENDBRANCH   5  14
BRANCH   3  19
ATOM     19  C   UNL     1       1.809   8.728  18.223  0.00  0.00    +0.000 C 
ATOM     20  O   UNL     1       2.535   8.458  17.271  0.00  0.00    +0.000 OA
ATOM     21  N   UNL     1       1.557   7.857  19.269  0.00  0.00    +0.000 N 
ATOM     22  H   UNL     1       1.168   8.251  20.112  0.00  0.00    +0.000 HD
BRANCH  21  23
ATOM     23  C   UNL     1       2.207   6.561  19.495  0.00  0.00    +0.000 C 
ATOM     24  C   UNL     1       1.625   5.867  20.727  0.00  0.00    +0.000 C 
BRANCH  23  25
ATOM     25  C   UNL     1       3.760   6.580  19.480  0.00  0.00    +0.000 C 
BRANCH  25  26
ATOM     26  N   UNL     1       4.361   5.276  19.109  0.00  0.00    +0.000 NA
ATOM     27  C   UNL     1       3.902   4.719  17.822  0.00  0.00    +0.000 C 
ATOM     28  C   UNL     1       4.454   5.406  16.555  0.00  0.00    +0.000 C 
ATOM     29  N   UNL     1       5.938   5.575  16.581  0.00  0.00    +0.000 NA
ATOM     30  C   UNL     1       6.427   6.101  17.893  0.00  0.00    +0.000 C 
ATOM     31  C   UNL     1       5.838   5.331  19.088  0.00  0.00    +0.000 C 
BRANCH  29  32
ATOM     32  S   UNL     1       6.868   4.351  15.872  0.00  0.00    +0.000 S 
ATOM     33  C   UNL     1       7.294   5.094  14.303  0.00  0.00    +0.000 C 
ATOM     34  O   UNL     1       8.100   4.220  16.626  0.00  0.00    +0.000 OA
ATOM     35  O   UNL     1       6.012   3.217  15.625  0.00  0.00    +0.000 OA
ENDBRANCH  29  32
ENDBRANCH  25  26
ENDBRANCH  23  25
ENDBRANCH  21  23
ENDBRANCH   3  19
TORSDOF 7
ENDMDL
MODEL 7
REMARK VINA RESULT:      -7.5      2.332      5.063
REMARK  Name = 
REMARK  10 active torsions:
REMARK  status: ('A' for Active; 'I' for Inactive)
REMARK    1  A    between atoms: C_1  and  C_2
REMARK    2  A    between atoms: C_5  and  C_6
REMARK    3  A    between atoms: C_8  and  C_9
REMARK    4  A    between atoms: N_11  and  C_12
REMARK    5  A    between atoms: C_12  and  C_13
REMARK    6  A    between atoms: C_12  and  C_14
REMARK    7  A    between atoms: C_14  and  N_15
REMARK    8  A    between atoms: N_18  and  S_19
REMARK    9  A    between atoms: S_19  and  C_20
REMARK   10  A    between atoms: C_26  and  C_27
REMARK                            x       y       z     vdW  Elec       q    Type
REMARK                         _______ _______ _______ _____ _____    ______ ____
ROOT
ATOM      1  C   UNL     1       1.000  12.286  19.127  0.00  0.00    +0.000 A 
ATOM      2  C   UNL     1       1.382  11.116  19.796  0.00  0.00    +0.000 A 
ATOM      3  C   UNL     1       0.605   9.951  19.745  0.00  0.00    +0.000 A 
ATOM      4  C   UNL     1      -0.658  10.003  19.129  0.00  0.00    +0.000 A 
ATOM      5  C   UNL     1      -1.121  11.189  18.531  0.00  0.00    +0.000 A 
ATOM      6  C   UNL     1      -0.265  12.307  18.515  0.00  0.00    +0.000 A 
ENDROOT
BRANCH   1  11
ATOM      7  C   UNL     1       4.579  16.836  18.586  0.00  0.00    +0.000 C 
ATOM      8  C   UNL     1       3.652  15.665  18.719  0.00  0.00    +0.000 A 
ATOM      9  C   UNL     1       2.453  15.777  19.427  0.00  0.00    +0.000 A 
ATOM     10  C   UNL     1       1.609  14.673  19.565  0.00  0.00    +0.000 A 
ATOM     11  C   UNL     1       1.935  13.423  19.010  0.00  0.00    +0.000 A 
ATOM     12  C   UNL     1       3.142  13.327  18.297  0.00  0.00    +0.000 A 
ATOM     13  C   UNL     1       3.987  14.433  18.151  0.00  0.00    +0.000 A 
ENDBRANCH   1  11
BRANCH   5  14
ATOM     14  C   UNL     1      -2.477  11.272  17.961  0.00  0.00    +0.000 A 
ATOM     15  C   UNL     1      -3.661  11.681  18.554  0.00  0.00    +0.000 A 
ATOM     16  N   UNL     1      -4.783  11.700  17.743  0.00  0.00    +0.000 NA
ATOM     17  C   UNL     1      -4.450  11.293  16.540  0.00  0.00    +0.000 A 
ATOM     18  S   UNL     1      -2.809  10.858  16.320  0.00  0.00    +0.000 S 
ENDBRANCH   5  14
BRANCH   3  19
ATOM     19  C   UNL     1       1.123   8.647  20.297  0.00  0.00    +0.000 C 
ATOM     20  O   UNL     1       0.966   8.372  21.483  0.00  0.00    +0.000 OA
ATOM     21  N   UNL     1       1.728   7.800  19.385  0.00  0.00    +0.000 N 
ATOM     22  H   UNL     1       1.581   7.997  18.407  0.00  0.00    +0.000 HD
BRANCH  21  23
ATOM     23  C   UNL     1       2.138   6.412  19.629  0.00  0.00    +0.000 C 
ATOM     24  C   UNL     1       1.391   5.825  20.827  0.00  0.00    +0.000 C 
BRANCH  23  25
ATOM     25  C   UNL     1       3.670   6.167  19.684  0.00  0.00    +0.000 C 
BRANCH  25  26
ATOM     26  N   UNL     1       4.115   5.025  18.848  0.00  0.00    +0.000 NA
ATOM     27  C   UNL     1       3.908   5.195  17.397  0.00  0.00    +0.000 C 
ATOM     28  C   UNL     1       4.872   6.170  16.688  0.00  0.00    +0.000 C 
ATOM     29  N   UNL     1       6.307   5.913  17.011  0.00  0.00    +0.000 NA
ATOM     30  C   UNL     1       6.531   5.698  18.474  0.00  0.00    +0.000 C 
ATOM     31  C   UNL     1       5.536   4.690  19.077  0.00  0.00    +0.000 C 
BRANCH  29  32
ATOM     32  S   UNL     1       7.163   4.893  15.965  0.00  0.00    +0.000 S 
ATOM     33  C   UNL     1       5.880   3.763  15.444  0.00  0.00    +0.000 C 
ATOM     34  O   UNL     1       7.551   5.660  14.797  0.00  0.00    +0.000 OA
ATOM     35  O   UNL     1       8.132   4.159  16.740  0.00  0.00    +0.000 OA
ENDBRANCH  29  32
ENDBRANCH  25  26
ENDBRANCH  23  25
ENDBRANCH  21  23
ENDBRANCH   3  19
TORSDOF 7
ENDMDL
MODEL 8
REMARK VINA RESULT:      -7.4      4.673      8.512
REMARK  Name = 
REMARK  10 active torsions:
REMARK  status: ('A' for Active; 'I' for Inactive)
REMARK    1  A    between atoms: C_1  and  C_2
REMARK    2  A    between atoms: C_5  and  C_6
REMARK    3  A    between atoms: C_8  and  C_9
REMARK    4  A    between atoms: N_11  and  C_12
REMARK    5  A    between atoms: C_12  and  C_13
REMARK    6  A    between atoms: C_12  and  C_14
REMARK    7  A    between atoms: C_14  and  N_15
REMARK    8  A    between atoms: N_18  and  S_19
REMARK    9  A    between atoms: S_19  and  C_20
REMARK   10  A    between atoms: C_26  and  C_27
REMARK                            x       y       z     vdW  Elec       q    Type
REMARK                         _______ _______ _______ _____ _____    ______ ____
ROOT
ATOM      1  C   UNL     1       1.019  10.054  18.626  0.00  0.00    +0.000 A 
ATOM      2  C   UNL     1       1.624  11.280  18.935  0.00  0.00    +0.000 A 
ATOM      3  C   UNL     1       0.898  12.478  18.944  0.00  0.00    +0.000 A 
ATOM      4  C   UNL     1      -0.434  12.469  18.492  0.00  0.00    +0.000 A 
ATOM      5  C   UNL     1      -1.048  11.273  18.079  0.00  0.00    +0.000 A 
ATOM      6  C   UNL     1      -0.314  10.075  18.183  0.00  0.00    +0.000 A 
ENDROOT
BRANCH   1  11
ATOM      7  C   UNL     1       3.793   4.996  19.351  0.00  0.00    +0.000 C 
ATOM      8  C   UNL     1       3.072   6.297  19.160  0.00  0.00    +0.000 A 
ATOM      9  C   UNL     1       3.217   7.030  17.981  0.00  0.00    +0.000 A 
ATOM     10  C   UNL     1       2.559   8.252  17.824  0.00  0.00    +0.000 A 
ATOM     11  C   UNL     1       1.744   8.784  18.839  0.00  0.00    +0.000 A 
ATOM     12  C   UNL     1       1.604   8.033  20.017  0.00  0.00    +0.000 A 
ATOM     13  C   UNL     1       2.256   6.805  20.175  0.00  0.00    +0.000 A 
ENDBRANCH   1  11
BRANCH   5  14
ATOM     14  C   UNL     1      -2.413  11.273  17.524  0.00  0.00    +0.000 A 
ATOM     15  C   UNL     1      -2.847  10.960  16.245  0.00  0.00    +0.000 A 
ATOM     16  N   UNL     1      -4.213  11.002  16.030  0.00  0.00    +0.000 NA
ATOM     17  C   UNL     1      -4.812  11.360  17.142  0.00  0.00    +0.000 A 
ATOM     18  S   UNL     1      -3.791  11.675  18.480  0.00  0.00    +0.000 S 
ENDBRANCH   5  14
BRANCH   3  19
ATOM     19  C   UNL     1       1.508  13.752  19.471  0.00  0.00    +0.000 C 
ATOM     20  O   UNL     1       1.729  13.881  20.671  0.00  0.00    +0.000 OA
ATOM     21  N   UNL     1       1.827  14.708  18.523  0.00  0.00    +0.000 N 
ATOM     22  H   UNL     1       1.847  14.412  17.559  0.00  0.00    +0.000 HD
BRANCH  21  23
ATOM     23  C   UNL     1       2.595  15.938  18.755  0.00  0.00    +0.000 C 
ATOM     24  C   UNL     1       1.780  17.171  18.365  0.00  0.00    +0.000 C 
BRANCH  23  25
ATOM     25  C   UNL     1       4.035  15.947  18.174  0.00  0.00    +0.000 C 
BRANCH  25  26
ATOM     26  N   UNL     1       4.887  14.851  18.695  0.00  0.00    +0.000 NA
ATOM     27  C   UNL     1       6.107  14.579  17.910  0.00  0.00    +0.000 C 
ATOM     28  C   UNL     1       7.243  15.614  18.051  0.00  0.00    +0.000 C 
ATOM     29  N   UNL     1       7.567  15.938  19.472  0.00  0.00    +0.000 NA
ATOM     30  C   UNL     1       6.340  16.177  20.294  0.00  0.00    +0.000 C 
ATOM     31  C   UNL     1       5.283  15.076  20.101  0.00  0.00    +0.000 C 
BRANCH  29  32
ATOM     32  S   UNL     1       8.798  15.039  20.208  0.00  0.00    +0.000 S 
ATOM     33  C   UNL     1      10.231  15.580  19.288  0.00  0.00    +0.000 C 
ATOM     34  O   UNL     1       8.963  15.519  21.567  0.00  0.00    +0.000 OA
ATOM     35  O   UNL     1       8.571  13.644  19.925  0.00  0.00    +0.000 OA
ENDBRANCH  29  32
ENDBRANCH  25  26
ENDBRANCH  23  25
ENDBRANCH  21  23
ENDBRANCH   3  19
TORSDOF 7
ENDMDL
MODEL 9
REMARK VINA RESULT:      -7.4      3.422      9.895
REMARK  Name = 
REMARK  10 active torsions:
REMARK  status: ('A' for Active; 'I' for Inactive)
REMARK    1  A    between atoms: C_1  and  C_2
REMARK    2  A    between atoms: C_5  and  C_6
REMARK    3  A    between atoms: C_8  and  C_9
REMARK    4  A    between atoms: N_11  and  C_12
REMARK    5  A    between atoms: C_12  and  C_13
REMARK    6  A    between atoms: C_12  and  C_14
REMARK    7  A    between atoms: C_14  and  N_15
REMARK    8  A    between atoms: N_18  and  S_19
REMARK    9  A    between atoms: S_19  and  C_20
REMARK   10  A    between atoms: C_26  and  C_27
REMARK                            x       y       z     vdW  Elec       q    Type
REMARK                         _______ _______ _______ _____ _____    ______ ____
ROOT
ATOM      1  C   UNL     1       3.940   5.826  17.258  0.00  0.00    +0.000 A 
ATOM      2  C   UNL     1       3.308   7.077  17.257  0.00  0.00    +0.000 A 
ATOM      3  C   UNL     1       2.466   7.478  18.302  0.00  0.00    +0.000 A 
ATOM      4  C   UNL     1       2.132   6.547  19.302  0.00  0.00    +0.000 A 
ATOM      5  C   UNL     1       2.668   5.247  19.284  0.00  0.00    +0.000 A 
ATOM      6  C   UNL     1       3.592   4.919  18.273  0.00  0.00    +0.000 A 
ENDROOT
BRANCH   1  11
ATOM      7  C   UNL     1       8.065   4.738  13.308  0.00  0.00    +0.000 C 
ATOM      8  C   UNL     1       6.999   5.024  14.323  0.00  0.00    +0.000 A 
ATOM      9  C   UNL     1       7.222   5.935  15.359  0.00  0.00    +0.000 A 
ATOM     10  C   UNL     1       6.230   6.176  16.312  0.00  0.00    +0.000 A 
ATOM     11  C   UNL     1       4.990   5.514  16.268  0.00  0.00    +0.000 A 
ATOM     12  C   UNL     1       4.779   4.605  15.218  0.00  0.00    +0.000 A 
ATOM     13  C   UNL     1       5.769   4.365  14.257  0.00  0.00    +0.000 A 
ENDBRANCH   1  11
BRANCH   5  14
ATOM     14  C   UNL     1       2.255   4.242  20.280  0.00  0.00    +0.000 A 
ATOM     15  C   UNL     1       2.640   4.101  21.604  0.00  0.00    +0.000 A 
ATOM     16  N   UNL     1       2.037   3.079  22.316  0.00  0.00    +0.000 NA
ATOM     17  C   UNL     1       1.206   2.437  21.527  0.00  0.00    +0.000 A 
ATOM     18  S   UNL     1       1.113   3.003  19.914  0.00  0.00    +0.000 S 
ENDBRANCH   5  14
BRANCH   3  19
ATOM     19  C   UNL     1       1.957   8.895  18.389  0.00  0.00    +0.000 C 
ATOM     20  O   UNL     1       2.189   9.691  17.484  0.00  0.00    +0.000 OA
ATOM     21  N   UNL     1       1.202   9.200  19.507  0.00  0.00    +0.000 N 
ATOM     22  H   UNL     1       0.857   8.426  20.054  0.00  0.00    +0.000 HD
BRANCH  21  23
ATOM     23  C   UNL     1       0.442  10.437  19.732  0.00  0.00    +0.000 C 
ATOM     24  C   UNL     1      -0.662  10.595  18.686  0.00  0.00    +0.000 C 
BRANCH  23  25
ATOM     25  C   UNL     1       1.295  11.720  19.920  0.00  0.00    +0.000 C 
BRANCH  25  26
ATOM     26  N   UNL     1       1.005  12.773  18.917  0.00  0.00    +0.000 NA
ATOM     27  C   UNL     1       0.429  14.017  19.464  0.00  0.00    +0.000 C 
ATOM     28  C   UNL     1       1.407  14.931  20.233  0.00  0.00    +0.000 C 
ATOM     29  N   UNL     1       2.672  15.195  19.484  0.00  0.00    +0.000 NA
ATOM     30  C   UNL     1       3.250  13.951  18.887  0.00  0.00    +0.000 C 
ATOM     31  C   UNL     1       2.199  13.127  18.122  0.00  0.00    +0.000 C 
BRANCH  29  32
ATOM     32  S   UNL     1       2.721  16.583  18.516  0.00  0.00    +0.000 S 
ATOM     33  C   UNL     1       0.983  16.974  18.370  0.00  0.00    +0.000 C 
ATOM     34  O   UNL     1       3.332  17.652  19.282  0.00  0.00    +0.000 OA
ATOM     35  O   UNL     1       3.218  16.210  17.215  0.00  0.00    +0.000 OA
ENDBRANCH  29  32
ENDBRANCH  25  26
ENDBRANCH  23  25
ENDBRANCH  21  23
ENDBRANCH   3  19
TORSDOF 7
ENDMDL
