MODEL 1
REMARK VINA RESULT:      -7.2      0.000      0.000
REMARK  Name = 
REMARK  5 active torsions:
REMARK  status: ('A' for Active; 'I' for Inactive)
REMARK    1  A    between atoms: S_2  and  C_4
REMARK    2  A    between atoms: S_2  and  N_11
REMARK    3  A    between atoms: C_15  and  S_16
REMARK    4  A    between atoms: S_16  and  C_17
REMARK    5  A    between atoms: C_17  and  C_18
REMARK                            x       y       z     vdW  Elec       q    Type
REMARK                         _______ _______ _______ _____ _____    ______ ____
ROOT
ATOM      1  N   UNL     1       2.213   3.041  19.406  0.00  0.00    +0.000 N 
ATOM      2  C   UNL     1       2.325   2.460  20.757  0.00  0.00    +0.000 C 
ATOM      3  C   UNL     1       2.191   3.699  21.639  0.00  0.00    +0.000 C 
ATOM      4  N   UNL     1       1.815   4.833  20.766  0.00  0.00    +0.000 NA
ATOM      5  C   UNL     1       1.923   4.413  19.546  0.00  0.00    +0.000 C 
ENDROOT
BRANCH   1   7
ATOM      6  O   UNL     1       2.422   2.306  16.999  0.00  0.00    +0.000 OA
ATOM      7  S   UNL     1       3.197   2.368  18.221  0.00  0.00    +0.000 S 
ATOM      8  O   UNL     1       3.891   1.204  18.726  0.00  0.00    +0.000 OA
BRANCH   7   9
ATOM      9  C   UNL     1       4.456   3.623  17.984  0.00  0.00    +0.000 A 
ATOM     10  C   UNL     1       4.650   4.162  16.707  0.00  0.00    +0.000 A 
ATOM     11  C   UNL     1       5.605   5.168  16.520  0.00  0.00    +0.000 A 
ATOM     12  C   UNL     1       6.350   5.632  17.605  0.00  0.00    +0.000 A 
ATOM     13 CL   UNL     1       7.531   6.861  17.367  0.00  0.00    +0.000 Cl
ATOM     14  C   UNL     1       6.141   5.111  18.881  0.00  0.00    +0.000 A 
ATOM     15  C   UNL     1       5.187   4.106  19.077  0.00  0.00    +0.000 A 
ENDBRANCH   7   9
ENDBRANCH   1   7
BRANCH   5  16
ATOM     16  S   UNL     1       1.617   5.457  18.202  0.00  0.00    +0.000 S 
BRANCH  16  17
ATOM     17  C   UNL     1       2.743   6.818  18.625  0.00  0.00    +0.000 C 
BRANCH  17  18
ATOM     18  C   UNL     1       2.050   8.122  18.916  0.00  0.00    +0.000 A 
ATOM     19  C   UNL     1       1.982   9.147  17.967  0.00  0.00    +0.000 A 
ATOM     20  C   UNL     1       1.395  10.366  18.303  0.00  0.00    +0.000 A 
ATOM     21  C   UNL     1       0.882  10.519  19.580  0.00  0.00    +0.000 A 
ATOM     22  N   UNL     1       0.916   9.551  20.520  0.00  0.00    +0.000 NA
ATOM     23  C   UNL     1       1.493   8.379  20.168  0.00  0.00    +0.000 A 
ENDBRANCH  17  18
ENDBRANCH  16  17
ENDBRANCH   5  16
TORSDOF 5
ENDMDL
MODEL 2
REMARK VINA RESULT:      -6.9      2.040      2.569
REMARK  Name = 
REMARK  5 active torsions:
REMARK  status: ('A' for Active; 'I' for Inactive)
REMARK    1  A    between atoms: S_2  and  C_4
REMARK    2  A    between atoms: S_2  and  N_11
REMARK    3  A    between atoms: C_15  and  S_16
REMARK    4  A    between atoms: S_16  and  C_17
REMARK    5  A    between atoms: C_17  and  C_18
REMARK                            x       y       z     vdW  Elec       q    Type
REMARK                         _______ _______ _______ _____ _____    ______ ____
ROOT
ATOM      1  N   UNL     1       3.222   4.035  18.899  0.00  0.00    +0.000 N 
ATOM      2  C   UNL     1       2.639   2.686  19.011  0.00  0.00    +0.000 C 
ATOM      3  C   UNL     1       1.310   2.979  19.702  0.00  0.00    +0.000 C 
ATOM      4  N   UNL     1       1.142   4.449  19.746  0.00  0.00    +0.000 NA
ATOM      5  C   UNL     1       2.265   4.962  19.357  0.00  0.00    +0.000 C 
ENDROOT
BRANCH   1   7
ATOM      6  O   UNL     1       5.342   2.864  19.614  0.00  0.00    +0.000 OA
ATOM      7  S   UNL     1       4.883   4.151  19.134  0.00  0.00    +0.000 S 
ATOM      8  O   UNL     1       5.221   5.373  19.830  0.00  0.00    +0.000 OA
BRANCH   7   9
ATOM      9  C   UNL     1       5.512   4.348  17.467  0.00  0.00    +0.000 A 
ATOM     10  C   UNL     1       6.868   4.641  17.279  0.00  0.00    +0.000 A 
ATOM     11  C   UNL     1       7.376   4.760  15.981  0.00  0.00    +0.000 A 
ATOM     12  C   UNL     1       6.533   4.579  14.884  0.00  0.00    +0.000 A 
ATOM     13 CL   UNL     1       7.160   4.738  13.289  0.00  0.00    +0.000 Cl
ATOM     14  C   UNL     1       5.187   4.265  15.070  0.00  0.00    +0.000 A 
ATOM     15  C   UNL     1       4.672   4.143  16.365  0.00  0.00    +0.000 A 
ENDBRANCH   7   9
ENDBRANCH   1   7
BRANCH   5  16
ATOM     16  S   UNL     1       2.507   6.673  19.310  0.00  0.00    +0.000 S 
BRANCH  16  17
ATOM     17  C   UNL     1       1.529   7.149  20.765  0.00  0.00    +0.000 C 
BRANCH  17  18
ATOM     18  C   UNL     1       1.171   8.610  20.815  0.00  0.00    +0.000 A 
ATOM     19  C   UNL     1       0.980   9.361  19.651  0.00  0.00    +0.000 A 
ATOM     20  C   UNL     1       0.722  10.727  19.740  0.00  0.00    +0.000 A 
ATOM     21  C   UNL     1       0.654  11.302  20.999  0.00  0.00    +0.000 A 
ATOM     22  N   UNL     1       0.821  10.611  22.146  0.00  0.00    +0.000 NA
ATOM     23  C   UNL     1       1.070   9.288  22.029  0.00  0.00    +0.000 A 
ENDBRANCH  17  18
ENDBRANCH  16  17
ENDBRANCH   5  16
TORSDOF 5
ENDMDL
MODEL 3
REMARK VINA RESULT:      -6.8      3.193      6.093
REMARK  Name = 
REMARK  5 active torsions:
REMARK  status: ('A' for Active; 'I' for Inactive)
REMARK    1  A    between atoms: S_2  and  C_4
REMARK    2  A    between atoms: S_2  and  N_11
REMARK    3  A    between atoms: C_15  and  S_16
REMARK    4  A    between atoms: S_16  and  C_17
REMARK    5  A    between atoms: C_17  and  C_18
REMARK                            x       y       z     vdW  Elec       q    Type
REMARK                         _______ _______ _______ _____ _____    ______ ____
ROOT
ATOM      1  N   UNL     1       3.612   4.739  19.195  0.00  0.00    +0.000 N 
ATOM      2  C   UNL     1       2.869   3.579  19.719  0.00  0.00    +0.000 C 
ATOM      3  C   UNL     1       3.995   2.581  19.979  0.00  0.00    +0.000 C 
ATOM      4  N   UNL     1       5.278   3.293  19.787  0.00  0.00    +0.000 NA
ATOM      5  C   UNL     1       4.988   4.450  19.282  0.00  0.00    +0.000 C 
ENDROOT
BRANCH   1   7
ATOM      6  O   UNL     1       1.752   4.808  17.488  0.00  0.00    +0.000 OA
ATOM      7  S   UNL     1       2.874   5.598  17.952  0.00  0.00    +0.000 S 
ATOM      8  O   UNL     1       3.857   6.116  17.027  0.00  0.00    +0.000 OA
BRANCH   7   9
ATOM      9  C   UNL     1       2.198   7.027  18.798  0.00  0.00    +0.000 A 
ATOM     10  C   UNL     1       1.956   6.955  20.175  0.00  0.00    +0.000 A 
ATOM     11  C   UNL     1       1.463   8.077  20.850  0.00  0.00    +0.000 A 
ATOM     12  C   UNL     1       1.224   9.261  20.151  0.00  0.00    +0.000 A 
ATOM     13 CL   UNL     1       0.607  10.635  20.984  0.00  0.00    +0.000 Cl
ATOM     14  C   UNL     1       1.486   9.341  18.784  0.00  0.00    +0.000 A 
ATOM     15  C   UNL     1       1.980   8.223  18.102  0.00  0.00    +0.000 A 
ENDBRANCH   7   9
ENDBRANCH   1   7
BRANCH   5  16
ATOM     16  S   UNL     1       6.223   5.584  18.858  0.00  0.00    +0.000 S 
BRANCH  16  17
ATOM     17  C   UNL     1       7.277   4.506  17.844  0.00  0.00    +0.000 C 
BRANCH  17  18
ATOM     18  C   UNL     1       6.948   4.529  16.376  0.00  0.00    +0.000 A 
ATOM     19  C   UNL     1       5.958   3.706  15.830  0.00  0.00    +0.000 A 
ATOM     20  C   UNL     1       5.736   3.706  14.454  0.00  0.00    +0.000 A 
ATOM     21  C   UNL     1       6.509   4.541  13.664  0.00  0.00    +0.000 A 
ATOM     22  N   UNL     1       7.465   5.358  14.152  0.00  0.00    +0.000 NA
ATOM     23  C   UNL     1       7.660   5.337  15.490  0.00  0.00    +0.000 A 
ENDBRANCH  17  18
ENDBRANCH  16  17
ENDBRANCH   5  16
TORSDOF 5
ENDMDL
MODEL 4
REMARK VINA RESULT:      -6.8      2.093      2.756
REMARK  Name = 
REMARK  5 active torsions:
REMARK  status: ('A' for Active; 'I' for Inactive)
REMARK    1  A    between atoms: S_2  and  C_4
REMARK    2  A    between atoms: S_2  and  N_11
REMARK    3  A    between atoms: C_15  and  S_16
REMARK    4  A    between atoms: S_16  and  C_17
REMARK    5  A    between atoms: C_17  and  C_18
REMARK                            x       y       z     vdW  Elec       q    Type
REMARK                         _______ _______ _______ _____ _____    ______ ____
ROOT
ATOM      1  N   UNL     1       3.220   4.047  18.842  0.00  0.00    +0.000 N 
ATOM      2  C   UNL     1       2.654   2.690  18.937  0.00  0.00    +0.000 C 
ATOM      3  C   UNL     1       1.302   2.964  19.591  0.00  0.00    +0.000 C 
ATOM      4  N   UNL     1       1.111   4.431  19.631  0.00  0.00    +0.000 NA
ATOM      5  C   UNL     1       2.238   4.960  19.274  0.00  0.00    +0.000 C 
ENDROOT
BRANCH   1   7
ATOM      6  O   UNL     1       5.339   2.904  19.605  0.00  0.00    +0.000 OA
ATOM      7  S   UNL     1       4.872   4.187  19.122  0.00  0.00    +0.000 S 
ATOM      8  O   UNL     1       5.173   5.409  19.836  0.00  0.00    +0.000 OA
BRANCH   7   9
ATOM      9  C   UNL     1       5.543   4.407  17.475  0.00  0.00    +0.000 A 
ATOM     10  C   UNL     1       6.905   4.691  17.324  0.00  0.00    +0.000 A 
ATOM     11  C   UNL     1       7.446   4.827  16.041  0.00  0.00    +0.000 A 
ATOM     12  C   UNL     1       6.628   4.672  14.920  0.00  0.00    +0.000 A 
ATOM     13 CL   UNL     1       7.294   4.852  13.344  0.00  0.00    +0.000 Cl
ATOM     14  C   UNL     1       5.275   4.367  15.069  0.00  0.00    +0.000 A 
ATOM     15  C   UNL     1       4.728   4.228  16.349  0.00  0.00    +0.000 A 
ENDBRANCH   7   9
ENDBRANCH   1   7
BRANCH   5  16
ATOM     16  S   UNL     1       2.456   6.675  19.234  0.00  0.00    +0.000 S 
BRANCH  16  17
ATOM     17  C   UNL     1       1.687   7.106  20.822  0.00  0.00    +0.000 C 
BRANCH  17  18
ATOM     18  C   UNL     1       1.122   8.501  20.873  0.00  0.00    +0.000 A 
ATOM     19  C   UNL     1       0.573   9.030  22.045  0.00  0.00    +0.000 A 
ATOM     20  C   UNL     1      -0.005  10.298  22.030  0.00  0.00    +0.000 A 
ATOM     21  C   UNL     1      -0.009  11.005  20.838  0.00  0.00    +0.000 A 
ATOM     22  N   UNL     1       0.521  10.535  19.690  0.00  0.00    +0.000 NA
ATOM     23  C   UNL     1       1.074   9.302  19.733  0.00  0.00    +0.000 A 
ENDBRANCH  17  18
ENDBRANCH  16  17
ENDBRANCH   5  16
TORSDOF 5
ENDMDL
MODEL 5
REMARK VINA RESULT:      -6.8      2.116      2.673
REMARK  Name = 
REMARK  5 active torsions:
REMARK  status: ('A' for Active; 'I' for Inactive)
REMARK    1  A    between atoms: S_2  and  C_4
REMARK    2  A    between atoms: S_2  and  N_11
REMARK    3  A    between atoms: C_15  and  S_16
REMARK    4  A    between atoms: S_16  and  C_17
REMARK    5  A    between atoms: C_17  and  C_18
REMARK                            x       y       z     vdW  Elec       q    Type
REMARK                         _______ _______ _______ _____ _____    ______ ____
ROOT
ATOM      1  N   UNL     1       3.247   4.077  18.815  0.00  0.00    +0.000 N 
ATOM      2  C   UNL     1       2.671   2.721  18.854  0.00  0.00    +0.000 C 
ATOM      3  C   UNL     1       1.317   2.978  19.511  0.00  0.00    +0.000 C 
ATOM      4  N   UNL     1       1.136   4.444  19.606  0.00  0.00    +0.000 NA
ATOM      5  C   UNL     1       2.268   4.979  19.277  0.00  0.00    +0.000 C 
ENDROOT
BRANCH   1   7
ATOM      6  O   UNL     1       5.336   2.917  19.635  0.00  0.00    +0.000 OA
ATOM      7  S   UNL     1       4.898   4.195  19.110  0.00  0.00    +0.000 S 
ATOM      8  O   UNL     1       5.214   5.430  19.792  0.00  0.00    +0.000 OA
BRANCH   7   9
ATOM      9  C   UNL     1       5.591   4.354  17.465  0.00  0.00    +0.000 A 
ATOM     10  C   UNL     1       4.746   4.241  16.354  0.00  0.00    +0.000 A 
ATOM     11  C   UNL     1       5.271   4.401  15.067  0.00  0.00    +0.000 A 
ATOM     12  C   UNL     1       6.628   4.680  14.897  0.00  0.00    +0.000 A 
ATOM     13 CL   UNL     1       7.271   4.864  13.312  0.00  0.00    +0.000 Cl
ATOM     14  C   UNL     1       7.466   4.815  16.004  0.00  0.00    +0.000 A 
ATOM     15  C   UNL     1       6.948   4.658  17.295  0.00  0.00    +0.000 A 
ENDBRANCH   7   9
ENDBRANCH   1   7
BRANCH   5  16
ATOM     16  S   UNL     1       2.498   6.692  19.305  0.00  0.00    +0.000 S 
BRANCH  16  17
ATOM     17  C   UNL     1       1.603   7.084  20.837  0.00  0.00    +0.000 C 
BRANCH  17  18
ATOM     18  C   UNL     1       1.082   8.495  20.901  0.00  0.00    +0.000 A 
ATOM     19  C   UNL     1       0.532   9.024  22.073  0.00  0.00    +0.000 A 
ATOM     20  C   UNL     1      -0.005  10.309  22.069  0.00  0.00    +0.000 A 
ATOM     21  C   UNL     1       0.034  11.034  20.889  0.00  0.00    +0.000 A 
ATOM     22  N   UNL     1       0.566  10.565  19.741  0.00  0.00    +0.000 NA
ATOM     23  C   UNL     1       1.079   9.315  19.773  0.00  0.00    +0.000 A 
ENDBRANCH  17  18
ENDBRANCH  16  17
ENDBRANCH   5  16
TORSDOF 5
ENDMDL
MODEL 6
REMARK VINA RESULT:      -6.8      0.959      1.337
REMARK  Name = 
REMARK  5 active torsions:
REMARK  status: ('A' for Active; 'I' for Inactive)
REMARK    1  A    between atoms: S_2  and  C_4
REMARK    2  A    between atoms: S_2  and  N_11
REMARK    3  A    between atoms: C_15  and  S_16
REMARK    4  A    between atoms: S_16  and  C_17
REMARK    5  A    between atoms: C_17  and  C_18
REMARK                            x       y       z     vdW  Elec       q    Type
REMARK                         _______ _______ _______ _____ _____    ______ ____
ROOT
ATOM      1  N   UNL     1       2.168   3.458  19.269  0.00  0.00    +0.000 N 
ATOM      2  C   UNL     1       2.151   2.494  20.384  0.00  0.00    +0.000 C 
ATOM      3  C   UNL     1       2.210   3.421  21.596  0.00  0.00    +0.000 C 
ATOM      4  N   UNL     1       2.050   4.809  21.107  0.00  0.00    +0.000 NA
ATOM      5  C   UNL     1       2.111   4.756  19.815  0.00  0.00    +0.000 C 
ENDROOT
BRANCH   1   7
ATOM      6  O   UNL     1       2.241   3.324  16.748  0.00  0.00    +0.000 OA
ATOM      7  S   UNL     1       3.049   3.010  17.909  0.00  0.00    +0.000 S 
ATOM      8  O   UNL     1       3.633   1.699  18.081  0.00  0.00    +0.000 OA
BRANCH   7   9
ATOM      9  C   UNL     1       4.422   4.162  17.923  0.00  0.00    +0.000 A 
ATOM     10  C   UNL     1       4.647   4.970  16.802  0.00  0.00    +0.000 A 
ATOM     11  C   UNL     1       5.694   5.898  16.818  0.00  0.00    +0.000 A 
ATOM     12  C   UNL     1       6.502   6.019  17.950  0.00  0.00    +0.000 A 
ATOM     13 CL   UNL     1       7.795   7.153  17.960  0.00  0.00    +0.000 Cl
ATOM     14  C   UNL     1       6.264   5.229  19.075  0.00  0.00    +0.000 A 
ATOM     15  C   UNL     1       5.218   4.300  19.068  0.00  0.00    +0.000 A 
ENDBRANCH   7   9
ENDBRANCH   1   7
BRANCH   5  16
ATOM     16  S   UNL     1       2.015   6.186  18.848  0.00  0.00    +0.000 S 
BRANCH  16  17
ATOM     17  C   UNL     1       2.136   7.437  20.161  0.00  0.00    +0.000 C 
BRANCH  17  18
ATOM     18  C   UNL     1       1.304   8.667  19.916  0.00  0.00    +0.000 A 
ATOM     19  C   UNL     1       0.421   9.163  20.880  0.00  0.00    +0.000 A 
ATOM     20  C   UNL     1      -0.383  10.261  20.585  0.00  0.00    +0.000 A 
ATOM     21  C   UNL     1      -0.274  10.839  19.331  0.00  0.00    +0.000 A 
ATOM     22  N   UNL     1       0.573  10.399  18.378  0.00  0.00    +0.000 NA
ATOM     23  C   UNL     1       1.342   9.331  18.690  0.00  0.00    +0.000 A 
ENDBRANCH  17  18
ENDBRANCH  16  17
ENDBRANCH   5  16
TORSDOF 5
ENDMDL
MODEL 7
REMARK VINA RESULT:      -6.8      1.329      1.627
REMARK  Name = 
REMARK  5 active torsions:
REMARK  status: ('A' for Active; 'I' for Inactive)
REMARK    1  A    between atoms: S_2  and  C_4
REMARK    2  A    between atoms: S_2  and  N_11
REMARK    3  A    between atoms: C_15  and  S_16
REMARK    4  A    between atoms: S_16  and  C_17
REMARK    5  A    between atoms: C_17  and  C_18
REMARK                            x       y       z     vdW  Elec       q    Type
REMARK                         _______ _______ _______ _____ _____    ______ ____
ROOT
ATOM      1  N   UNL     1       1.733   3.737  19.547  0.00  0.00    +0.000 N 
ATOM      2  C   UNL     1       1.682   2.492  20.336  0.00  0.00    +0.000 C 
ATOM      3  C   UNL     1       2.208   2.961  21.690  0.00  0.00    +0.000 C 
ATOM      4  N   UNL     1       2.321   4.436  21.641  0.00  0.00    +0.000 NA
ATOM      5  C   UNL     1       2.118   4.782  20.410  0.00  0.00    +0.000 C 
ENDROOT
BRANCH   1   7
ATOM      6  O   UNL     1       1.262   4.359  17.146  0.00  0.00    +0.000 OA
ATOM      7  S   UNL     1       2.192   3.582  17.938  0.00  0.00    +0.000 S 
ATOM      8  O   UNL     1       2.480   2.202  17.614  0.00  0.00    +0.000 OA
BRANCH   7   9
ATOM      9  C   UNL     1       3.769   4.433  17.886  0.00  0.00    +0.000 A 
ATOM     10  C   UNL     1       3.882   5.617  17.147  0.00  0.00    +0.000 A 
ATOM     11  C   UNL     1       5.098   6.308  17.130  0.00  0.00    +0.000 A 
ATOM     12  C   UNL     1       6.187   5.821  17.855  0.00  0.00    +0.000 A 
ATOM     13 CL   UNL     1       7.683   6.669  17.822  0.00  0.00    +0.000 Cl
ATOM     14  C   UNL     1       6.068   4.654  18.609  0.00  0.00    +0.000 A 
ATOM     15  C   UNL     1       4.855   3.958  18.632  0.00  0.00    +0.000 A 
ENDBRANCH   7   9
ENDBRANCH   1   7
BRANCH   5  16
ATOM     16  S   UNL     1       2.212   6.435  19.911  0.00  0.00    +0.000 S 
BRANCH  16  17
ATOM     17  C   UNL     1       1.120   7.181  21.157  0.00  0.00    +0.000 C 
BRANCH  17  18
ATOM     18  C   UNL     1       0.929   8.665  20.998  0.00  0.00    +0.000 A 
ATOM     19  C   UNL     1       0.959   9.280  19.742  0.00  0.00    +0.000 A 
ATOM     20  C   UNL     1       0.850  10.666  19.645  0.00  0.00    +0.000 A 
ATOM     21  C   UNL     1       0.705  11.397  20.813  0.00  0.00    +0.000 A 
ATOM     22  N   UNL     1       0.660  10.842  22.041  0.00  0.00    +0.000 NA
ATOM     23  C   UNL     1       0.768   9.495  22.106  0.00  0.00    +0.000 A 
ENDBRANCH  17  18
ENDBRANCH  16  17
ENDBRANCH   5  16
TORSDOF 5
ENDMDL
MODEL 8
REMARK VINA RESULT:      -6.7      2.018      2.408
REMARK  Name = 
REMARK  5 active torsions:
REMARK  status: ('A' for Active; 'I' for Inactive)
REMARK    1  A    between atoms: S_2  and  C_4
REMARK    2  A    between atoms: S_2  and  N_11
REMARK    3  A    between atoms: C_15  and  S_16
REMARK    4  A    between atoms: S_16  and  C_17
REMARK    5  A    between atoms: C_17  and  C_18
REMARK                            x       y       z     vdW  Elec       q    Type
REMARK                         _______ _______ _______ _____ _____    ______ ____
ROOT
ATOM      1  N   UNL     1       3.230   4.009  18.792  0.00  0.00    +0.000 N 
ATOM      2  C   UNL     1       2.654   2.663  18.963  0.00  0.00    +0.000 C 
ATOM      3  C   UNL     1       1.285   2.984  19.556  0.00  0.00    +0.000 C 
ATOM      4  N   UNL     1       1.101   4.452  19.490  0.00  0.00    +0.000 NA
ATOM      5  C   UNL     1       2.240   4.952  19.132  0.00  0.00    +0.000 C 
ENDROOT
BRANCH   1   7
ATOM      6  O   UNL     1       5.331   2.895  19.643  0.00  0.00    +0.000 OA
ATOM      7  S   UNL     1       4.873   4.163  19.113  0.00  0.00    +0.000 S 
ATOM      8  O   UNL     1       5.152   5.404  19.799  0.00  0.00    +0.000 OA
BRANCH   7   9
ATOM      9  C   UNL     1       5.587   4.338  17.478  0.00  0.00    +0.000 A 
ATOM     10  C   UNL     1       4.756   4.239  16.355  0.00  0.00    +0.000 A 
ATOM     11  C   UNL     1       5.297   4.412  15.077  0.00  0.00    +0.000 A 
ATOM     12  C   UNL     1       6.657   4.689  14.927  0.00  0.00    +0.000 A 
ATOM     13 CL   UNL     1       7.320   4.889  13.352  0.00  0.00    +0.000 Cl
ATOM     14  C   UNL     1       7.481   4.810  16.046  0.00  0.00    +0.000 A 
ATOM     15  C   UNL     1       6.947   4.640  17.328  0.00  0.00    +0.000 A 
ENDBRANCH   7   9
ENDBRANCH   1   7
BRANCH   5  16
ATOM     16  S   UNL     1       2.468   6.659  18.982  0.00  0.00    +0.000 S 
BRANCH  16  17
ATOM     17  C   UNL     1       1.894   7.178  20.626  0.00  0.00    +0.000 C 
BRANCH  17  18
ATOM     18  C   UNL     1       1.178   8.502  20.638  0.00  0.00    +0.000 A 
ATOM     19  C   UNL     1       1.120   9.317  19.504  0.00  0.00    +0.000 A 
ATOM     20  C   UNL     1       0.511  10.568  19.578  0.00  0.00    +0.000 A 
ATOM     21  C   UNL     1      -0.033  10.963  20.789  0.00  0.00    +0.000 A 
ATOM     22  N   UNL     1      -0.009  10.202  21.903  0.00  0.00    +0.000 NA
ATOM     23  C   UNL     1       0.589   8.993  21.802  0.00  0.00    +0.000 A 
ENDBRANCH  17  18
ENDBRANCH  16  17
ENDBRANCH   5  16
TORSDOF 5
ENDMDL
MODEL 9
REMARK VINA RESULT:      -6.6      2.463      2.984
REMARK  Name = 
REMARK  5 active torsions:
REMARK  status: ('A' for Active; 'I' for Inactive)
REMARK    1  A    between atoms: S_2  and  C_4
REMARK    2  A    between atoms: S_2  and  N_11
REMARK    3  A    between atoms: C_15  and  S_16
REMARK    4  A    between atoms: S_16  and  C_17
REMARK    5  A    between atoms: C_17  and  C_18
REMARK                            x       y       z     vdW  Elec       q    Type
REMARK                         _______ _______ _______ _____ _____    ______ ____
ROOT
ATOM      1  N   UNL     1       4.372   4.019  18.614  0.00  0.00    +0.000 N 
ATOM      2  C   UNL     1       4.654   2.784  19.369  0.00  0.00    +0.000 C 
ATOM      3  C   UNL     1       3.441   2.701  20.291  0.00  0.00    +0.000 C 
ATOM      4  N   UNL     1       2.482   3.745  19.867  0.00  0.00    +0.000 NA
ATOM      5  C   UNL     1       3.095   4.478  18.993  0.00  0.00    +0.000 C 
ENDROOT
BRANCH   1   7
ATOM      6  O   UNL     1       6.838   4.443  18.958  0.00  0.00    +0.000 OA
ATOM      7  S   UNL     1       5.694   4.996  18.262  0.00  0.00    +0.000 S 
ATOM      8  O   UNL     1       5.350   6.395  18.385  0.00  0.00    +0.000 OA
BRANCH   7   9
ATOM      9  C   UNL     1       5.951   4.709  16.512  0.00  0.00    +0.000 A 
ATOM     10  C   UNL     1       7.160   5.104  15.925  0.00  0.00    +0.000 A 
ATOM     11  C   UNL     1       7.385   4.850  14.568  0.00  0.00    +0.000 A 
ATOM     12  C   UNL     1       6.410   4.201  13.809  0.00  0.00    +0.000 A 
ATOM     13 CL   UNL     1       6.686   3.902  12.137  0.00  0.00    +0.000 Cl
ATOM     14  C   UNL     1       5.215   3.788  14.398  0.00  0.00    +0.000 A 
ATOM     15  C   UNL     1       4.983   4.036  15.755  0.00  0.00    +0.000 A 
ENDBRANCH   7   9
ENDBRANCH   1   7
BRANCH   5  16
ATOM     16  S   UNL     1       2.333   5.855  18.277  0.00  0.00    +0.000 S 
BRANCH  16  17
ATOM     17  C   UNL     1       2.211   6.920  19.743  0.00  0.00    +0.000 C 
BRANCH  17  18
ATOM     18  C   UNL     1       1.716   8.312  19.452  0.00  0.00    +0.000 A 
ATOM     19  C   UNL     1       1.929   8.925  18.214  0.00  0.00    +0.000 A 
ATOM     20  C   UNL     1       1.519  10.241  18.011  0.00  0.00    +0.000 A 
ATOM     21  C   UNL     1       0.896  10.904  19.056  0.00  0.00    +0.000 A 
ATOM     22  N   UNL     1       0.661  10.344  20.261  0.00  0.00    +0.000 NA
ATOM     23  C   UNL     1       1.070   9.067  20.430  0.00  0.00    +0.000 A 
ENDBRANCH  17  18
ENDBRANCH  16  17
ENDBRANCH   5  16
TORSDOF 5
ENDMDL
