MODEL 1
REMARK VINA RESULT:      -8.8      0.000      0.000
REMARK  Name = 
REMARK  10 active torsions:
REMARK  status: ('A' for Active; 'I' for Inactive)
REMARK    1  A    between atoms: C_1  and  C_2
REMARK    2  A    between atoms: C_2  and  C_3
REMARK    3  A    between atoms: C_2  and  C_4
REMARK    4  A    between atoms: C_4  and  N_5
REMARK    5  A    between atoms: C_6  and  C_8
REMARK    6  A    between atoms: C_12  and  N_13
REMARK    7  A    between atoms: C_14  and  C_16
REMARK    8  A    between atoms: C_16  and  O_17
REMARK    9  A    between atoms: O_17  and  C_18
REMARK   10  A    between atoms: C_22  and  N_23
REMARK                            x       y       z     vdW  Elec       q    Type
REMARK                         _______ _______ _______ _____ _____    ______ ____
ROOT
ATOM      1  N   UNL     1       4.616   3.383  18.677  0.00  0.00    +0.000 N 
ATOM      2  C   UNL     1       3.268   3.594  18.859  0.00  0.00    +0.000 C 
ATOM      3  O   UNL     1       2.574   2.739  19.411  0.00  0.00    +0.000 OA
ATOM      4  H   UNL     1       4.969   2.480  18.969  0.00  0.00    +0.000 HD
ENDROOT
BRANCH   1   9
ATOM      5  C   UNL     1       6.645   4.981  16.029  0.00  0.00    +0.000 A 
ATOM      6  C   UNL     1       7.358   5.931  16.777  0.00  0.00    +0.000 A 
ATOM      7  C   UNL     1       7.126   6.048  18.150  0.00  0.00    +0.000 A 
ATOM      8  C   UNL     1       6.190   5.223  18.778  0.00  0.00    +0.000 A 
ATOM      9  C   UNL     1       5.491   4.275  18.031  0.00  0.00    +0.000 A 
ATOM     10  C   UNL     1       5.713   4.149  16.662  0.00  0.00    +0.000 A 
BRANCH   5  12
ATOM     11  N   UNL     1       6.233   3.853  13.915  0.00  0.00    +0.000 N 
ATOM     12  C   UNL     1       6.933   4.836  14.577  0.00  0.00    +0.000 C 
ATOM     13  O   UNL     1       7.752   5.579  14.039  0.00  0.00    +0.000 OA
ATOM     14  H   UNL     1       5.557   3.285  14.412  0.00  0.00    +0.000 HD
BRANCH  11  15
ATOM     15  C   UNL     1       6.431   3.567  12.506  0.00  0.00    +0.000 C 
BRANCH  15  17
ATOM     16  C   UNL     1       4.299   3.153  11.217  0.00  0.00    +0.000 C 
ATOM     17  C   UNL     1       5.451   2.504  11.989  0.00  0.00    +0.000 C 
ATOM     18  C   UNL     1       6.160   1.489  11.092  0.00  0.00    +0.000 C 
ENDBRANCH  15  17
ENDBRANCH  11  15
ENDBRANCH   5  12
ENDBRANCH   1   9
BRANCH   2  19
ATOM     19  C   UNL     1       2.693   4.927  18.384  0.00  0.00    +0.000 C 
BRANCH  19  20
ATOM     20  O   UNL     1       2.746   5.779  19.515  0.00  0.00    +0.000 OA
BRANCH  20  21
ATOM     21  C   UNL     1       2.255   7.043  19.400  0.00  0.00    +0.000 A 
ATOM     22  C   UNL     1       2.393   7.585  18.118  0.00  0.00    +0.000 A 
ATOM     23  C   UNL     1       1.954   8.878  17.828  0.00  0.00    +0.000 A 
ATOM     24  C   UNL     1       1.362   9.643  18.830  0.00  0.00    +0.000 A 
ATOM     25  C   UNL     1       1.223   9.104  20.115  0.00  0.00    +0.000 A 
ATOM     26  C   UNL     1       1.669   7.804  20.411  0.00  0.00    +0.000 A 
BRANCH  25  27
ATOM     27  N   UNL     1       0.617   9.920  21.176  0.00  0.00    +0.000 N 
ATOM     28  O   UNL     1      -0.373   9.463  21.765  0.00  0.00    +0.000 OA
ATOM     29  O   UNL     1       1.129  11.024  21.418  0.00  0.00    +0.000 OA
ENDBRANCH  25  27
ENDBRANCH  20  21
ENDBRANCH  19  20
ENDBRANCH   2  19
TORSDOF 8
ENDMDL
MODEL 2
REMARK VINA RESULT:      -8.6      1.754      2.337
REMARK  Name = 
REMARK  10 active torsions:
REMARK  status: ('A' for Active; 'I' for Inactive)
REMARK    1  A    between atoms: C_1  and  C_2
REMARK    2  A    between atoms: C_2  and  C_3
REMARK    3  A    between atoms: C_2  and  C_4
REMARK    4  A    between atoms: C_4  and  N_5
REMARK    5  A    between atoms: C_6  and  C_8
REMARK    6  A    between atoms: C_12  and  N_13
REMARK    7  A    between atoms: C_14  and  C_16
REMARK    8  A    between atoms: C_16  and  O_17
REMARK    9  A    between atoms: O_17  and  C_18
REMARK   10  A    between atoms: C_22  and  N_23
REMARK                            x       y       z     vdW  Elec       q    Type
REMARK                         _______ _______ _______ _____ _____    ______ ____
ROOT
ATOM      1  N   UNL     1       5.245   3.167  18.926  0.00  0.00    +0.000 N 
ATOM      2  C   UNL     1       4.061   2.479  18.778  0.00  0.00    +0.000 C 
ATOM      3  O   UNL     1       3.801   1.524  19.510  0.00  0.00    +0.000 OA
ATOM      4  H   UNL     1       5.886   2.803  19.620  0.00  0.00    +0.000 HD
ENDROOT
BRANCH   1   9
ATOM      5  C   UNL     1       6.467   5.083  16.008  0.00  0.00    +0.000 A 
ATOM      6  C   UNL     1       6.636   6.355  16.576  0.00  0.00    +0.000 A 
ATOM      7  C   UNL     1       6.306   6.563  17.918  0.00  0.00    +0.000 A 
ATOM      8  C   UNL     1       5.812   5.511  18.693  0.00  0.00    +0.000 A 
ATOM      9  C   UNL     1       5.654   4.247  18.125  0.00  0.00    +0.000 A 
ATOM     10  C   UNL     1       5.980   4.027  16.789  0.00  0.00    +0.000 A 
BRANCH   5  12
ATOM     11  N   UNL     1       6.098   3.967  13.879  0.00  0.00    +0.000 N 
ATOM     12  C   UNL     1       6.864   4.862  14.591  0.00  0.00    +0.000 C 
ATOM     13  O   UNL     1       7.824   5.472  14.124  0.00  0.00    +0.000 OA
ATOM     14  H   UNL     1       5.307   3.510  14.317  0.00  0.00    +0.000 HD
BRANCH  11  15
ATOM     15  C   UNL     1       6.383   3.621  12.499  0.00  0.00    +0.000 C 
BRANCH  15  17
ATOM     16  C   UNL     1       4.273   3.136  11.198  0.00  0.00    +0.000 C 
ATOM     17  C   UNL     1       5.444   2.526  11.973  0.00  0.00    +0.000 C 
ATOM     18  C   UNL     1       6.193   1.541  11.075  0.00  0.00    +0.000 C 
ENDBRANCH  15  17
ENDBRANCH  11  15
ENDBRANCH   5  12
ENDBRANCH   1   9
BRANCH   2  19
ATOM     19  C   UNL     1       3.091   2.971  17.705  0.00  0.00    +0.000 C 
BRANCH  19  20
ATOM     20  O   UNL     1       1.984   3.497  18.417  0.00  0.00    +0.000 OA
BRANCH  20  21
ATOM     21  C   UNL     1       2.028   4.796  18.820  0.00  0.00    +0.000 A 
ATOM     22  C   UNL     1       1.811   4.967  20.191  0.00  0.00    +0.000 A 
ATOM     23  C   UNL     1       1.809   6.236  20.770  0.00  0.00    +0.000 A 
ATOM     24  C   UNL     1       2.033   7.356  19.972  0.00  0.00    +0.000 A 
ATOM     25  C   UNL     1       2.250   7.189  18.599  0.00  0.00    +0.000 A 
ATOM     26  C   UNL     1       2.248   5.911  18.011  0.00  0.00    +0.000 A 
BRANCH  25  27
ATOM     27  N   UNL     1       2.465   8.372  17.755  0.00  0.00    +0.000 N 
ATOM     28  O   UNL     1       3.479   8.399  17.042  0.00  0.00    +0.000 OA
ATOM     29  O   UNL     1       1.621   9.280  17.808  0.00  0.00    +0.000 OA
ENDBRANCH  25  27
ENDBRANCH  20  21
ENDBRANCH  19  20
ENDBRANCH   2  19
TORSDOF 8
ENDMDL
MODEL 3
REMARK VINA RESULT:      -8.2      0.967      1.053
REMARK  Name = 
REMARK  10 active torsions:
REMARK  status: ('A' for Active; 'I' for Inactive)
REMARK    1  A    between atoms: C_1  and  C_2
REMARK    2  A    between atoms: C_2  and  C_3
REMARK    3  A    between atoms: C_2  and  C_4
REMARK    4  A    between atoms: C_4  and  N_5
REMARK    5  A    between atoms: C_6  and  C_8
REMARK    6  A    between atoms: C_12  and  N_13
REMARK    7  A    between atoms: C_14  and  C_16
REMARK    8  A    between atoms: C_16  and  O_17
REMARK    9  A    between atoms: O_17  and  C_18
REMARK   10  A    between atoms: C_22  and  N_23
REMARK                            x       y       z     vdW  Elec       q    Type
REMARK                         _______ _______ _______ _____ _____    ______ ____
ROOT
ATOM      1  N   UNL     1       3.587   3.920  18.422  0.00  0.00    +0.000 N 
ATOM      2  C   UNL     1       2.702   4.724  19.105  0.00  0.00    +0.000 C 
ATOM      3  O   UNL     1       1.590   4.297  19.421  0.00  0.00    +0.000 OA
ATOM      4  H   UNL     1       3.244   3.004  18.160  0.00  0.00    +0.000 HD
ENDROOT
BRANCH   1   9
ATOM      5  C   UNL     1       6.444   4.641  16.187  0.00  0.00    +0.000 A 
ATOM      6  C   UNL     1       7.447   4.935  17.123  0.00  0.00    +0.000 A 
ATOM      7  C   UNL     1       7.147   4.921  18.487  0.00  0.00    +0.000 A 
ATOM      8  C   UNL     1       5.854   4.616  18.920  0.00  0.00    +0.000 A 
ATOM      9  C   UNL     1       4.863   4.317  17.985  0.00  0.00    +0.000 A 
ATOM     10  C   UNL     1       5.150   4.327  16.622  0.00  0.00    +0.000 A 
BRANCH   5  12
ATOM     11  N   UNL     1       6.119   3.686  13.974  0.00  0.00    +0.000 N 
ATOM     12  C   UNL     1       6.787   4.615  14.739  0.00  0.00    +0.000 C 
ATOM     13  O   UNL     1       7.620   5.402  14.294  0.00  0.00    +0.000 OA
ATOM     14  H   UNL     1       5.429   3.077  14.398  0.00  0.00    +0.000 HD
BRANCH  11  15
ATOM     15  C   UNL     1       6.372   3.516  12.555  0.00  0.00    +0.000 C 
BRANCH  15  17
ATOM     16  C   UNL     1       4.323   3.090  11.139  0.00  0.00    +0.000 C 
ATOM     17  C   UNL     1       5.464   2.445  11.932  0.00  0.00    +0.000 C 
ATOM     18  C   UNL     1       6.258   1.513  11.016  0.00  0.00    +0.000 C 
ENDBRANCH  15  17
ENDBRANCH  11  15
ENDBRANCH   5  12
ENDBRANCH   1   9
BRANCH   2  19
ATOM     19  C   UNL     1       3.169   6.131  19.474  0.00  0.00    +0.000 C 
BRANCH  19  20
ATOM     20  O   UNL     1       2.057   6.739  20.107  0.00  0.00    +0.000 OA
BRANCH  20  21
ATOM     21  C   UNL     1       1.712   8.004  19.743  0.00  0.00    +0.000 A 
ATOM     22  C   UNL     1       2.067   8.326  18.429  0.00  0.00    +0.000 A 
ATOM     23  C   UNL     1       1.799   9.588  17.897  0.00  0.00    +0.000 A 
ATOM     24  C   UNL     1       1.162  10.545  18.684  0.00  0.00    +0.000 A 
ATOM     25  C   UNL     1       0.806  10.226  19.999  0.00  0.00    +0.000 A 
ATOM     26  C   UNL     1       1.079   8.957  20.541  0.00  0.00    +0.000 A 
BRANCH  25  27
ATOM     27  N   UNL     1       0.153  11.243  20.835  0.00  0.00    +0.000 N 
ATOM     28  O   UNL     1      -1.081  11.336  20.776  0.00  0.00    +0.000 OA
ATOM     29  O   UNL     1       0.877  11.953  21.550  0.00  0.00    +0.000 OA
ENDBRANCH  25  27
ENDBRANCH  20  21
ENDBRANCH  19  20
ENDBRANCH   2  19
TORSDOF 8
ENDMDL
MODEL 4
REMARK VINA RESULT:      -8.2      0.963      1.253
REMARK  Name = 
REMARK  10 active torsions:
REMARK  status: ('A' for Active; 'I' for Inactive)
REMARK    1  A    between atoms: C_1  and  C_2
REMARK    2  A    between atoms: C_2  and  C_3
REMARK    3  A    between atoms: C_2  and  C_4
REMARK    4  A    between atoms: C_4  and  N_5
REMARK    5  A    between atoms: C_6  and  C_8
REMARK    6  A    between atoms: C_12  and  N_13
REMARK    7  A    between atoms: C_14  and  C_16
REMARK    8  A    between atoms: C_16  and  O_17
REMARK    9  A    between atoms: O_17  and  C_18
REMARK   10  A    between atoms: C_22  and  N_23
REMARK                            x       y       z     vdW  Elec       q    Type
REMARK                         _______ _______ _______ _____ _____    ______ ____
ROOT
ATOM      1  N   UNL     1       3.401   3.633  17.636  0.00  0.00    +0.000 N 
ATOM      2  C   UNL     1       2.534   4.266  18.498  0.00  0.00    +0.000 C 
ATOM      3  O   UNL     1       1.393   3.832  18.661  0.00  0.00    +0.000 OA
ATOM      4  H   UNL     1       3.023   2.847  17.122  0.00  0.00    +0.000 HD
ENDROOT
BRANCH   1   9
ATOM      5  C   UNL     1       6.452   4.515  15.739  0.00  0.00    +0.000 A 
ATOM      6  C   UNL     1       7.359   4.744  16.785  0.00  0.00    +0.000 A 
ATOM      7  C   UNL     1       6.930   4.635  18.110  0.00  0.00    +0.000 A 
ATOM      8  C   UNL     1       5.604   4.297  18.395  0.00  0.00    +0.000 A 
ATOM      9  C   UNL     1       4.710   4.062  17.352  0.00  0.00    +0.000 A 
ATOM     10  C   UNL     1       5.126   4.168  16.026  0.00  0.00    +0.000 A 
BRANCH   5  12
ATOM     11  N   UNL     1       6.411   3.660  13.463  0.00  0.00    +0.000 N 
ATOM     12  C   UNL     1       6.931   4.591  14.333  0.00  0.00    +0.000 C 
ATOM     13  O   UNL     1       7.741   5.458  14.009  0.00  0.00    +0.000 OA
ATOM     14  H   UNL     1       5.731   2.982  13.788  0.00  0.00    +0.000 HD
BRANCH  11  15
ATOM     15  C   UNL     1       6.809   3.585  12.070  0.00  0.00    +0.000 C 
BRANCH  15  17
ATOM     16  C   UNL     1       5.977   1.315  11.335  0.00  0.00    +0.000 C 
ATOM     17  C   UNL     1       5.780   2.829  11.216  0.00  0.00    +0.000 C 
ATOM     18  C   UNL     1       4.351   3.191  11.625  0.00  0.00    +0.000 C 
ENDBRANCH  15  17
ENDBRANCH  11  15
ENDBRANCH   5  12
ENDBRANCH   1   9
BRANCH   2  19
ATOM     19  C   UNL     1       3.057   5.487  19.253  0.00  0.00    +0.000 C 
BRANCH  19  20
ATOM     20  O   UNL     1       2.793   6.590  18.403  0.00  0.00    +0.000 OA
BRANCH  20  21
ATOM     21  C   UNL     1       2.135   7.664  18.918  0.00  0.00    +0.000 A 
ATOM     22  C   UNL     1       1.856   8.658  17.974  0.00  0.00    +0.000 A 
ATOM     23  C   UNL     1       1.198   9.834  18.336  0.00  0.00    +0.000 A 
ATOM     24  C   UNL     1       0.805  10.023  19.659  0.00  0.00    +0.000 A 
ATOM     25  C   UNL     1       1.083   9.031  20.606  0.00  0.00    +0.000 A 
ATOM     26  C   UNL     1       1.751   7.846  20.247  0.00  0.00    +0.000 A 
BRANCH  25  27
ATOM     27  N   UNL     1       0.686   9.240  22.006  0.00  0.00    +0.000 N 
ATOM     28  O   UNL     1      -0.510   9.093  22.298  0.00  0.00    +0.000 OA
ATOM     29  O   UNL     1       1.572   9.557  22.814  0.00  0.00    +0.000 OA
ENDBRANCH  25  27
ENDBRANCH  20  21
ENDBRANCH  19  20
ENDBRANCH   2  19
TORSDOF 8
ENDMDL
MODEL 5
REMARK VINA RESULT:      -8.1      1.394      1.821
REMARK  Name = 
REMARK  10 active torsions:
REMARK  status: ('A' for Active; 'I' for Inactive)
REMARK    1  A    between atoms: C_1  and  C_2
REMARK    2  A    between atoms: C_2  and  C_3
REMARK    3  A    between atoms: C_2  and  C_4
REMARK    4  A    between atoms: C_4  and  N_5
REMARK    5  A    between atoms: C_6  and  C_8
REMARK    6  A    between atoms: C_12  and  N_13
REMARK    7  A    between atoms: C_14  and  C_16
REMARK    8  A    between atoms: C_16  and  O_17
REMARK    9  A    between atoms: O_17  and  C_18
REMARK   10  A    between atoms: C_22  and  N_23
REMARK                            x       y       z     vdW  Elec       q    Type
REMARK                         _______ _______ _______ _____ _____    ______ ____
ROOT
ATOM      1  N   UNL     1       3.492   4.106  18.387  0.00  0.00    +0.000 N 
ATOM      2  C   UNL     1       2.407   4.932  18.577  0.00  0.00    +0.000 C 
ATOM      3  O   UNL     1       1.316   4.460  18.902  0.00  0.00    +0.000 OA
ATOM      4  H   UNL     1       3.317   3.113  18.476  0.00  0.00    +0.000 HD
ENDROOT
BRANCH   1   9
ATOM      5  C   UNL     1       6.418   4.823  16.241  0.00  0.00    +0.000 A 
ATOM      6  C   UNL     1       7.362   5.220  17.201  0.00  0.00    +0.000 A 
ATOM      7  C   UNL     1       6.997   5.277  18.548  0.00  0.00    +0.000 A 
ATOM      8  C   UNL     1       5.699   4.937  18.941  0.00  0.00    +0.000 A 
ATOM      9  C   UNL     1       4.769   4.536  17.984  0.00  0.00    +0.000 A 
ATOM     10  C   UNL     1       5.121   4.475  16.637  0.00  0.00    +0.000 A 
BRANCH   5  12
ATOM     11  N   UNL     1       6.084   3.882  14.024  0.00  0.00    +0.000 N 
ATOM     12  C   UNL     1       6.831   4.725  14.815  0.00  0.00    +0.000 C 
ATOM     13  O   UNL     1       7.787   5.382  14.409  0.00  0.00    +0.000 OA
ATOM     14  H   UNL     1       5.295   3.380  14.415  0.00  0.00    +0.000 HD
BRANCH  11  15
ATOM     15  C   UNL     1       6.386   3.654  12.623  0.00  0.00    +0.000 C 
BRANCH  15  17
ATOM     16  C   UNL     1       4.312   3.162  11.267  0.00  0.00    +0.000 C 
ATOM     17  C   UNL     1       5.503   2.555  12.014  0.00  0.00    +0.000 C 
ATOM     18  C   UNL     1       6.305   1.667  11.061  0.00  0.00    +0.000 C 
ENDBRANCH  15  17
ENDBRANCH  11  15
ENDBRANCH   5  12
ENDBRANCH   1   9
BRANCH   2  19
ATOM     19  C   UNL     1       2.625   6.433  18.401  0.00  0.00    +0.000 C 
BRANCH  19  20
ATOM     20  O   UNL     1       2.606   6.968  19.713  0.00  0.00    +0.000 OA
BRANCH  20  21
ATOM     21  C   UNL     1       1.739   7.980  19.991  0.00  0.00    +0.000 A 
ATOM     22  C   UNL     1       1.013   7.790  21.170  0.00  0.00    +0.000 A 
ATOM     23  C   UNL     1       0.069   8.726  21.597  0.00  0.00    +0.000 A 
ATOM     24  C   UNL     1      -0.151   9.874  20.840  0.00  0.00    +0.000 A 
ATOM     25  C   UNL     1       0.574  10.067  19.658  0.00  0.00    +0.000 A 
ATOM     26  C   UNL     1       1.522   9.124  19.222  0.00  0.00    +0.000 A 
BRANCH  25  27
ATOM     27  N   UNL     1       0.326  11.268  18.849  0.00  0.00    +0.000 N 
ATOM     28  O   UNL     1      -0.848  11.542  18.562  0.00  0.00    +0.000 OA
ATOM     29  O   UNL     1       1.309  11.938  18.495  0.00  0.00    +0.000 OA
ENDBRANCH  25  27
ENDBRANCH  20  21
ENDBRANCH  19  20
ENDBRANCH   2  19
TORSDOF 8
ENDMDL
MODEL 6
REMARK VINA RESULT:      -8.1      2.248      8.849
REMARK  Name = 
REMARK  10 active torsions:
REMARK  status: ('A' for Active; 'I' for Inactive)
REMARK    1  A    between atoms: C_1  and  C_2
REMARK    2  A    between atoms: C_2  and  C_3
REMARK    3  A    between atoms: C_2  and  C_4
REMARK    4  A    between atoms: C_4  and  N_5
REMARK    5  A    between atoms: C_6  and  C_8
REMARK    6  A    between atoms: C_12  and  N_13
REMARK    7  A    between atoms: C_14  and  C_16
REMARK    8  A    between atoms: C_16  and  O_17
REMARK    9  A    between atoms: O_17  and  C_18
REMARK   10  A    between atoms: C_22  and  N_23
REMARK                            x       y       z     vdW  Elec       q    Type
REMARK                         _______ _______ _______ _____ _____    ______ ____
ROOT
ATOM      1  N   UNL     1       6.120   4.099  18.631  0.00  0.00    +0.000 N 
ATOM      2  C   UNL     1       6.994   4.410  17.614  0.00  0.00    +0.000 C 
ATOM      3  O   UNL     1       8.193   4.149  17.723  0.00  0.00    +0.000 OA
ATOM      4  H   UNL     1       6.533   3.704  19.467  0.00  0.00    +0.000 HD
ENDROOT
BRANCH   1   9
ATOM      5  C   UNL     1       2.930   5.928  19.034  0.00  0.00    +0.000 A 
ATOM      6  C   UNL     1       2.003   4.905  18.783  0.00  0.00    +0.000 A 
ATOM      7  C   UNL     1       2.456   3.626  18.448  0.00  0.00    +0.000 A 
ATOM      8  C   UNL     1       3.826   3.364  18.365  0.00  0.00    +0.000 A 
ATOM      9  C   UNL     1       4.742   4.383  18.624  0.00  0.00    +0.000 A 
ATOM     10  C   UNL     1       4.303   5.662  18.959  0.00  0.00    +0.000 A 
BRANCH   5  12
ATOM     11  N   UNL     1       2.105   7.429  20.760  0.00  0.00    +0.000 N 
ATOM     12  C   UNL     1       2.436   7.273  19.433  0.00  0.00    +0.000 C 
ATOM     13  O   UNL     1       2.352   8.167  18.593  0.00  0.00    +0.000 OA
ATOM     14  H   UNL     1       2.214   6.657  21.408  0.00  0.00    +0.000 HD
BRANCH  11  15
ATOM     15  C   UNL     1       1.576   8.671  21.292  0.00  0.00    +0.000 C 
BRANCH  15  17
ATOM     16  C   UNL     1      -0.560   9.058  22.585  0.00  0.00    +0.000 C 
ATOM     17  C   UNL     1       0.043   8.723  21.218  0.00  0.00    +0.000 C 
ATOM     18  C   UNL     1      -0.425   9.752  20.188  0.00  0.00    +0.000 C 
ENDBRANCH  15  17
ENDBRANCH  11  15
ENDBRANCH   5  12
ENDBRANCH   1   9
BRANCH   2  19
ATOM     19  C   UNL     1       6.411   5.053  16.357  0.00  0.00    +0.000 C 
BRANCH  19  20
ATOM     20  O   UNL     1       7.491   5.127  15.442  0.00  0.00    +0.000 OA
BRANCH  20  21
ATOM     21  C   UNL     1       7.259   4.819  14.137  0.00  0.00    +0.000 A 
ATOM     22  C   UNL     1       8.015   5.578  13.238  0.00  0.00    +0.000 A 
ATOM     23  C   UNL     1       7.891   5.401  11.859  0.00  0.00    +0.000 A 
ATOM     24  C   UNL     1       7.005   4.447  11.366  0.00  0.00    +0.000 A 
ATOM     25  C   UNL     1       6.246   3.685  12.263  0.00  0.00    +0.000 A 
ATOM     26  C   UNL     1       6.364   3.865  13.653  0.00  0.00    +0.000 A 
BRANCH  25  27
ATOM     27  N   UNL     1       5.296   2.693  11.741  0.00  0.00    +0.000 N 
ATOM     28  O   UNL     1       4.117   3.044  11.589  0.00  0.00    +0.000 OA
ATOM     29  O   UNL     1       5.728   1.558  11.487  0.00  0.00    +0.000 OA
ENDBRANCH  25  27
ENDBRANCH  20  21
ENDBRANCH  19  20
ENDBRANCH   2  19
TORSDOF 8
ENDMDL
MODEL 7
REMARK VINA RESULT:      -7.8      3.451      6.550
REMARK  Name = 
REMARK  10 active torsions:
REMARK  status: ('A' for Active; 'I' for Inactive)
REMARK    1  A    between atoms: C_1  and  C_2
REMARK    2  A    between atoms: C_2  and  C_3
REMARK    3  A    between atoms: C_2  and  C_4
REMARK    4  A    between atoms: C_4  and  N_5
REMARK    5  A    between atoms: C_6  and  C_8
REMARK    6  A    between atoms: C_12  and  N_13
REMARK    7  A    between atoms: C_14  and  C_16
REMARK    8  A    between atoms: C_16  and  O_17
REMARK    9  A    between atoms: O_17  and  C_18
REMARK   10  A    between atoms: C_22  and  N_23
REMARK                            x       y       z     vdW  Elec       q    Type
REMARK                         _______ _______ _______ _____ _____    ______ ____
ROOT
ATOM      1  N   UNL     1       7.493   4.782  15.391  0.00  0.00    +0.000 N 
ATOM      2  C   UNL     1       6.348   4.716  14.630  0.00  0.00    +0.000 C 
ATOM      3  O   UNL     1       6.375   4.204  13.510  0.00  0.00    +0.000 OA
ATOM      4  H   UNL     1       8.340   4.441  14.952  0.00  0.00    +0.000 HD
ENDROOT
BRANCH   1   9
ATOM      5  C   UNL     1       7.895   7.339  18.033  0.00  0.00    +0.000 A 
ATOM      6  C   UNL     1       7.932   6.533  19.181  0.00  0.00    +0.000 A 
ATOM      7  C   UNL     1       7.787   5.149  19.060  0.00  0.00    +0.000 A 
ATOM      8  C   UNL     1       7.608   4.567  17.802  0.00  0.00    +0.000 A 
ATOM      9  C   UNL     1       7.581   5.373  16.664  0.00  0.00    +0.000 A 
ATOM     10  C   UNL     1       7.725   6.754  16.772  0.00  0.00    +0.000 A 
BRANCH   5  12
ATOM     11  N   UNL     1       9.030   9.208  19.098  0.00  0.00    +0.000 N 
ATOM     12  C   UNL     1       8.096   8.807  18.170  0.00  0.00    +0.000 C 
ATOM     13  O   UNL     1       7.447   9.581  17.468  0.00  0.00    +0.000 OA
ATOM     14  H   UNL     1       9.546   8.520  19.633  0.00  0.00    +0.000 HD
BRANCH  11  15
ATOM     15  C   UNL     1       9.310  10.606  19.370  0.00  0.00    +0.000 C 
BRANCH  15  17
ATOM     16  C   UNL     1       9.714  12.457  17.700  0.00  0.00    +0.000 C 
ATOM     17  C   UNL     1      10.297  11.204  18.358  0.00  0.00    +0.000 C 
ATOM     18  C   UNL     1      11.629  11.551  19.025  0.00  0.00    +0.000 C 
ENDBRANCH  15  17
ENDBRANCH  11  15
ENDBRANCH   5  12
ENDBRANCH   1   9
BRANCH   2  19
ATOM     19  C   UNL     1       5.062   5.268  15.243  0.00  0.00    +0.000 C 
BRANCH  19  20
ATOM     20  O   UNL     1       4.546   4.212  16.036  0.00  0.00    +0.000 OA
BRANCH  20  21
ATOM     21  C   UNL     1       3.872   4.525  17.176  0.00  0.00    +0.000 A 
ATOM     22  C   UNL     1       4.071   5.842  17.602  0.00  0.00    +0.000 A 
ATOM     23  C   UNL     1       3.464   6.326  18.762  0.00  0.00    +0.000 A 
ATOM     24  C   UNL     1       2.640   5.487  19.508  0.00  0.00    +0.000 A 
ATOM     25  C   UNL     1       2.439   4.168  19.085  0.00  0.00    +0.000 A 
ATOM     26  C   UNL     1       3.053   3.675  17.919  0.00  0.00    +0.000 A 
BRANCH  25  27
ATOM     27  N   UNL     1       1.586   3.277  19.883  0.00  0.00    +0.000 N 
ATOM     28  O   UNL     1       1.881   2.074  19.923  0.00  0.00    +0.000 OA
ATOM     29  O   UNL     1       0.615   3.781  20.469  0.00  0.00    +0.000 OA
ENDBRANCH  25  27
ENDBRANCH  20  21
ENDBRANCH  19  20
ENDBRANCH   2  19
TORSDOF 8
ENDMDL
MODEL 8
REMARK VINA RESULT:      -7.6      2.765      8.631
REMARK  Name = 
REMARK  10 active torsions:
REMARK  status: ('A' for Active; 'I' for Inactive)
REMARK    1  A    between atoms: C_1  and  C_2
REMARK    2  A    between atoms: C_2  and  C_3
REMARK    3  A    between atoms: C_2  and  C_4
REMARK    4  A    between atoms: C_4  and  N_5
REMARK    5  A    between atoms: C_6  and  C_8
REMARK    6  A    between atoms: C_12  and  N_13
REMARK    7  A    between atoms: C_14  and  C_16
REMARK    8  A    between atoms: C_16  and  O_17
REMARK    9  A    between atoms: O_17  and  C_18
REMARK   10  A    between atoms: C_22  and  N_23
REMARK                            x       y       z     vdW  Elec       q    Type
REMARK                         _______ _______ _______ _____ _____    ______ ____
ROOT
ATOM      1  N   UNL     1       2.152   5.897  21.097  0.00  0.00    +0.000 N 
ATOM      2  C   UNL     1       2.219   4.568  20.746  0.00  0.00    +0.000 C 
ATOM      3  O   UNL     1       2.300   3.698  21.614  0.00  0.00    +0.000 OA
ATOM      4  H   UNL     1       2.230   6.100  22.086  0.00  0.00    +0.000 HD
ENDROOT
BRANCH   1   9
ATOM      5  C   UNL     1       1.212   9.134  19.573  0.00  0.00    +0.000 A 
ATOM      6  C   UNL     1       1.824   9.023  18.314  0.00  0.00    +0.000 A 
ATOM      7  C   UNL     1       2.572   7.884  18.006  0.00  0.00    +0.000 A 
ATOM      8  C   UNL     1       2.709   6.857  18.943  0.00  0.00    +0.000 A 
ATOM      9  C   UNL     1       2.092   6.969  20.188  0.00  0.00    +0.000 A 
ATOM     10  C   UNL     1       1.343   8.099  20.508  0.00  0.00    +0.000 A 
BRANCH   5  12
ATOM     11  N   UNL     1       0.608  10.936  21.089  0.00  0.00    +0.000 N 
ATOM     12  C   UNL     1       0.382  10.331  19.873  0.00  0.00    +0.000 C 
ATOM     13  O   UNL     1      -0.441  10.727  19.050  0.00  0.00    +0.000 OA
ATOM     14  H   UNL     1       1.315  10.572  21.717  0.00  0.00    +0.000 HD
BRANCH  11  15
ATOM     15  C   UNL     1      -0.148  12.090  21.539  0.00  0.00    +0.000 C 
BRANCH  15  17
ATOM     16  C   UNL     1      -2.440  12.147  22.599  0.00  0.00    +0.000 C 
ATOM     17  C   UNL     1      -0.966  11.787  22.803  0.00  0.00    +0.000 C 
ATOM     18  C   UNL     1      -0.850  10.314  23.195  0.00  0.00    +0.000 C 
ENDBRANCH  15  17
ENDBRANCH  11  15
ENDBRANCH   5  12
ENDBRANCH   1   9
BRANCH   2  19
ATOM     19  C   UNL     1       2.154   4.229  19.257  0.00  0.00    +0.000 C 
BRANCH  19  20
ATOM     20  O   UNL     1       3.277   3.399  19.016  0.00  0.00    +0.000 OA
BRANCH  20  21
ATOM     21  C   UNL     1       4.365   3.940  18.403  0.00  0.00    +0.000 A 
ATOM     22  C   UNL     1       4.368   3.774  17.015  0.00  0.00    +0.000 A 
ATOM     23  C   UNL     1       5.417   4.257  16.231  0.00  0.00    +0.000 A 
ATOM     24  C   UNL     1       6.479   4.921  16.838  0.00  0.00    +0.000 A 
ATOM     25  C   UNL     1       6.480   5.089  18.228  0.00  0.00    +0.000 A 
ATOM     26  C   UNL     1       5.427   4.599  19.022  0.00  0.00    +0.000 A 
BRANCH  25  27
ATOM     27  N   UNL     1       7.611   5.772  18.871  0.00  0.00    +0.000 N 
ATOM     28  O   UNL     1       8.187   5.190  19.802  0.00  0.00    +0.000 OA
ATOM     29  O   UNL     1       7.922   6.896  18.447  0.00  0.00    +0.000 OA
ENDBRANCH  25  27
ENDBRANCH  20  21
ENDBRANCH  19  20
ENDBRANCH   2  19
TORSDOF 8
ENDMDL
MODEL 9
REMARK VINA RESULT:      -7.6      2.194      8.605
REMARK  Name = 
REMARK  10 active torsions:
REMARK  status: ('A' for Active; 'I' for Inactive)
REMARK    1  A    between atoms: C_1  and  C_2
REMARK    2  A    between atoms: C_2  and  C_3
REMARK    3  A    between atoms: C_2  and  C_4
REMARK    4  A    between atoms: C_4  and  N_5
REMARK    5  A    between atoms: C_6  and  C_8
REMARK    6  A    between atoms: C_12  and  N_13
REMARK    7  A    between atoms: C_14  and  C_16
REMARK    8  A    between atoms: C_16  and  O_17
REMARK    9  A    between atoms: O_17  and  C_18
REMARK   10  A    between atoms: C_22  and  N_23
REMARK                            x       y       z     vdW  Elec       q    Type
REMARK                         _______ _______ _______ _____ _____    ______ ____
ROOT
ATOM      1  N   UNL     1       6.165   4.174  19.007  0.00  0.00    +0.000 N 
ATOM      2  C   UNL     1       6.937   4.395  17.888  0.00  0.00    +0.000 C 
ATOM      3  O   UNL     1       8.161   4.491  17.987  0.00  0.00    +0.000 OA
ATOM      4  H   UNL     1       6.658   4.155  19.891  0.00  0.00    +0.000 HD
ENDROOT
BRANCH   1   9
ATOM      5  C   UNL     1       2.613   5.008  19.617  0.00  0.00    +0.000 A 
ATOM      6  C   UNL     1       1.985   3.830  19.183  0.00  0.00    +0.000 A 
ATOM      7  C   UNL     1       2.753   2.787  18.660  0.00  0.00    +0.000 A 
ATOM      8  C   UNL     1       4.142   2.913  18.571  0.00  0.00    +0.000 A 
ATOM      9  C   UNL     1       4.761   4.082  19.011  0.00  0.00    +0.000 A 
ATOM     10  C   UNL     1       4.006   5.129  19.535  0.00  0.00    +0.000 A 
BRANCH   5  12
ATOM     11  N   UNL     1       2.253   7.377  20.033  0.00  0.00    +0.000 N 
ATOM     12  C   UNL     1       1.789   6.093  20.213  0.00  0.00    +0.000 C 
ATOM     13  O   UNL     1       0.755   5.814  20.817  0.00  0.00    +0.000 OA
ATOM     14  H   UNL     1       3.104   7.542  19.508  0.00  0.00    +0.000 HD
BRANCH  11  15
ATOM     15  C   UNL     1       1.578   8.536  20.586  0.00  0.00    +0.000 C 
BRANCH  15  17
ATOM     16  C   UNL     1       0.806  10.837  19.883  0.00  0.00    +0.000 C 
ATOM     17  C   UNL     1       0.858   9.354  19.504  0.00  0.00    +0.000 C 
ATOM     18  C   UNL     1       1.544   9.198  18.146  0.00  0.00    +0.000 C 
ENDBRANCH  15  17
ENDBRANCH  11  15
ENDBRANCH   5  12
ENDBRANCH   1   9
BRANCH   2  19
ATOM     19  C   UNL     1       6.218   4.479  16.543  0.00  0.00    +0.000 C 
BRANCH  19  20
ATOM     20  O   UNL     1       7.169   5.032  15.648  0.00  0.00    +0.000 OA
BRANCH  20  21
ATOM     21  C   UNL     1       7.054   4.749  14.322  0.00  0.00    +0.000 A 
ATOM     22  C   UNL     1       7.923   5.488  13.513  0.00  0.00    +0.000 A 
ATOM     23  C   UNL     1       7.928   5.332  12.126  0.00  0.00    +0.000 A 
ATOM     24  C   UNL     1       7.058   4.419  11.534  0.00  0.00    +0.000 A 
ATOM     25  C   UNL     1       6.187   3.678  12.341  0.00  0.00    +0.000 A 
ATOM     26  C   UNL     1       6.175   3.837  13.738  0.00  0.00    +0.000 A 
BRANCH  25  27
ATOM     27  N   UNL     1       5.254   2.731  11.714  0.00  0.00    +0.000 N 
ATOM     28  O   UNL     1       4.108   3.129  11.459  0.00  0.00    +0.000 OA
ATOM     29  O   UNL     1       5.667   1.585  11.479  0.00  0.00    +0.000 OA
ENDBRANCH  25  27
ENDBRANCH  20  21
ENDBRANCH  19  20
ENDBRANCH   2  19
TORSDOF 8
ENDMDL
