MODEL 1
REMARK VINA RESULT:      -8.1      0.000      0.000
REMARK  Name = 
REMARK  2 active torsions:
REMARK  status: ('A' for Active; 'I' for Inactive)
REMARK    1  A    between atoms: O_1  and  C_2
REMARK    2  A    between atoms: C_13  and  C_14
REMARK                            x       y       z     vdW  Elec       q    Type
REMARK                         _______ _______ _______ _____ _____    ______ ____
ROOT
ATOM      1  C   UNL     1       7.216   4.832  17.862  0.00  0.00    +0.000 A 
ATOM      2  N   UNL     1       7.766   4.965  16.696  0.00  0.00    +0.000 NA
ATOM      3  C   UNL     1       6.986   4.592  15.567  0.00  0.00    +0.000 A 
ATOM      4  C   UNL     1       7.544   4.748  14.298  0.00  0.00    +0.000 A 
ATOM      5  C   UNL     1       6.810   4.408  13.159  0.00  0.00    +0.000 A 
ATOM      6  C   UNL     1       5.512   3.908  13.288  0.00  0.00    +0.000 A 
ATOM      7 CL   UNL     1       4.619   3.504  11.874  0.00  0.00    +0.000 Cl
ATOM      8  C   UNL     1       4.932   3.738  14.546  0.00  0.00    +0.000 A 
ATOM      9  C   UNL     1       5.666   4.080  15.684  0.00  0.00    +0.000 A 
ATOM     10  C   UNL     1       5.134   3.951  17.032  0.00  0.00    +0.000 A 
ATOM     11  N   UNL     1       3.984   3.513  17.502  0.00  0.00    +0.000 NA
ATOM     12  C   UNL     1       4.130   3.684  18.864  0.00  0.00    +0.000 A 
ATOM     13  N   UNL     1       5.304   4.196  19.257  0.00  0.00    +0.000 NA
ATOM     14  N   UNL     1       5.930   4.345  18.074  0.00  0.00    +0.000 N 
ENDROOT
BRANCH  12  15
ATOM     15  C   UNL     1       3.063   3.335  19.790  0.00  0.00    +0.000 A 
ATOM     16  C   UNL     1       1.695   3.671  19.658  0.00  0.00    +0.000 A 
ATOM     17  C   UNL     1       1.067   3.143  20.763  0.00  0.00    +0.000 A 
ATOM     18  O   UNL     1       1.962   2.501  21.561  0.00  0.00    +0.000 OA
ATOM     19  C   UNL     1       3.175   2.620  20.961  0.00  0.00    +0.000 A 
ENDBRANCH  12  15
BRANCH   1  20
ATOM     20  O   UNL     1       7.871   5.160  18.990  0.00  0.00    +0.000 OA
ATOM     21  H   UNL     1       7.257   5.063  19.736  0.00  0.00    +0.000 HD
ENDBRANCH   1  20
TORSDOF 2
ENDMDL
MODEL 2
REMARK VINA RESULT:      -7.9      1.255      1.347
REMARK  Name = 
REMARK  2 active torsions:
REMARK  status: ('A' for Active; 'I' for Inactive)
REMARK    1  A    between atoms: O_1  and  C_2
REMARK    2  A    between atoms: C_13  and  C_14
REMARK                            x       y       z     vdW  Elec       q    Type
REMARK                         _______ _______ _______ _____ _____    ______ ____
ROOT
ATOM      1  C   UNL     1       6.794   5.946  17.073  0.00  0.00    +0.000 A 
ATOM      2  N   UNL     1       7.460   5.873  15.964  0.00  0.00    +0.000 NA
ATOM      3  C   UNL     1       6.900   5.083  14.923  0.00  0.00    +0.000 A 
ATOM      4  C   UNL     1       7.584   5.007  13.709  0.00  0.00    +0.000 A 
ATOM      5  C   UNL     1       7.064   4.253  12.654  0.00  0.00    +0.000 A 
ATOM      6  C   UNL     1       5.856   3.570  12.811  0.00  0.00    +0.000 A 
ATOM      7 CL   UNL     1       5.227   2.656  11.497  0.00  0.00    +0.000 Cl
ATOM      8  C   UNL     1       5.155   3.626  14.017  0.00  0.00    +0.000 A 
ATOM      9  C   UNL     1       5.673   4.380  15.071  0.00  0.00    +0.000 A 
ATOM     10  C   UNL     1       5.001   4.507  16.355  0.00  0.00    +0.000 A 
ATOM     11  N   UNL     1       3.884   3.999  16.834  0.00  0.00    +0.000 NA
ATOM     12  C   UNL     1       3.826   4.540  18.102  0.00  0.00    +0.000 A 
ATOM     13  N   UNL     1       4.844   5.346  18.431  0.00  0.00    +0.000 NA
ATOM     14  N   UNL     1       5.584   5.299  17.307  0.00  0.00    +0.000 N 
ENDROOT
BRANCH  12  15
ATOM     15  C   UNL     1       2.718   4.249  19.000  0.00  0.00    +0.000 A 
ATOM     16  C   UNL     1       2.597   4.669  20.346  0.00  0.00    +0.000 A 
ATOM     17  C   UNL     1       1.402   4.155  20.796  0.00  0.00    +0.000 A 
ATOM     18  O   UNL     1       0.781   3.453  19.811  0.00  0.00    +0.000 OA
ATOM     19  C   UNL     1       1.588   3.515  18.720  0.00  0.00    +0.000 A 
ENDBRANCH  12  15
BRANCH   1  20
ATOM     20  O   UNL     1       7.239   6.670  18.115  0.00  0.00    +0.000 OA
ATOM     21  H   UNL     1       8.154   6.405  18.301  0.00  0.00    +0.000 HD
ENDBRANCH   1  20
TORSDOF 2
ENDMDL
MODEL 3
REMARK VINA RESULT:      -7.7      3.485      6.480
REMARK  Name = 
REMARK  2 active torsions:
REMARK  status: ('A' for Active; 'I' for Inactive)
REMARK    1  A    between atoms: O_1  and  C_2
REMARK    2  A    between atoms: C_13  and  C_14
REMARK                            x       y       z     vdW  Elec       q    Type
REMARK                         _______ _______ _______ _____ _____    ______ ____
ROOT
ATOM      1  C   UNL     1       4.531   3.842  18.779  0.00  0.00    +0.000 A 
ATOM      2  N   UNL     1       3.801   4.460  19.653  0.00  0.00    +0.000 NA
ATOM      3  C   UNL     1       3.278   5.729  19.279  0.00  0.00    +0.000 A 
ATOM      4  C   UNL     1       2.469   6.405  20.192  0.00  0.00    +0.000 A 
ATOM      5  C   UNL     1       1.921   7.648  19.863  0.00  0.00    +0.000 A 
ATOM      6  C   UNL     1       2.186   8.219  18.616  0.00  0.00    +0.000 A 
ATOM      7 CL   UNL     1       1.495   9.745  18.224  0.00  0.00    +0.000 Cl
ATOM      8  C   UNL     1       2.997   7.565  17.687  0.00  0.00    +0.000 A 
ATOM      9  C   UNL     1       3.541   6.323  18.015  0.00  0.00    +0.000 A 
ATOM     10  C   UNL     1       4.383   5.565  17.102  0.00  0.00    +0.000 A 
ATOM     11  N   UNL     1       4.831   5.809  15.887  0.00  0.00    +0.000 NA
ATOM     12  C   UNL     1       5.553   4.669  15.597  0.00  0.00    +0.000 A 
ATOM     13  N   UNL     1       5.580   3.743  16.565  0.00  0.00    +0.000 NA
ATOM     14  N   UNL     1       4.838   4.342  17.516  0.00  0.00    +0.000 N 
ENDROOT
BRANCH  12  15
ATOM     15  C   UNL     1       6.223   4.502  14.317  0.00  0.00    +0.000 A 
ATOM     16  C   UNL     1       5.827   3.638  13.269  0.00  0.00    +0.000 A 
ATOM     17  C   UNL     1       6.756   3.807  12.267  0.00  0.00    +0.000 A 
ATOM     18  O   UNL     1       7.693   4.722  12.632  0.00  0.00    +0.000 OA
ATOM     19  C   UNL     1       7.361   5.143  13.881  0.00  0.00    +0.000 A 
ENDBRANCH  12  15
BRANCH   1  20
ATOM     20  O   UNL     1       5.069   2.637  19.036  0.00  0.00    +0.000 OA
ATOM     21  H   UNL     1       5.971   2.624  18.678  0.00  0.00    +0.000 HD
ENDBRANCH   1  20
TORSDOF 2
ENDMDL
MODEL 4
REMARK VINA RESULT:      -7.6      2.656      6.219
REMARK  Name = 
REMARK  2 active torsions:
REMARK  status: ('A' for Active; 'I' for Inactive)
REMARK    1  A    between atoms: O_1  and  C_2
REMARK    2  A    between atoms: C_13  and  C_14
REMARK                            x       y       z     vdW  Elec       q    Type
REMARK                         _______ _______ _______ _____ _____    ______ ____
ROOT
ATOM      1  C   UNL     1       6.299   5.444  18.654  0.00  0.00    +0.000 A 
ATOM      2  N   UNL     1       5.478   5.294  19.646  0.00  0.00    +0.000 NA
ATOM      3  C   UNL     1       4.254   4.623  19.376  0.00  0.00    +0.000 A 
ATOM      4  C   UNL     1       3.362   4.426  20.430  0.00  0.00    +0.000 A 
ATOM      5  C   UNL     1       2.153   3.759  20.215  0.00  0.00    +0.000 A 
ATOM      6  C   UNL     1       1.832   3.289  18.940  0.00  0.00    +0.000 A 
ATOM      7 CL   UNL     1       0.343   2.461  18.696  0.00  0.00    +0.000 Cl
ATOM      8  C   UNL     1       2.705   3.477  17.867  0.00  0.00    +0.000 A 
ATOM      9  C   UNL     1       3.913   4.141  18.083  0.00  0.00    +0.000 A 
ATOM     10  C   UNL     1       4.888   4.366  17.026  0.00  0.00    +0.000 A 
ATOM     11  N   UNL     1       4.899   4.074  15.742  0.00  0.00    +0.000 NA
ATOM     12  C   UNL     1       6.130   4.548  15.335  0.00  0.00    +0.000 A 
ATOM     13  N   UNL     1       6.872   5.119  16.293  0.00  0.00    +0.000 NA
ATOM     14  N   UNL     1       6.055   5.001  17.357  0.00  0.00    +0.000 N 
ENDROOT
BRANCH  12  15
ATOM     15  C   UNL     1       6.574   4.416  13.956  0.00  0.00    +0.000 A 
ATOM     16  C   UNL     1       6.072   3.504  12.997  0.00  0.00    +0.000 A 
ATOM     17  C   UNL     1       6.791   3.733  11.845  0.00  0.00    +0.000 A 
ATOM     18  O   UNL     1       7.696   4.729  12.036  0.00  0.00    +0.000 OA
ATOM     19  C   UNL     1       7.557   5.142  13.323  0.00  0.00    +0.000 A 
ENDBRANCH  12  15
BRANCH   1  20
ATOM     20  O   UNL     1       7.483   6.062  18.809  0.00  0.00    +0.000 OA
ATOM     21  H   UNL     1       8.045   5.836  18.049  0.00  0.00    +0.000 HD
ENDBRANCH   1  20
TORSDOF 2
ENDMDL
MODEL 5
REMARK VINA RESULT:      -7.5      3.241      6.625
REMARK  Name = 
REMARK  2 active torsions:
REMARK  status: ('A' for Active; 'I' for Inactive)
REMARK    1  A    between atoms: O_1  and  C_2
REMARK    2  A    between atoms: C_13  and  C_14
REMARK                            x       y       z     vdW  Elec       q    Type
REMARK                         _______ _______ _______ _____ _____    ______ ____
ROOT
ATOM      1  C   UNL     1       3.796   2.784  18.717  0.00  0.00    +0.000 A 
ATOM      2  N   UNL     1       3.047   3.211  19.685  0.00  0.00    +0.000 NA
ATOM      3  C   UNL     1       2.713   4.593  19.683  0.00  0.00    +0.000 A 
ATOM      4  C   UNL     1       1.888   5.075  20.700  0.00  0.00    +0.000 A 
ATOM      5  C   UNL     1       1.522   6.423  20.731  0.00  0.00    +0.000 A 
ATOM      6  C   UNL     1       1.984   7.295  19.743  0.00  0.00    +0.000 A 
ATOM      7 CL   UNL     1       1.515   8.950  19.792  0.00  0.00    +0.000 Cl
ATOM      8  C   UNL     1       2.815   6.840  18.718  0.00  0.00    +0.000 A 
ATOM      9  C   UNL     1       3.178   5.492  18.686  0.00  0.00    +0.000 A 
ATOM     10  C   UNL     1       4.026   4.929  17.646  0.00  0.00    +0.000 A 
ATOM     11  N   UNL     1       4.629   5.456  16.601  0.00  0.00    +0.000 NA
ATOM     12  C   UNL     1       5.247   4.364  16.026  0.00  0.00    +0.000 A 
ATOM     13  N   UNL     1       5.064   3.199  16.661  0.00  0.00    +0.000 NA
ATOM     14  N   UNL     1       4.293   3.587  17.695  0.00  0.00    +0.000 N 
ENDROOT
BRANCH  12  15
ATOM     15  C   UNL     1       6.032   4.493  14.808  0.00  0.00    +0.000 A 
ATOM     16  C   UNL     1       5.832   3.779  13.602  0.00  0.00    +0.000 A 
ATOM     17  C   UNL     1       6.808   4.217  12.736  0.00  0.00    +0.000 A 
ATOM     18  O   UNL     1       7.590   5.157  13.332  0.00  0.00    +0.000 OA
ATOM     19  C   UNL     1       7.110   5.321  14.593  0.00  0.00    +0.000 A 
ENDBRANCH  12  15
BRANCH   1  20
ATOM     20  O   UNL     1       4.164   1.494  18.628  0.00  0.00    +0.000 OA
ATOM     21  H   UNL     1       4.798   1.309  19.339  0.00  0.00    +0.000 HD
ENDBRANCH   1  20
TORSDOF 2
ENDMDL
MODEL 6
REMARK VINA RESULT:      -7.2      6.345      7.556
REMARK  Name = 
REMARK  2 active torsions:
REMARK  status: ('A' for Active; 'I' for Inactive)
REMARK    1  A    between atoms: O_1  and  C_2
REMARK    2  A    between atoms: C_13  and  C_14
REMARK                            x       y       z     vdW  Elec       q    Type
REMARK                         _______ _______ _______ _____ _____    ______ ____
ROOT
ATOM      1  C   UNL     1       2.170   8.759  18.070  0.00  0.00    +0.000 A 
ATOM      2  N   UNL     1       2.720   7.643  17.707  0.00  0.00    +0.000 NA
ATOM      3  C   UNL     1       2.661   6.562  18.630  0.00  0.00    +0.000 A 
ATOM      4  C   UNL     1       3.223   5.342  18.255  0.00  0.00    +0.000 A 
ATOM      5  C   UNL     1       3.177   4.248  19.123  0.00  0.00    +0.000 A 
ATOM      6  C   UNL     1       2.567   4.374  20.374  0.00  0.00    +0.000 A 
ATOM      7 CL   UNL     1       2.510   3.015  21.426  0.00  0.00    +0.000 Cl
ATOM      8  C   UNL     1       2.001   5.586  20.775  0.00  0.00    +0.000 A 
ATOM      9  C   UNL     1       2.046   6.678  19.906  0.00  0.00    +0.000 A 
ATOM     10  C   UNL     1       1.468   7.972  20.235  0.00  0.00    +0.000 A 
ATOM     11  N   UNL     1       0.848   8.428  21.304  0.00  0.00    +0.000 NA
ATOM     12  C   UNL     1       0.543   9.726  20.945  0.00  0.00    +0.000 A 
ATOM     13  N   UNL     1       0.946  10.094  19.721  0.00  0.00    +0.000 NA
ATOM     14  N   UNL     1       1.542   8.964  19.295  0.00  0.00    +0.000 N 
ENDROOT
BRANCH  12  15
ATOM     15  C   UNL     1      -0.175  10.612  21.847  0.00  0.00    +0.000 A 
ATOM     16  C   UNL     1      -0.378  12.002  21.673  0.00  0.00    +0.000 A 
ATOM     17  C   UNL     1      -1.096  12.421  22.770  0.00  0.00    +0.000 A 
ATOM     18  O   UNL     1      -1.350  11.376  23.602  0.00  0.00    +0.000 OA
ATOM     19  C   UNL     1      -0.788  10.278  23.034  0.00  0.00    +0.000 A 
ENDBRANCH  12  15
BRANCH   1  20
ATOM     20  O   UNL     1       2.171   9.838  17.267  0.00  0.00    +0.000 OA
ATOM     21  H   UNL     1       1.421   9.761  16.655  0.00  0.00    +0.000 HD
ENDBRANCH   1  20
TORSDOF 2
ENDMDL
MODEL 7
REMARK VINA RESULT:      -7.2      4.115      5.457
REMARK  Name = 
REMARK  2 active torsions:
REMARK  status: ('A' for Active; 'I' for Inactive)
REMARK    1  A    between atoms: O_1  and  C_2
REMARK    2  A    between atoms: C_13  and  C_14
REMARK                            x       y       z     vdW  Elec       q    Type
REMARK                         _______ _______ _______ _____ _____    ______ ____
ROOT
ATOM      1  C   UNL     1       1.804   3.996  20.173  0.00  0.00    +0.000 A 
ATOM      2  N   UNL     1       2.451   3.222  19.359  0.00  0.00    +0.000 NA
ATOM      3  C   UNL     1       3.263   3.852  18.375  0.00  0.00    +0.000 A 
ATOM      4  C   UNL     1       3.989   3.043  17.501  0.00  0.00    +0.000 A 
ATOM      5  C   UNL     1       4.810   3.617  16.528  0.00  0.00    +0.000 A 
ATOM      6  C   UNL     1       4.906   5.007  16.425  0.00  0.00    +0.000 A 
ATOM      7 CL   UNL     1       5.930   5.696  15.228  0.00  0.00    +0.000 Cl
ATOM      8  C   UNL     1       4.185   5.839  17.285  0.00  0.00    +0.000 A 
ATOM      9  C   UNL     1       3.366   5.264  18.259  0.00  0.00    +0.000 A 
ATOM     10  C   UNL     1       2.594   6.055  19.205  0.00  0.00    +0.000 A 
ATOM     11  N   UNL     1       2.446   7.352  19.375  0.00  0.00    +0.000 NA
ATOM     12  C   UNL     1       1.596   7.419  20.461  0.00  0.00    +0.000 A 
ATOM     13  N   UNL     1       1.210   6.239  20.963  0.00  0.00    +0.000 NA
ATOM     14  N   UNL     1       1.849   5.387  20.139  0.00  0.00    +0.000 N 
ENDROOT
BRANCH  12  15
ATOM     15  C   UNL     1       1.170   8.697  21.012  0.00  0.00    +0.000 A 
ATOM     16  C   UNL     1       0.621   9.781  20.287  0.00  0.00    +0.000 A 
ATOM     17  C   UNL     1       0.379  10.771  21.212  0.00  0.00    +0.000 A 
ATOM     18  O   UNL     1       0.740  10.362  22.457  0.00  0.00    +0.000 OA
ATOM     19  C   UNL     1       1.219   9.097  22.328  0.00  0.00    +0.000 A 
ENDBRANCH  12  15
BRANCH   1  20
ATOM     20  O   UNL     1       1.013   3.497  21.140  0.00  0.00    +0.000 OA
ATOM     21  H   UNL     1       0.102   3.781  20.963  0.00  0.00    +0.000 HD
ENDBRANCH   1  20
TORSDOF 2
ENDMDL
MODEL 8
REMARK VINA RESULT:      -7.2      3.883      6.855
REMARK  Name = 
REMARK  2 active torsions:
REMARK  status: ('A' for Active; 'I' for Inactive)
REMARK    1  A    between atoms: O_1  and  C_2
REMARK    2  A    between atoms: C_13  and  C_14
REMARK                            x       y       z     vdW  Elec       q    Type
REMARK                         _______ _______ _______ _____ _____    ______ ____
ROOT
ATOM      1  C   UNL     1       2.993   4.558  19.989  0.00  0.00    +0.000 A 
ATOM      2  N   UNL     1       2.174   5.254  20.712  0.00  0.00    +0.000 NA
ATOM      3  C   UNL     1       1.904   6.584  20.287  0.00  0.00    +0.000 A 
ATOM      4  C   UNL     1       1.007   7.348  21.033  0.00  0.00    +0.000 A 
ATOM      5  C   UNL     1       0.701   8.655  20.646  0.00  0.00    +0.000 A 
ATOM      6  C   UNL     1       1.296   9.203  19.508  0.00  0.00    +0.000 A 
ATOM      7 CL   UNL     1       0.900  10.811  19.040  0.00  0.00    +0.000 Cl
ATOM      8  C   UNL     1       2.202   8.462  18.746  0.00  0.00    +0.000 A 
ATOM      9  C   UNL     1       2.505   7.155  19.133  0.00  0.00    +0.000 A 
ATOM     10  C   UNL     1       3.423   6.307  18.389  0.00  0.00    +0.000 A 
ATOM     11  N   UNL     1       4.149   6.506  17.308  0.00  0.00    +0.000 NA
ATOM     12  C   UNL     1       4.770   5.286  17.132  0.00  0.00    +0.000 A 
ATOM     13  N   UNL     1       4.473   4.352  18.045  0.00  0.00    +0.000 NA
ATOM     14  N   UNL     1       3.623   5.030  18.841  0.00  0.00    +0.000 N 
ENDROOT
BRANCH  12  15
ATOM     15  C   UNL     1       5.675   5.050  16.017  0.00  0.00    +0.000 A 
ATOM     16  C   UNL     1       5.385   4.317  14.842  0.00  0.00    +0.000 A 
ATOM     17  C   UNL     1       6.532   4.351  14.082  0.00  0.00    +0.000 A 
ATOM     18  O   UNL     1       7.503   5.063  14.713  0.00  0.00    +0.000 OA
ATOM     19  C   UNL     1       6.974   5.487  15.890  0.00  0.00    +0.000 A 
ENDBRANCH  12  15
BRANCH   1  20
ATOM     20  O   UNL     1       3.309   3.290  20.306  0.00  0.00    +0.000 OA
ATOM     21  H   UNL     1       3.864   3.306  21.102  0.00  0.00    +0.000 HD
ENDBRANCH   1  20
TORSDOF 2
ENDMDL
MODEL 9
REMARK VINA RESULT:      -6.9      5.266      6.535
REMARK  Name = 
REMARK  2 active torsions:
REMARK  status: ('A' for Active; 'I' for Inactive)
REMARK    1  A    between atoms: O_1  and  C_2
REMARK    2  A    between atoms: C_13  and  C_14
REMARK                            x       y       z     vdW  Elec       q    Type
REMARK                         _______ _______ _______ _____ _____    ______ ____
ROOT
ATOM      1  C   UNL     1       4.338   6.377  17.091  0.00  0.00    +0.000 A 
ATOM      2  N   UNL     1       4.635   5.161  17.426  0.00  0.00    +0.000 NA
ATOM      3  C   UNL     1       3.919   4.597  18.518  0.00  0.00    +0.000 A 
ATOM      4  C   UNL     1       4.201   3.281  18.885  0.00  0.00    +0.000 A 
ATOM      5  C   UNL     1       3.513   2.681  19.942  0.00  0.00    +0.000 A 
ATOM      6  C   UNL     1       2.540   3.400  20.639  0.00  0.00    +0.000 A 
ATOM      7 CL   UNL     1       1.695   2.642  21.932  0.00  0.00    +0.000 Cl
ATOM      8  C   UNL     1       2.241   4.720  20.295  0.00  0.00    +0.000 A 
ATOM      9  C   UNL     1       2.928   5.318  19.237  0.00  0.00    +0.000 A 
ATOM     10  C   UNL     1       2.670   6.682  18.801  0.00  0.00    +0.000 A 
ATOM     11  N   UNL     1       1.851   7.619  19.233  0.00  0.00    +0.000 NA
ATOM     12  C   UNL     1       2.097   8.660  18.360  0.00  0.00    +0.000 A 
ATOM     13  N   UNL     1       3.022   8.418  17.422  0.00  0.00    +0.000 NA
ATOM     14  N   UNL     1       3.380   7.157  17.731  0.00  0.00    +0.000 N 
ENDROOT
BRANCH  12  15
ATOM     15  C   UNL     1       1.380   9.922  18.465  0.00  0.00    +0.000 A 
ATOM     16  C   UNL     1      -0.019  10.082  18.612  0.00  0.00    +0.000 A 
ATOM     17  C   UNL     1      -0.241  11.439  18.660  0.00  0.00    +0.000 A 
ATOM     18  O   UNL     1       0.931  12.121  18.556  0.00  0.00    +0.000 OA
ATOM     19  C   UNL     1       1.914  11.190  18.440  0.00  0.00    +0.000 A 
ENDBRANCH  12  15
BRANCH   1  20
ATOM     20  O   UNL     1       4.956   6.997  16.070  0.00  0.00    +0.000 OA
ATOM     21  H   UNL     1       4.465   6.804  15.256  0.00  0.00    +0.000 HD
ENDBRANCH   1  20
TORSDOF 2
ENDMDL
