MODEL 1
REMARK VINA RESULT:      -7.7      0.000      0.000
REMARK  Name = 
REMARK  8 active torsions:
REMARK  status: ('A' for Active; 'I' for Inactive)
REMARK    1  A    between atoms: C_1  and  C_2
REMARK    2  A    between atoms: C_6  and  N_7
REMARK    3  A    between atoms: C_10  and  S_11
REMARK    4  A    between atoms: S_11  and  N_14
REMARK    5  A    between atoms: N_14  and  C_15
REMARK    6  A    between atoms: N_14  and  N_16
REMARK    7  A    between atoms: C_17  and  C_18
REMARK    8  A    between atoms: C_24  and  C_25
REMARK                            x       y       z     vdW  Elec       q    Type
REMARK                         _______ _______ _______ _____ _____    ______ ____
ROOT
ATOM      1  N   UNL     1       3.344   4.447  19.878  0.00  0.00    +0.000 N 
ATOM      2  C   UNL     1       2.504   3.258  20.142  0.00  0.00    +0.000 C 
ENDROOT
BRANCH   1   3
ATOM      3  S   UNL     1       4.954   4.185  19.304  0.00  0.00    +0.000 S 
ATOM      4  O   UNL     1       5.242   2.807  19.656  0.00  0.00    +0.000 OA
ATOM      5  O   UNL     1       5.752   5.267  19.848  0.00  0.00    +0.000 OA
BRANCH   3  12
ATOM      6  C   UNL     1       2.894   3.351  16.696  0.00  0.00    +0.000 C 
ATOM      7  C   UNL     1       4.285   3.883  16.521  0.00  0.00    +0.000 A 
ATOM      8  C   UNL     1       4.687   4.036  15.166  0.00  0.00    +0.000 A 
ATOM      9  C   UNL     1       5.944   4.510  14.800  0.00  0.00    +0.000 A 
ATOM     10  C   UNL     1       6.840   4.871  15.788  0.00  0.00    +0.000 A 
ATOM     11  C   UNL     1       6.460   4.755  17.134  0.00  0.00    +0.000 A 
ATOM     12  C   UNL     1       5.189   4.260  17.538  0.00  0.00    +0.000 A 
BRANCH  11  13
ATOM     13  N   UNL     1       7.471   5.224  18.075  0.00  0.00    +0.000 N 
ATOM     14  O   UNL     1       7.578   6.451  18.201  0.00  0.00    +0.000 OA
ATOM     15  O   UNL     1       8.220   4.381  18.577  0.00  0.00    +0.000 OA
ENDBRANCH  11  13
ENDBRANCH   3  12
ENDBRANCH   1   3
BRANCH   1  16
ATOM     16  N   UNL     1       2.508   5.571  19.232  0.00  0.00    +0.000 NA
ATOM     17  C   UNL     1       2.997   6.773  19.295  0.00  0.00    +0.000 C 
BRANCH  17  18
ATOM     18  C   UNL     1       2.281   7.923  18.785  0.00  0.00    +0.000 A 
ATOM     19  C   UNL     1       2.199   8.453  17.485  0.00  0.00    +0.000 A 
ATOM     20  N   UNL     1       1.436   9.547  17.404  0.00  0.00    +0.000 NA
ATOM     21  N   UNL     1       0.992   9.753  18.665  0.00  0.00    +0.000 N 
ATOM     22  C   UNL     1       0.166  10.791  19.113  0.00  0.00    +0.000 A 
ATOM     23  C   UNL     1      -0.188  10.869  20.408  0.00  0.00    +0.000 A 
ATOM     24  C   UNL     1       0.285   9.848  21.337  0.00  0.00    +0.000 A 
ATOM     25  C   UNL     1       1.081   8.839  20.911  0.00  0.00    +0.000 A 
ATOM     26  C   UNL     1       1.473   8.770  19.533  0.00  0.00    +0.000 A 
BRANCH  24  27
ATOM     27  C   UNL     1      -0.098   9.932  22.715  0.00  0.00    +0.000 C 
ATOM     28  N   UNL     1      -0.417   9.999  23.826  0.00  0.00    +0.000 NA
ENDBRANCH  24  27
ENDBRANCH  17  18
ENDBRANCH   1  16
TORSDOF 6
ENDMDL
MODEL 2
REMARK VINA RESULT:      -7.5      4.133      8.688
REMARK  Name = 
REMARK  8 active torsions:
REMARK  status: ('A' for Active; 'I' for Inactive)
REMARK    1  A    between atoms: C_1  and  C_2
REMARK    2  A    between atoms: C_6  and  N_7
REMARK    3  A    between atoms: C_10  and  S_11
REMARK    4  A    between atoms: S_11  and  N_14
REMARK    5  A    between atoms: N_14  and  C_15
REMARK    6  A    between atoms: N_14  and  N_16
REMARK    7  A    between atoms: C_17  and  C_18
REMARK    8  A    between atoms: C_24  and  C_25
REMARK                            x       y       z     vdW  Elec       q    Type
REMARK                         _______ _______ _______ _____ _____    ______ ____
ROOT
ATOM      1  N   UNL     1       0.585   9.133  21.328  0.00  0.00    +0.000 N 
ATOM      2  C   UNL     1       1.514   9.272  22.471  0.00  0.00    +0.000 C 
ENDROOT
BRANCH   1   3
ATOM      3  S   UNL     1       0.517  10.427  20.183  0.00  0.00    +0.000 S 
ATOM      4  O   UNL     1       0.824   9.798  18.912  0.00  0.00    +0.000 OA
ATOM      5  O   UNL     1       1.370  11.473  20.713  0.00  0.00    +0.000 OA
BRANCH   3  12
ATOM      6  C   UNL     1      -1.689  10.302  17.564  0.00  0.00    +0.000 C 
ATOM      7  C   UNL     1      -1.926  11.094  18.815  0.00  0.00    +0.000 A 
ATOM      8  C   UNL     1      -3.166  11.788  18.842  0.00  0.00    +0.000 A 
ATOM      9  C   UNL     1      -3.564  12.581  19.916  0.00  0.00    +0.000 A 
ATOM     10  C   UNL     1      -2.736  12.688  21.016  0.00  0.00    +0.000 A 
ATOM     11  C   UNL     1      -1.517  11.993  21.026  0.00  0.00    +0.000 A 
ATOM     12  C   UNL     1      -1.077  11.187  19.940  0.00  0.00    +0.000 A 
BRANCH  11  13
ATOM     13  N   UNL     1      -0.764  12.141  22.267  0.00  0.00    +0.000 N 
ATOM     14  O   UNL     1      -1.015  11.325  23.163  0.00  0.00    +0.000 OA
ATOM     15  O   UNL     1      -0.033  13.129  22.379  0.00  0.00    +0.000 OA
ENDBRANCH  11  13
ENDBRANCH   3  12
ENDBRANCH   1   3
BRANCH   1  16
ATOM     16  N   UNL     1       0.586   7.684  20.800  0.00  0.00    +0.000 NA
ATOM     17  C   UNL     1       1.727   7.062  20.798  0.00  0.00    +0.000 C 
BRANCH  17  18
ATOM     18  C   UNL     1       1.873   5.723  20.269  0.00  0.00    +0.000 A 
ATOM     19  C   UNL     1       1.317   4.501  20.690  0.00  0.00    +0.000 A 
ATOM     20  N   UNL     1       1.697   3.459  19.945  0.00  0.00    +0.000 NA
ATOM     21  N   UNL     1       2.514   3.986  19.004  0.00  0.00    +0.000 N 
ATOM     22  C   UNL     1       3.189   3.299  17.989  0.00  0.00    +0.000 A 
ATOM     23  C   UNL     1       3.978   3.963  17.126  0.00  0.00    +0.000 A 
ATOM     24  C   UNL     1       4.109   5.411  17.250  0.00  0.00    +0.000 A 
ATOM     25  C   UNL     1       3.456   6.083  18.229  0.00  0.00    +0.000 A 
ATOM     26  C   UNL     1       2.631   5.369  19.160  0.00  0.00    +0.000 A 
BRANCH  24  27
ATOM     27  C   UNL     1       4.946   6.115  16.326  0.00  0.00    +0.000 C 
ATOM     28  N   UNL     1       5.623   6.692  15.585  0.00  0.00    +0.000 NA
ENDBRANCH  24  27
ENDBRANCH  17  18
ENDBRANCH   1  16
TORSDOF 6
ENDMDL
MODEL 3
REMARK VINA RESULT:      -7.5      1.288      2.371
REMARK  Name = 
REMARK  8 active torsions:
REMARK  status: ('A' for Active; 'I' for Inactive)
REMARK    1  A    between atoms: C_1  and  C_2
REMARK    2  A    between atoms: C_6  and  N_7
REMARK    3  A    between atoms: C_10  and  S_11
REMARK    4  A    between atoms: S_11  and  N_14
REMARK    5  A    between atoms: N_14  and  C_15
REMARK    6  A    between atoms: N_14  and  N_16
REMARK    7  A    between atoms: C_17  and  C_18
REMARK    8  A    between atoms: C_24  and  C_25
REMARK                            x       y       z     vdW  Elec       q    Type
REMARK                         _______ _______ _______ _____ _____    ______ ____
ROOT
ATOM      1  N   UNL     1       3.494   4.846  19.897  0.00  0.00    +0.000 N 
ATOM      2  C   UNL     1       2.419   3.922  20.320  0.00  0.00    +0.000 C 
ENDROOT
BRANCH   1   3
ATOM      3  S   UNL     1       5.014   4.160  19.440  0.00  0.00    +0.000 S 
ATOM      4  O   UNL     1       4.825   2.731  19.598  0.00  0.00    +0.000 OA
ATOM      5  O   UNL     1       6.017   4.862  20.218  0.00  0.00    +0.000 OA
BRANCH   3  12
ATOM      6  C   UNL     1       7.685   5.764  18.013  0.00  0.00    +0.000 C 
ATOM      7  C   UNL     1       6.618   5.061  17.228  0.00  0.00    +0.000 A 
ATOM      8  C   UNL     1       6.812   5.093  15.819  0.00  0.00    +0.000 A 
ATOM      9  C   UNL     1       5.927   4.501  14.922  0.00  0.00    +0.000 A 
ATOM     10  C   UNL     1       4.822   3.832  15.410  0.00  0.00    +0.000 A 
ATOM     11  C   UNL     1       4.621   3.762  16.797  0.00  0.00    +0.000 A 
ATOM     12  C   UNL     1       5.498   4.369  17.738  0.00  0.00    +0.000 A 
BRANCH  11  13
ATOM     13  N   UNL     1       3.453   2.978  17.185  0.00  0.00    +0.000 N 
ATOM     14  O   UNL     1       3.674   1.838  17.613  0.00  0.00    +0.000 OA
ATOM     15  O   UNL     1       2.339   3.453  16.945  0.00  0.00    +0.000 OA
ENDBRANCH  11  13
ENDBRANCH   3  12
ENDBRANCH   1   3
BRANCH   1  16
ATOM     16  N   UNL     1       2.919   5.994  19.041  0.00  0.00    +0.000 NA
ATOM     17  C   UNL     1       2.634   7.100  19.662  0.00  0.00    +0.000 C 
BRANCH  17  18
ATOM     18  C   UNL     1       2.030   8.227  18.985  0.00  0.00    +0.000 A 
ATOM     19  C   UNL     1       2.115   8.651  17.646  0.00  0.00    +0.000 A 
ATOM     20  N   UNL     1       1.415   9.760  17.394  0.00  0.00    +0.000 NA
ATOM     21  N   UNL     1       0.845  10.087  18.576  0.00  0.00    +0.000 N 
ATOM     22  C   UNL     1       0.023  11.187  18.845  0.00  0.00    +0.000 A 
ATOM     23  C   UNL     1      -0.467  11.385  20.081  0.00  0.00    +0.000 A 
ATOM     24  C   UNL     1      -0.145  10.429  21.136  0.00  0.00    +0.000 A 
ATOM     25  C   UNL     1       0.647   9.360  20.883  0.00  0.00    +0.000 A 
ATOM     26  C   UNL     1       1.184   9.163  19.568  0.00  0.00    +0.000 A 
BRANCH  24  27
ATOM     27  C   UNL     1      -0.673  10.641  22.450  0.00  0.00    +0.000 C 
ATOM     28  N   UNL     1      -1.109  10.809  23.510  0.00  0.00    +0.000 NA
ENDBRANCH  24  27
ENDBRANCH  17  18
ENDBRANCH   1  16
TORSDOF 6
ENDMDL
MODEL 4
REMARK VINA RESULT:      -7.3      4.648      9.136
REMARK  Name = 
REMARK  8 active torsions:
REMARK  status: ('A' for Active; 'I' for Inactive)
REMARK    1  A    between atoms: C_1  and  C_2
REMARK    2  A    between atoms: C_6  and  N_7
REMARK    3  A    between atoms: C_10  and  S_11
REMARK    4  A    between atoms: S_11  and  N_14
REMARK    5  A    between atoms: N_14  and  C_15
REMARK    6  A    between atoms: N_14  and  N_16
REMARK    7  A    between atoms: C_17  and  C_18
REMARK    8  A    between atoms: C_24  and  C_25
REMARK                            x       y       z     vdW  Elec       q    Type
REMARK                         _______ _______ _______ _____ _____    ______ ____
ROOT
ATOM      1  N   UNL     1       0.972  10.105  19.388  0.00  0.00    +0.000 N 
ATOM      2  C   UNL     1       0.204   9.924  18.137  0.00  0.00    +0.000 C 
ENDROOT
BRANCH   1   3
ATOM      3  S   UNL     1       0.402  11.280  20.522  0.00  0.00    +0.000 S 
ATOM      4  O   UNL     1       1.054  10.923  21.768  0.00  0.00    +0.000 OA
ATOM      5  O   UNL     1      -1.045  11.265  20.416  0.00  0.00    +0.000 OA
BRANCH   3  12
ATOM      6  C   UNL     1       2.557  12.663  18.246  0.00  0.00    +0.000 C 
ATOM      7  C   UNL     1       1.798  13.459  19.265  0.00  0.00    +0.000 A 
ATOM      8  C   UNL     1       2.030  14.861  19.203  0.00  0.00    +0.000 A 
ATOM      9  C   UNL     1       1.420  15.766  20.069  0.00  0.00    +0.000 A 
ATOM     10  C   UNL     1       0.535  15.295  21.019  0.00  0.00    +0.000 A 
ATOM     11  C   UNL     1       0.268  13.919  21.085  0.00  0.00    +0.000 A 
ATOM     12  C   UNL     1       0.886  12.969  20.224  0.00  0.00    +0.000 A 
BRANCH  11  13
ATOM     13  N   UNL     1      -0.727  13.559  22.089  0.00  0.00    +0.000 N 
ATOM     14  O   UNL     1      -1.913  13.706  21.765  0.00  0.00    +0.000 OA
ATOM     15  O   UNL     1      -0.321  13.257  23.215  0.00  0.00    +0.000 OA
ENDBRANCH  11  13
ENDBRANCH   3  12
ENDBRANCH   1   3
BRANCH   1  16
ATOM     16  N   UNL     1       1.466   8.746  19.925  0.00  0.00    +0.000 NA
ATOM     17  C   UNL     1       2.055   7.960  19.073  0.00  0.00    +0.000 C 
BRANCH  17  18
ATOM     18  C   UNL     1       2.506   6.634  19.436  0.00  0.00    +0.000 A 
ATOM     19  C   UNL     1       1.998   5.711  20.368  0.00  0.00    +0.000 A 
ATOM     20  N   UNL     1       2.700   4.576  20.430  0.00  0.00    +0.000 NA
ATOM     21  N   UNL     1       3.693   4.733  19.524  0.00  0.00    +0.000 N 
ATOM     22  C   UNL     1       4.713   3.825  19.220  0.00  0.00    +0.000 A 
ATOM     23  C   UNL     1       5.639   4.126  18.294  0.00  0.00    +0.000 A 
ATOM     24  C   UNL     1       5.557   5.404  17.594  0.00  0.00    +0.000 A 
ATOM     25  C   UNL     1       4.570   6.287  17.880  0.00  0.00    +0.000 A 
ATOM     26  C   UNL     1       3.596   5.971  18.883  0.00  0.00    +0.000 A 
BRANCH  24  27
ATOM     27  C   UNL     1       6.542   5.720  16.604  0.00  0.00    +0.000 C 
ATOM     28  N   UNL     1       7.337   5.966  15.799  0.00  0.00    +0.000 NA
ENDBRANCH  24  27
ENDBRANCH  17  18
ENDBRANCH   1  16
TORSDOF 6
ENDMDL
MODEL 5
REMARK VINA RESULT:      -7.2      4.391      9.075
REMARK  Name = 
REMARK  8 active torsions:
REMARK  status: ('A' for Active; 'I' for Inactive)
REMARK    1  A    between atoms: C_1  and  C_2
REMARK    2  A    between atoms: C_6  and  N_7
REMARK    3  A    between atoms: C_10  and  S_11
REMARK    4  A    between atoms: S_11  and  N_14
REMARK    5  A    between atoms: N_14  and  C_15
REMARK    6  A    between atoms: N_14  and  N_16
REMARK    7  A    between atoms: C_17  and  C_18
REMARK    8  A    between atoms: C_24  and  C_25
REMARK                            x       y       z     vdW  Elec       q    Type
REMARK                         _______ _______ _______ _____ _____    ______ ____
ROOT
ATOM      1  N   UNL     1       1.479   9.619  18.984  0.00  0.00    +0.000 N 
ATOM      2  C   UNL     1       2.397   9.855  17.847  0.00  0.00    +0.000 C 
ENDROOT
BRANCH   1   3
ATOM      3  S   UNL     1       0.110  10.663  19.144  0.00  0.00    +0.000 S 
ATOM      4  O   UNL     1      -0.949   9.980  18.424  0.00  0.00    +0.000 OA
ATOM      5  O   UNL     1       0.559  11.977  18.725  0.00  0.00    +0.000 OA
BRANCH   3  12
ATOM      6  C   UNL     1       0.903   9.149  22.114  0.00  0.00    +0.000 C 
ATOM      7  C   UNL     1      -0.155  10.202  21.972  0.00  0.00    +0.000 A 
ATOM      8  C   UNL     1      -0.804  10.547  23.190  0.00  0.00    +0.000 A 
ATOM      9  C   UNL     1      -1.817  11.500  23.262  0.00  0.00    +0.000 A 
ATOM     10  C   UNL     1      -2.201  12.162  22.112  0.00  0.00    +0.000 A 
ATOM     11  C   UNL     1      -1.558  11.860  20.901  0.00  0.00    +0.000 A 
ATOM     12  C   UNL     1      -0.531  10.881  20.793  0.00  0.00    +0.000 A 
BRANCH  11  13
ATOM     13  N   UNL     1      -2.013  12.668  19.775  0.00  0.00    +0.000 N 
ATOM     14  O   UNL     1      -1.533  13.806  19.685  0.00  0.00    +0.000 OA
ATOM     15  O   UNL     1      -2.922  12.214  19.074  0.00  0.00    +0.000 OA
ENDBRANCH  11  13
ENDBRANCH   3  12
ENDBRANCH   1   3
BRANCH   1  16
ATOM     16  N   UNL     1       1.282   8.108  19.219  0.00  0.00    +0.000 NA
ATOM     17  C   UNL     1       2.352   7.408  19.456  0.00  0.00    +0.000 C 
BRANCH  17  18
ATOM     18  C   UNL     1       2.309   5.973  19.630  0.00  0.00    +0.000 A 
ATOM     19  C   UNL     1       1.659   5.181  20.594  0.00  0.00    +0.000 A 
ATOM     20  N   UNL     1       1.863   3.871  20.432  0.00  0.00    +0.000 NA
ATOM     21  N   UNL     1       2.657   3.776  19.341  0.00  0.00    +0.000 N 
ATOM     22  C   UNL     1       3.171   2.608  18.767  0.00  0.00    +0.000 A 
ATOM     23  C   UNL     1       3.958   2.674  17.679  0.00  0.00    +0.000 A 
ATOM     24  C   UNL     1       4.255   3.977  17.093  0.00  0.00    +0.000 A 
ATOM     25  C   UNL     1       3.758   5.112  17.641  0.00  0.00    +0.000 A 
ATOM     26  C   UNL     1       2.936   5.039  18.813  0.00  0.00    +0.000 A 
BRANCH  24  27
ATOM     27  C   UNL     1       5.090   4.042  15.931  0.00  0.00    +0.000 C 
ATOM     28  N   UNL     1       5.771   4.099  14.997  0.00  0.00    +0.000 NA
ENDBRANCH  24  27
ENDBRANCH  17  18
ENDBRANCH   1  16
TORSDOF 6
ENDMDL
MODEL 6
REMARK VINA RESULT:      -7.2      3.859      9.108
REMARK  Name = 
REMARK  8 active torsions:
REMARK  status: ('A' for Active; 'I' for Inactive)
REMARK    1  A    between atoms: C_1  and  C_2
REMARK    2  A    between atoms: C_6  and  N_7
REMARK    3  A    between atoms: C_10  and  S_11
REMARK    4  A    between atoms: S_11  and  N_14
REMARK    5  A    between atoms: N_14  and  C_15
REMARK    6  A    between atoms: N_14  and  N_16
REMARK    7  A    between atoms: C_17  and  C_18
REMARK    8  A    between atoms: C_24  and  C_25
REMARK                            x       y       z     vdW  Elec       q    Type
REMARK                         _______ _______ _______ _____ _____    ______ ____
ROOT
ATOM      1  N   UNL     1       0.688  10.123  19.508  0.00  0.00    +0.000 N 
ATOM      2  C   UNL     1      -0.516  10.252  18.658  0.00  0.00    +0.000 C 
ENDROOT
BRANCH   1   3
ATOM      3  S   UNL     1       0.935  11.311  20.740  0.00  0.00    +0.000 S 
ATOM      4  O   UNL     1       1.485  12.453  20.034  0.00  0.00    +0.000 OA
ATOM      5  O   UNL     1       1.699  10.650  21.782  0.00  0.00    +0.000 OA
BRANCH   3  12
ATOM      6  C   UNL     1      -0.908  14.152  20.223  0.00  0.00    +0.000 C 
ATOM      7  C   UNL     1      -1.225  13.134  21.277  0.00  0.00    +0.000 A 
ATOM      8  C   UNL     1      -2.382  13.431  22.048  0.00  0.00    +0.000 A 
ATOM      9  C   UNL     1      -2.836  12.609  23.077  0.00  0.00    +0.000 A 
ATOM     10  C   UNL     1      -2.153  11.441  23.354  0.00  0.00    +0.000 A 
ATOM     11  C   UNL     1      -1.023  11.110  22.591  0.00  0.00    +0.000 A 
ATOM     12  C   UNL     1      -0.527  11.936  21.544  0.00  0.00    +0.000 A 
BRANCH  11  13
ATOM     13  N   UNL     1      -0.429   9.825  22.944  0.00  0.00    +0.000 N 
ATOM     14  O   UNL     1      -0.851   8.837  22.329  0.00  0.00    +0.000 OA
ATOM     15  O   UNL     1       0.350   9.797  23.901  0.00  0.00    +0.000 OA
ENDBRANCH  11  13
ENDBRANCH   3  12
ENDBRANCH   1   3
BRANCH   1  16
ATOM     16  N   UNL     1       0.957   8.643  19.849  0.00  0.00    +0.000 NA
ATOM     17  C   UNL     1       2.041   8.118  19.360  0.00  0.00    +0.000 C 
BRANCH  17  18
ATOM     18  C   UNL     1       2.374   6.723  19.554  0.00  0.00    +0.000 A 
ATOM     19  C   UNL     1       1.973   5.810  20.545  0.00  0.00    +0.000 A 
ATOM     20  N   UNL     1       2.505   4.594  20.395  0.00  0.00    +0.000 NA
ATOM     21  N   UNL     1       3.272   4.686  19.284  0.00  0.00    +0.000 N 
ATOM     22  C   UNL     1       4.058   3.680  18.712  0.00  0.00    +0.000 A 
ATOM     23  C   UNL     1       4.776   3.925  17.603  0.00  0.00    +0.000 A 
ATOM     24  C   UNL     1       4.713   5.249  16.992  0.00  0.00    +0.000 A 
ATOM     25  C   UNL     1       3.952   6.227  17.538  0.00  0.00    +0.000 A 
ATOM     26  C   UNL     1       3.203   5.968  18.733  0.00  0.00    +0.000 A 
BRANCH  24  27
ATOM     27  C   UNL     1       5.476   5.505  15.807  0.00  0.00    +0.000 C 
ATOM     28  N   UNL     1       6.090   5.721  14.850  0.00  0.00    +0.000 NA
ENDBRANCH  24  27
ENDBRANCH  17  18
ENDBRANCH   1  16
TORSDOF 6
ENDMDL
MODEL 7
REMARK VINA RESULT:      -7.2      4.172      8.566
REMARK  Name = 
REMARK  8 active torsions:
REMARK  status: ('A' for Active; 'I' for Inactive)
REMARK    1  A    between atoms: C_1  and  C_2
REMARK    2  A    between atoms: C_6  and  N_7
REMARK    3  A    between atoms: C_10  and  S_11
REMARK    4  A    between atoms: S_11  and  N_14
REMARK    5  A    between atoms: N_14  and  C_15
REMARK    6  A    between atoms: N_14  and  N_16
REMARK    7  A    between atoms: C_17  and  C_18
REMARK    8  A    between atoms: C_24  and  C_25
REMARK                            x       y       z     vdW  Elec       q    Type
REMARK                         _______ _______ _______ _____ _____    ______ ____
ROOT
ATOM      1  N   UNL     1       0.935  10.025  18.663  0.00  0.00    +0.000 N 
ATOM      2  C   UNL     1      -0.101   9.605  17.694  0.00  0.00    +0.000 C 
ENDROOT
BRANCH   1   3
ATOM      3  S   UNL     1       0.419  10.469  20.253  0.00  0.00    +0.000 S 
ATOM      4  O   UNL     1       1.364   9.810  21.135  0.00  0.00    +0.000 OA
ATOM      5  O   UNL     1      -0.995  10.151  20.316  0.00  0.00    +0.000 OA
BRANCH   3  12
ATOM      6  C   UNL     1       2.040  13.074  18.728  0.00  0.00    +0.000 C 
ATOM      7  C   UNL     1       1.243  13.214  19.991  0.00  0.00    +0.000 A 
ATOM      8  C   UNL     1       1.193  14.537  20.508  0.00  0.00    +0.000 A 
ATOM      9  C   UNL     1       0.507  14.867  21.675  0.00  0.00    +0.000 A 
ATOM     10  C   UNL     1      -0.176  13.878  22.355  0.00  0.00    +0.000 A 
ATOM     11  C   UNL     1      -0.165  12.567  21.852  0.00  0.00    +0.000 A 
ATOM     12  C   UNL     1       0.538  12.197  20.672  0.00  0.00    +0.000 A 
BRANCH  11  13
ATOM     13  N   UNL     1      -0.972  11.631  22.628  0.00  0.00    +0.000 N 
ATOM     14  O   UNL     1      -2.197  11.807  22.599  0.00  0.00    +0.000 OA
ATOM     15  O   UNL     1      -0.378  10.822  23.346  0.00  0.00    +0.000 OA
ENDBRANCH  11  13
ENDBRANCH   3  12
ENDBRANCH   1   3
BRANCH   1  16
ATOM     16  N   UNL     1       2.201   9.156  18.518  0.00  0.00    +0.000 NA
ATOM     17  C   UNL     1       2.023   7.918  18.164  0.00  0.00    +0.000 C 
BRANCH  17  18
ATOM     18  C   UNL     1       3.122   6.984  18.055  0.00  0.00    +0.000 A 
ATOM     19  C   UNL     1       4.284   7.017  17.262  0.00  0.00    +0.000 A 
ATOM     20  N   UNL     1       5.074   5.953  17.431  0.00  0.00    +0.000 NA
ATOM     21  N   UNL     1       4.441   5.195  18.356  0.00  0.00    +0.000 N 
ATOM     22  C   UNL     1       4.856   3.960  18.866  0.00  0.00    +0.000 A 
ATOM     23  C   UNL     1       4.111   3.317  19.782  0.00  0.00    +0.000 A 
ATOM     24  C   UNL     1       2.874   3.931  20.252  0.00  0.00    +0.000 A 
ATOM     25  C   UNL     1       2.468   5.128  19.766  0.00  0.00    +0.000 A 
ATOM     26  C   UNL     1       3.254   5.802  18.774  0.00  0.00    +0.000 A 
BRANCH  24  27
ATOM     27  C   UNL     1       2.087   3.245  21.232  0.00  0.00    +0.000 C 
ATOM     28  N   UNL     1       1.448   2.685  22.018  0.00  0.00    +0.000 NA
ENDBRANCH  24  27
ENDBRANCH  17  18
ENDBRANCH   1  16
TORSDOF 6
ENDMDL
MODEL 8
REMARK VINA RESULT:      -7.2      5.753      8.904
REMARK  Name = 
REMARK  8 active torsions:
REMARK  status: ('A' for Active; 'I' for Inactive)
REMARK    1  A    between atoms: C_1  and  C_2
REMARK    2  A    between atoms: C_6  and  N_7
REMARK    3  A    between atoms: C_10  and  S_11
REMARK    4  A    between atoms: S_11  and  N_14
REMARK    5  A    between atoms: N_14  and  C_15
REMARK    6  A    between atoms: N_14  and  N_16
REMARK    7  A    between atoms: C_17  and  C_18
REMARK    8  A    between atoms: C_24  and  C_25
REMARK                            x       y       z     vdW  Elec       q    Type
REMARK                         _______ _______ _______ _____ _____    ______ ____
ROOT
ATOM      1  N   UNL     1       0.463   9.979  19.554  0.00  0.00    +0.000 N 
ATOM      2  C   UNL     1       1.527   9.547  18.621  0.00  0.00    +0.000 C 
ENDROOT
BRANCH   1   3
ATOM      3  S   UNL     1       0.830  11.254  20.663  0.00  0.00    +0.000 S 
ATOM      4  O   UNL     1       1.311  12.334  19.822  0.00  0.00    +0.000 OA
ATOM      5  O   UNL     1       1.689  10.667  21.674  0.00  0.00    +0.000 OA
BRANCH   3  12
ATOM      6  C   UNL     1      -0.861  14.210  20.287  0.00  0.00    +0.000 C 
ATOM      7  C   UNL     1      -1.184  13.194  21.341  0.00  0.00    +0.000 A 
ATOM      8  C   UNL     1      -2.279  13.547  22.178  0.00  0.00    +0.000 A 
ATOM      9  C   UNL     1      -2.727  12.735  23.217  0.00  0.00    +0.000 A 
ATOM     10  C   UNL     1      -2.103  11.523  23.440  0.00  0.00    +0.000 A 
ATOM     11  C   UNL     1      -1.036  11.138  22.613  0.00  0.00    +0.000 A 
ATOM     12  C   UNL     1      -0.547  11.951  21.553  0.00  0.00    +0.000 A 
BRANCH  11  13
ATOM     13  N   UNL     1      -0.504   9.814  22.914  0.00  0.00    +0.000 N 
ATOM     14  O   UNL     1       0.322   9.750  23.834  0.00  0.00    +0.000 OA
ATOM     15  O   UNL     1      -0.816   8.887  22.162  0.00  0.00    +0.000 OA
ENDBRANCH  11  13
ENDBRANCH   3  12
ENDBRANCH   1   3
BRANCH   1  16
ATOM     16  N   UNL     1      -0.907   9.993  18.846  0.00  0.00    +0.000 NA
ATOM     17  C   UNL     1      -1.112  10.945  17.986  0.00  0.00    +0.000 C 
BRANCH  17  18
ATOM     18  C   UNL     1      -2.377  11.106  17.303  0.00  0.00    +0.000 A 
ATOM     19  C   UNL     1      -2.740  10.860  15.966  0.00  0.00    +0.000 A 
ATOM     20  N   UNL     1      -4.018  11.142  15.701  0.00  0.00    +0.000 NA
ATOM     21  N   UNL     1      -4.527  11.579  16.876  0.00  0.00    +0.000 N 
ATOM     22  C   UNL     1      -5.833  12.016  17.123  0.00  0.00    +0.000 A 
ATOM     23  C   UNL     1      -6.192  12.431  18.350  0.00  0.00    +0.000 A 
ATOM     24  C   UNL     1      -5.208  12.401  19.427  0.00  0.00    +0.000 A 
ATOM     25  C   UNL     1      -3.943  11.975  19.197  0.00  0.00    +0.000 A 
ATOM     26  C   UNL     1      -3.558  11.553  17.882  0.00  0.00    +0.000 A 
BRANCH  24  27
ATOM     27  C   UNL     1      -5.596  12.838  20.735  0.00  0.00    +0.000 C 
ATOM     28  N   UNL     1      -5.908  13.200  21.789  0.00  0.00    +0.000 NA
ENDBRANCH  24  27
ENDBRANCH  17  18
ENDBRANCH   1  16
TORSDOF 6
ENDMDL
MODEL 9
REMARK VINA RESULT:      -7.1      4.068      8.837
REMARK  Name = 
REMARK  8 active torsions:
REMARK  status: ('A' for Active; 'I' for Inactive)
REMARK    1  A    between atoms: C_1  and  C_2
REMARK    2  A    between atoms: C_6  and  N_7
REMARK    3  A    between atoms: C_10  and  S_11
REMARK    4  A    between atoms: S_11  and  N_14
REMARK    5  A    between atoms: N_14  and  C_15
REMARK    6  A    between atoms: N_14  and  N_16
REMARK    7  A    between atoms: C_17  and  C_18
REMARK    8  A    between atoms: C_24  and  C_25
REMARK                            x       y       z     vdW  Elec       q    Type
REMARK                         _______ _______ _______ _____ _____    ______ ____
ROOT
ATOM      1  N   UNL     1       1.657   9.745  19.442  0.00  0.00    +0.000 N 
ATOM      2  C   UNL     1       1.788  10.558  18.213  0.00  0.00    +0.000 C 
ENDROOT
BRANCH   1   3
ATOM      3  S   UNL     1       0.637  10.346  20.702  0.00  0.00    +0.000 S 
ATOM      4  O   UNL     1       1.402  11.425  21.300  0.00  0.00    +0.000 OA
ATOM      5  O   UNL     1       0.253   9.190  21.490  0.00  0.00    +0.000 OA
BRANCH   3  12
ATOM      6  C   UNL     1      -1.220  10.018  17.842  0.00  0.00    +0.000 C 
ATOM      7  C   UNL     1      -1.593  10.923  18.978  0.00  0.00    +0.000 A 
ATOM      8  C   UNL     1      -2.809  11.635  18.784  0.00  0.00    +0.000 A 
ATOM      9  C   UNL     1      -3.320  12.527  19.724  0.00  0.00    +0.000 A 
ATOM     10  C   UNL     1      -2.636  12.720  20.908  0.00  0.00    +0.000 A 
ATOM     11  C   UNL     1      -1.446  12.011  21.136  0.00  0.00    +0.000 A 
ATOM     12  C   UNL     1      -0.892  11.105  20.190  0.00  0.00    +0.000 A 
BRANCH  11  13
ATOM     13  N   UNL     1      -0.854  12.260  22.446  0.00  0.00    +0.000 N 
ATOM     14  O   UNL     1      -1.123  11.441  23.335  0.00  0.00    +0.000 OA
ATOM     15  O   UNL     1      -0.238  13.318  22.605  0.00  0.00    +0.000 OA
ENDBRANCH  11  13
ENDBRANCH   3  12
ENDBRANCH   1   3
BRANCH   1  16
ATOM     16  N   UNL     1       1.589   8.243  19.096  0.00  0.00    +0.000 NA
ATOM     17  C   UNL     1       2.238   7.433  19.877  0.00  0.00    +0.000 C 
BRANCH  17  18
ATOM     18  C   UNL     1       2.306   6.010  19.624  0.00  0.00    +0.000 A 
ATOM     19  C   UNL     1       1.658   4.931  20.253  0.00  0.00    +0.000 A 
ATOM     20  N   UNL     1       1.985   3.742  19.739  0.00  0.00    +0.000 NA
ATOM     21  N   UNL     1       2.860   4.022  18.746  0.00  0.00    +0.000 N 
ATOM     22  C   UNL     1       3.512   3.109  17.909  0.00  0.00    +0.000 A 
ATOM     23  C   UNL     1       4.366   3.541  16.966  0.00  0.00    +0.000 A 
ATOM     24  C   UNL     1       4.592   4.974  16.812  0.00  0.00    +0.000 A 
ATOM     25  C   UNL     1       3.962   5.864  17.616  0.00  0.00    +0.000 A 
ATOM     26  C   UNL     1       3.067   5.399  18.635  0.00  0.00    +0.000 A 
BRANCH  24  27
ATOM     27  C   UNL     1       5.499   5.431  15.802  0.00  0.00    +0.000 C 
ATOM     28  N   UNL     1       6.232   5.791  14.982  0.00  0.00    +0.000 NA
ENDBRANCH  24  27
ENDBRANCH  17  18
ENDBRANCH   1  16
TORSDOF 6
ENDMDL
