MODEL 1
REMARK VINA RESULT:      -8.0      0.000      0.000
REMARK  Name = 
REMARK  3 active torsions:
REMARK  status: ('A' for Active; 'I' for Inactive)
REMARK    1  A    between atoms: C_1  and  N_2
REMARK    2  A    between atoms: N_7  and  C_8
REMARK    3  A    between atoms: N_11  and  C_12
REMARK                            x       y       z     vdW  Elec       q    Type
REMARK                         _______ _______ _______ _____ _____    ______ ____
ROOT
ATOM      1  C   UNL     1       0.723  10.400  19.443  0.00  0.00    +0.000 C 
ATOM      2  N   UNL     1       1.400   9.124  19.291  0.00  0.00    +0.000 N 
ATOM      3  C   UNL     1       2.284   8.947  18.247  0.00  0.00    +0.000 A 
ATOM      4  O   UNL     1       2.521   9.847  17.445  0.00  0.00    +0.000 OA
ATOM      5  N   UNL     1       2.944   7.762  18.098  0.00  0.00    +0.000 NA
ATOM      6  C   UNL     1       2.861   6.752  18.906  0.00  0.00    +0.000 A 
ATOM      7  N   UNL     1       3.610   5.556  18.748  0.00  0.00    +0.000 N 
ATOM      8  C   UNL     1       3.361   4.505  19.709  0.00  0.00    +0.000 A 
ATOM      9  C   UNL     1       4.084   3.296  19.742  0.00  0.00    +0.000 A 
ATOM     10  C   UNL     1       3.756   2.264  20.631  0.00  0.00    +0.000 A 
ATOM     11  C   UNL     1       2.745   2.447  21.561  0.00  0.00    +0.000 A 
ATOM     12  C   UNL     1       2.074   3.664  21.608  0.00  0.00    +0.000 A 
ATOM     13  C   UNL     1       2.371   4.684  20.696  0.00  0.00    +0.000 A 
ATOM     14  N   UNL     1       1.660   5.877  20.850  0.00  0.00    +0.000 NA
ATOM     15  C   UNL     1       1.888   6.868  20.048  0.00  0.00    +0.000 A 
ATOM     16  C   UNL     1       1.139   8.160  20.244  0.00  0.00    +0.000 A 
ATOM     17  O   UNL     1       0.381   8.299  21.194  0.00  0.00    +0.000 OA
ENDROOT
BRANCH   7  18
ATOM     18  C   UNL     1       4.477   5.437  17.597  0.00  0.00    +0.000 A 
ATOM     19  C   UNL     1       4.193   4.546  16.548  0.00  0.00    +0.000 A 
ATOM     20  C   UNL     1       5.081   4.365  15.491  0.00  0.00    +0.000 A 
ATOM     21  N   UNL     1       6.206   5.103  15.411  0.00  0.00    +0.000 N 
ATOM     22  C   UNL     1       7.144   4.909  14.294  0.00  0.00    +0.000 C 
ATOM     23  C   UNL     1       6.496   6.012  16.366  0.00  0.00    +0.000 A 
ATOM     24  C   UNL     1       5.672   6.159  17.481  0.00  0.00    +0.000 A 
ENDBRANCH   7  18
TORSDOF 1
ENDMDL
MODEL 2
REMARK VINA RESULT:      -7.4      2.083      5.399
REMARK  Name = 
REMARK  3 active torsions:
REMARK  status: ('A' for Active; 'I' for Inactive)
REMARK    1  A    between atoms: C_1  and  N_2
REMARK    2  A    between atoms: N_7  and  C_8
REMARK    3  A    between atoms: N_11  and  C_12
REMARK                            x       y       z     vdW  Elec       q    Type
REMARK                         _______ _______ _______ _____ _____    ______ ____
ROOT
ATOM      1  C   UNL     1       6.529   5.038  14.505  0.00  0.00    +0.000 C 
ATOM      2  N   UNL     1       5.650   5.183  15.652  0.00  0.00    +0.000 N 
ATOM      3  C   UNL     1       5.020   6.391  15.873  0.00  0.00    +0.000 A 
ATOM      4  O   UNL     1       5.177   7.347  15.118  0.00  0.00    +0.000 OA
ATOM      5  N   UNL     1       4.176   6.541  16.935  0.00  0.00    +0.000 NA
ATOM      6  C   UNL     1       3.847   5.605  17.769  0.00  0.00    +0.000 A 
ATOM      7  N   UNL     1       2.918   5.787  18.828  0.00  0.00    +0.000 N 
ATOM      8  C   UNL     1       2.702   4.654  19.701  0.00  0.00    +0.000 A 
ATOM      9  C   UNL     1       1.750   4.646  20.740  0.00  0.00    +0.000 A 
ATOM     10  C   UNL     1       1.631   3.564  21.621  0.00  0.00    +0.000 A 
ATOM     11  C   UNL     1       2.409   2.432  21.437  0.00  0.00    +0.000 A 
ATOM     12  C   UNL     1       3.294   2.380  20.367  0.00  0.00    +0.000 A 
ATOM     13  C   UNL     1       3.447   3.474  19.506  0.00  0.00    +0.000 A 
ATOM     14  N   UNL     1       4.340   3.305  18.445  0.00  0.00    +0.000 NA
ATOM     15  C   UNL     1       4.526   4.272  17.603  0.00  0.00    +0.000 A 
ATOM     16  C   UNL     1       5.466   4.068  16.445  0.00  0.00    +0.000 A 
ATOM     17  O   UNL     1       5.990   2.979  16.256  0.00  0.00    +0.000 OA
ENDROOT
BRANCH   7  18
ATOM     18  C   UNL     1       2.343   7.099  19.017  0.00  0.00    +0.000 A 
ATOM     19  C   UNL     1       1.964   7.563  20.288  0.00  0.00    +0.000 A 
ATOM     20  C   UNL     1       1.320   8.788  20.451  0.00  0.00    +0.000 A 
ATOM     21  N   UNL     1       1.115   9.595  19.393  0.00  0.00    +0.000 N 
ATOM     22  C   UNL     1       0.433  10.889  19.567  0.00  0.00    +0.000 C 
ATOM     23  C   UNL     1       1.511   9.219  18.159  0.00  0.00    +0.000 A 
ATOM     24  C   UNL     1       2.082   7.965  17.947  0.00  0.00    +0.000 A 
ENDBRANCH   7  18
TORSDOF 1
ENDMDL
MODEL 3
REMARK VINA RESULT:      -6.7      2.378      5.572
REMARK  Name = 
REMARK  3 active torsions:
REMARK  status: ('A' for Active; 'I' for Inactive)
REMARK    1  A    between atoms: C_1  and  N_2
REMARK    2  A    between atoms: N_7  and  C_8
REMARK    3  A    between atoms: N_11  and  C_12
REMARK                            x       y       z     vdW  Elec       q    Type
REMARK                         _______ _______ _______ _____ _____    ______ ____
ROOT
ATOM      1  C   UNL     1       7.545   5.600  15.393  0.00  0.00    +0.000 C 
ATOM      2  N   UNL     1       6.350   5.525  16.215  0.00  0.00    +0.000 N 
ATOM      3  C   UNL     1       5.815   6.684  16.739  0.00  0.00    +0.000 A 
ATOM      4  O   UNL     1       6.319   7.782  16.519  0.00  0.00    +0.000 OA
ATOM      5  N   UNL     1       4.683   6.636  17.499  0.00  0.00    +0.000 NA
ATOM      6  C   UNL     1       3.993   5.567  17.750  0.00  0.00    +0.000 A 
ATOM      7  N   UNL     1       2.786   5.568  18.497  0.00  0.00    +0.000 N 
ATOM      8  C   UNL     1       2.168   4.282  18.730  0.00  0.00    +0.000 A 
ATOM      9  C   UNL     1       0.926   4.123  19.376  0.00  0.00    +0.000 A 
ATOM     10  C   UNL     1       0.401   2.857  19.663  0.00  0.00    +0.000 A 
ATOM     11  C   UNL     1       1.070   1.718  19.243  0.00  0.00    +0.000 A 
ATOM     12  C   UNL     1       2.254   1.849  18.527  0.00  0.00    +0.000 A 
ATOM     13  C   UNL     1       2.805   3.111  18.272  0.00  0.00    +0.000 A 
ATOM     14  N   UNL     1       3.980   3.131  17.518  0.00  0.00    +0.000 NA
ATOM     15  C   UNL     1       4.542   4.263  17.235  0.00  0.00    +0.000 A 
ATOM     16  C   UNL     1       5.791   4.276  16.394  0.00  0.00    +0.000 A 
ATOM     17  O   UNL     1       6.229   3.237  15.920  0.00  0.00    +0.000 OA
ENDROOT
BRANCH   7  18
ATOM     18  C   UNL     1       2.323   6.821  19.051  0.00  0.00    +0.000 A 
ATOM     19  C   UNL     1       2.066   6.972  20.423  0.00  0.00    +0.000 A 
ATOM     20  C   UNL     1       1.528   8.150  20.936  0.00  0.00    +0.000 A 
ATOM     21  N   UNL     1       1.312   9.207  20.130  0.00  0.00    +0.000 N 
ATOM     22  C   UNL     1       0.742  10.451  20.672  0.00  0.00    +0.000 C 
ATOM     23  C   UNL     1       1.596   9.131  18.812  0.00  0.00    +0.000 A 
ATOM     24  C   UNL     1       2.056   7.940  18.252  0.00  0.00    +0.000 A 
ENDBRANCH   7  18
TORSDOF 1
ENDMDL
MODEL 4
REMARK VINA RESULT:      -6.4      8.085      9.829
REMARK  Name = 
REMARK  3 active torsions:
REMARK  status: ('A' for Active; 'I' for Inactive)
REMARK    1  A    between atoms: C_1  and  N_2
REMARK    2  A    between atoms: N_7  and  C_8
REMARK    3  A    between atoms: N_11  and  C_12
REMARK                            x       y       z     vdW  Elec       q    Type
REMARK                         _______ _______ _______ _____ _____    ______ ____
ROOT
ATOM      1  C   UNL     1      -6.235  13.380  23.645  0.00  0.00    +0.000 C 
ATOM      2  N   UNL     1      -5.310  13.132  22.552  0.00  0.00    +0.000 N 
ATOM      3  C   UNL     1      -3.968  13.398  22.728  0.00  0.00    +0.000 A 
ATOM      4  O   UNL     1      -3.531  13.832  23.791  0.00  0.00    +0.000 OA
ATOM      5  N   UNL     1      -3.081  13.154  21.720  0.00  0.00    +0.000 NA
ATOM      6  C   UNL     1      -3.376  12.623  20.575  0.00  0.00    +0.000 A 
ATOM      7  N   UNL     1      -2.413  12.331  19.573  0.00  0.00    +0.000 N 
ATOM      8  C   UNL     1      -2.916  11.787  18.331  0.00  0.00    +0.000 A 
ATOM      9  C   UNL     1      -2.084  11.364  17.276  0.00  0.00    +0.000 A 
ATOM     10  C   UNL     1      -2.609  10.925  16.053  0.00  0.00    +0.000 A 
ATOM     11  C   UNL     1      -3.981  10.828  15.884  0.00  0.00    +0.000 A 
ATOM     12  C   UNL     1      -4.823  11.155  16.940  0.00  0.00    +0.000 A 
ATOM     13  C   UNL     1      -4.306  11.633  18.151  0.00  0.00    +0.000 A 
ATOM     14  N   UNL     1      -5.236  11.904  19.157  0.00  0.00    +0.000 NA
ATOM     15  C   UNL     1      -4.830  12.340  20.306  0.00  0.00    +0.000 A 
ATOM     16  C   UNL     1      -5.839  12.598  21.394  0.00  0.00    +0.000 A 
ATOM     17  O   UNL     1      -7.019  12.328  21.221  0.00  0.00    +0.000 OA
ENDROOT
BRANCH   7  18
ATOM     18  C   UNL     1      -1.035  12.688  19.822  0.00  0.00    +0.000 A 
ATOM     19  C   UNL     1      -0.141  11.797  20.439  0.00  0.00    +0.000 A 
ATOM     20  C   UNL     1       1.157  12.182  20.765  0.00  0.00    +0.000 A 
ATOM     21  N   UNL     1       1.613  13.402  20.423  0.00  0.00    +0.000 N 
ATOM     22  C   UNL     1       2.985  13.808  20.769  0.00  0.00    +0.000 C 
ATOM     23  C   UNL     1       0.810  14.275  19.778  0.00  0.00    +0.000 A 
ATOM     24  C   UNL     1      -0.520  13.954  19.511  0.00  0.00    +0.000 A 
ENDBRANCH   7  18
TORSDOF 1
ENDMDL
MODEL 5
REMARK VINA RESULT:      -6.3      5.959     10.997
REMARK  Name = 
REMARK  3 active torsions:
REMARK  status: ('A' for Active; 'I' for Inactive)
REMARK    1  A    between atoms: C_1  and  N_2
REMARK    2  A    between atoms: N_7  and  C_8
REMARK    3  A    between atoms: N_11  and  C_12
REMARK                            x       y       z     vdW  Elec       q    Type
REMARK                         _______ _______ _______ _____ _____    ______ ____
ROOT
ATOM      1  C   UNL     1       0.922   9.867  18.205  0.00  0.00    +0.000 C 
ATOM      2  N   UNL     1      -0.263  10.517  18.735  0.00  0.00    +0.000 N 
ATOM      3  C   UNL     1      -0.176  11.226  19.916  0.00  0.00    +0.000 A 
ATOM      4  O   UNL     1       0.884  11.329  20.527  0.00  0.00    +0.000 OA
ATOM      5  N   UNL     1      -1.275  11.859  20.420  0.00  0.00    +0.000 NA
ATOM      6  C   UNL     1      -2.438  11.910  19.849  0.00  0.00    +0.000 A 
ATOM      7  N   UNL     1      -3.541  12.630  20.379  0.00  0.00    +0.000 N 
ATOM      8  C   UNL     1      -4.784  12.541  19.644  0.00  0.00    +0.000 A 
ATOM      9  C   UNL     1      -5.942  13.266  19.989  0.00  0.00    +0.000 A 
ATOM     10  C   UNL     1      -7.153  13.087  19.308  0.00  0.00    +0.000 A 
ATOM     11  C   UNL     1      -7.215  12.235  18.217  0.00  0.00    +0.000 A 
ATOM     12  C   UNL     1      -6.064  11.575  17.802  0.00  0.00    +0.000 A 
ATOM     13  C   UNL     1      -4.860  11.718  18.502  0.00  0.00    +0.000 A 
ATOM     14  N   UNL     1      -3.757  11.036  17.984  0.00  0.00    +0.000 NA
ATOM     15  C   UNL     1      -2.609  11.129  18.574  0.00  0.00    +0.000 A 
ATOM     16  C   UNL     1      -1.420  10.415  17.988  0.00  0.00    +0.000 A 
ATOM     17  O   UNL     1      -1.518   9.816  16.926  0.00  0.00    +0.000 OA
ENDROOT
BRANCH   7  18
ATOM     18  C   UNL     1      -3.376  13.305  21.647  0.00  0.00    +0.000 A 
ATOM     19  C   UNL     1      -2.920  14.631  21.723  0.00  0.00    +0.000 A 
ATOM     20  C   UNL     1      -2.669  15.242  22.949  0.00  0.00    +0.000 A 
ATOM     21  N   UNL     1      -2.933  14.594  24.100  0.00  0.00    +0.000 N 
ATOM     22  C   UNL     1      -2.666  15.241  25.395  0.00  0.00    +0.000 C 
ATOM     23  C   UNL     1      -3.425  13.338  24.079  0.00  0.00    +0.000 A 
ATOM     24  C   UNL     1      -3.609  12.666  22.871  0.00  0.00    +0.000 A 
ENDBRANCH   7  18
TORSDOF 1
ENDMDL
MODEL 6
REMARK VINA RESULT:      -6.3      2.892      5.799
REMARK  Name = 
REMARK  3 active torsions:
REMARK  status: ('A' for Active; 'I' for Inactive)
REMARK    1  A    between atoms: C_1  and  N_2
REMARK    2  A    between atoms: N_7  and  C_8
REMARK    3  A    between atoms: N_11  and  C_12
REMARK                            x       y       z     vdW  Elec       q    Type
REMARK                         _______ _______ _______ _____ _____    ______ ____
ROOT
ATOM      1  C   UNL     1       1.581   3.500  19.596  0.00  0.00    +0.000 C 
ATOM      2  N   UNL     1       2.689   4.026  18.819  0.00  0.00    +0.000 N 
ATOM      3  C   UNL     1       3.491   5.009  19.363  0.00  0.00    +0.000 A 
ATOM      4  O   UNL     1       3.296   5.445  20.494  0.00  0.00    +0.000 OA
ATOM      5  N   UNL     1       4.549   5.502  18.656  0.00  0.00    +0.000 NA
ATOM      6  C   UNL     1       4.929   5.086  17.488  0.00  0.00    +0.000 A 
ATOM      7  N   UNL     1       6.072   5.586  16.810  0.00  0.00    +0.000 N 
ATOM      8  C   UNL     1       6.328   5.050  15.492  0.00  0.00    +0.000 A 
ATOM      9  C   UNL     1       7.466   5.377  14.729  0.00  0.00    +0.000 A 
ATOM     10  C   UNL     1       7.636   4.908  13.420  0.00  0.00    +0.000 A 
ATOM     11  C   UNL     1       6.707   4.039  12.869  0.00  0.00    +0.000 A 
ATOM     12  C   UNL     1       5.620   3.631  13.633  0.00  0.00    +0.000 A 
ATOM     13  C   UNL     1       5.423   4.128  14.928  0.00  0.00    +0.000 A 
ATOM     14  N   UNL     1       4.316   3.630  15.620  0.00  0.00    +0.000 NA
ATOM     15  C   UNL     1       4.077   4.037  16.825  0.00  0.00    +0.000 A 
ATOM     16  C   UNL     1       2.899   3.470  17.573  0.00  0.00    +0.000 A 
ATOM     17  O   UNL     1       2.222   2.580  17.079  0.00  0.00    +0.000 OA
ENDROOT
BRANCH   7  18
ATOM     18  C   UNL     1       6.827   6.650  17.432  0.00  0.00    +0.000 A 
ATOM     19  C   UNL     1       6.669   7.991  17.044  0.00  0.00    +0.000 A 
ATOM     20  C   UNL     1       7.468   9.000  17.577  0.00  0.00    +0.000 A 
ATOM     21  N   UNL     1       8.366   8.719  18.541  0.00  0.00    +0.000 N 
ATOM     22  C   UNL     1       9.212   9.786  19.102  0.00  0.00    +0.000 C 
ATOM     23  C   UNL     1       8.517   7.454  18.987  0.00  0.00    +0.000 A 
ATOM     24  C   UNL     1       7.793   6.408  18.417  0.00  0.00    +0.000 A 
ENDBRANCH   7  18
TORSDOF 1
ENDMDL
MODEL 7
REMARK VINA RESULT:      -6.3      2.325      4.829
REMARK  Name = 
REMARK  3 active torsions:
REMARK  status: ('A' for Active; 'I' for Inactive)
REMARK    1  A    between atoms: C_1  and  N_2
REMARK    2  A    between atoms: N_7  and  C_8
REMARK    3  A    between atoms: N_11  and  C_12
REMARK                            x       y       z     vdW  Elec       q    Type
REMARK                         _______ _______ _______ _____ _____    ______ ____
ROOT
ATOM      1  C   UNL     1       3.301   1.294  21.915  0.00  0.00    +0.000 C 
ATOM      2  N   UNL     1       3.437   2.423  21.011  0.00  0.00    +0.000 N 
ATOM      3  C   UNL     1       4.292   2.328  19.933  0.00  0.00    +0.000 A 
ATOM      4  O   UNL     1       4.937   1.307  19.710  0.00  0.00    +0.000 OA
ATOM      5  N   UNL     1       4.419   3.372  19.062  0.00  0.00    +0.000 NA
ATOM      6  C   UNL     1       3.747   4.479  19.117  0.00  0.00    +0.000 A 
ATOM      7  N   UNL     1       3.866   5.519  18.157  0.00  0.00    +0.000 N 
ATOM      8  C   UNL     1       3.082   6.711  18.394  0.00  0.00    +0.000 A 
ATOM      9  C   UNL     1       3.022   7.792  17.491  0.00  0.00    +0.000 A 
ATOM     10  C   UNL     1       2.324   8.967  17.795  0.00  0.00    +0.000 A 
ATOM     11  C   UNL     1       1.605   9.060  18.976  0.00  0.00    +0.000 A 
ATOM     12  C   UNL     1       1.576   7.974  19.844  0.00  0.00    +0.000 A 
ATOM     13  C   UNL     1       2.305   6.811  19.565  0.00  0.00    +0.000 A 
ATOM     14  N   UNL     1       2.182   5.769  20.487  0.00  0.00    +0.000 NA
ATOM     15  C   UNL     1       2.821   4.660  20.290  0.00  0.00    +0.000 A 
ATOM     16  C   UNL     1       2.656   3.531  21.273  0.00  0.00    +0.000 A 
ATOM     17  O   UNL     1       1.870   3.631  22.205  0.00  0.00    +0.000 OA
ENDROOT
BRANCH   7  18
ATOM     18  C   UNL     1       4.823   5.356  17.086  0.00  0.00    +0.000 A 
ATOM     19  C   UNL     1       6.083   5.976  17.121  0.00  0.00    +0.000 A 
ATOM     20  C   UNL     1       6.961   5.896  16.043  0.00  0.00    +0.000 A 
ATOM     21  N   UNL     1       6.649   5.152  14.964  0.00  0.00    +0.000 N 
ATOM     22  C   UNL     1       7.578   5.069  13.825  0.00  0.00    +0.000 C 
ATOM     23  C   UNL     1       5.474   4.492  14.906  0.00  0.00    +0.000 A 
ATOM     24  C   UNL     1       4.536   4.618  15.930  0.00  0.00    +0.000 A 
ENDBRANCH   7  18
TORSDOF 1
ENDMDL
MODEL 8
REMARK VINA RESULT:      -6.3      2.548      6.130
REMARK  Name = 
REMARK  3 active torsions:
REMARK  status: ('A' for Active; 'I' for Inactive)
REMARK    1  A    between atoms: C_1  and  N_2
REMARK    2  A    between atoms: N_7  and  C_8
REMARK    3  A    between atoms: N_11  and  C_12
REMARK                            x       y       z     vdW  Elec       q    Type
REMARK                         _______ _______ _______ _____ _____    ______ ____
ROOT
ATOM      1  C   UNL     1       1.184   1.011  19.225  0.00  0.00    +0.000 C 
ATOM      2  N   UNL     1       1.821   2.287  18.949  0.00  0.00    +0.000 N 
ATOM      3  C   UNL     1       1.146   3.456  19.234  0.00  0.00    +0.000 A 
ATOM      4  O   UNL     1       0.021   3.446  19.725  0.00  0.00    +0.000 OA
ATOM      5  N   UNL     1       1.736   4.665  18.998  0.00  0.00    +0.000 NA
ATOM      6  C   UNL     1       2.944   4.836  18.561  0.00  0.00    +0.000 A 
ATOM      7  N   UNL     1       3.541   6.112  18.384  0.00  0.00    +0.000 N 
ATOM      8  C   UNL     1       4.880   6.130  17.838  0.00  0.00    +0.000 A 
ATOM      9  C   UNL     1       5.641   7.306  17.686  0.00  0.00    +0.000 A 
ATOM     10  C   UNL     1       6.899   7.296  17.072  0.00  0.00    +0.000 A 
ATOM     11  C   UNL     1       7.461   6.097  16.663  0.00  0.00    +0.000 A 
ATOM     12  C   UNL     1       6.769   4.911  16.881  0.00  0.00    +0.000 A 
ATOM     13  C   UNL     1       5.493   4.919  17.459  0.00  0.00    +0.000 A 
ATOM     14  N   UNL     1       4.898   3.671  17.661  0.00  0.00    +0.000 NA
ATOM     15  C   UNL     1       3.723   3.600  18.199  0.00  0.00    +0.000 A 
ATOM     16  C   UNL     1       3.105   2.248  18.442  0.00  0.00    +0.000 A 
ATOM     17  O   UNL     1       3.736   1.227  18.206  0.00  0.00    +0.000 OA
ENDROOT
BRANCH   7  18
ATOM     18  C   UNL     1       2.745   7.287  18.661  0.00  0.00    +0.000 A 
ATOM     19  C   UNL     1       2.236   7.548  19.944  0.00  0.00    +0.000 A 
ATOM     20  C   UNL     1       1.389   8.628  20.182  0.00  0.00    +0.000 A 
ATOM     21  N   UNL     1       1.097   9.496  19.194  0.00  0.00    +0.000 N 
ATOM     22  C   UNL     1       0.200  10.635  19.447  0.00  0.00    +0.000 C 
ATOM     23  C   UNL     1       1.607   9.319  17.957  0.00  0.00    +0.000 A 
ATOM     24  C   UNL     1       2.390   8.204  17.663  0.00  0.00    +0.000 A 
ENDBRANCH   7  18
TORSDOF 1
ENDMDL
MODEL 9
REMARK VINA RESULT:      -6.2      8.060      9.608
REMARK  Name = 
REMARK  3 active torsions:
REMARK  status: ('A' for Active; 'I' for Inactive)
REMARK    1  A    between atoms: C_1  and  N_2
REMARK    2  A    between atoms: N_7  and  C_8
REMARK    3  A    between atoms: N_11  and  C_12
REMARK                            x       y       z     vdW  Elec       q    Type
REMARK                         _______ _______ _______ _____ _____    ______ ____
ROOT
ATOM      1  C   UNL     1      -5.351  13.418  23.960  0.00  0.00    +0.000 C 
ATOM      2  N   UNL     1      -4.574  13.195  22.753  0.00  0.00    +0.000 N 
ATOM      3  C   UNL     1      -3.240  13.550  22.731  0.00  0.00    +0.000 A 
ATOM      4  O   UNL     1      -2.689  14.043  23.712  0.00  0.00    +0.000 OA
ATOM      5  N   UNL     1      -2.489  13.331  21.613  0.00  0.00    +0.000 NA
ATOM      6  C   UNL     1      -2.906  12.748  20.533  0.00  0.00    +0.000 A 
ATOM      7  N   UNL     1      -2.076  12.486  19.411  0.00  0.00    +0.000 N 
ATOM      8  C   UNL     1      -2.710  11.874  18.265  0.00  0.00    +0.000 A 
ATOM      9  C   UNL     1      -2.008  11.471  17.112  0.00  0.00    +0.000 A 
ATOM     10  C   UNL     1      -2.668  10.963  15.986  0.00  0.00    +0.000 A 
ATOM     11  C   UNL     1      -4.041  10.774  16.015  0.00  0.00    +0.000 A 
ATOM     12  C   UNL     1      -4.747  11.081  17.172  0.00  0.00    +0.000 A 
ATOM     13  C   UNL     1      -4.098  11.627  18.287  0.00  0.00    +0.000 A 
ATOM     14  N   UNL     1      -4.894  11.870  19.409  0.00  0.00    +0.000 NA
ATOM     15  C   UNL     1      -4.361  12.366  20.479  0.00  0.00    +0.000 A 
ATOM     16  C   UNL     1      -5.223  12.593  21.693  0.00  0.00    +0.000 A 
ATOM     17  O   UNL     1      -6.395  12.245  21.695  0.00  0.00    +0.000 OA
ENDROOT
BRANCH   7  18
ATOM     18  C   UNL     1      -0.703  12.936  19.454  0.00  0.00    +0.000 A 
ATOM     19  C   UNL     1      -0.319  14.187  18.943  0.00  0.00    +0.000 A 
ATOM     20  C   UNL     1       1.018  14.574  18.898  0.00  0.00    +0.000 A 
ATOM     21  N   UNL     1       1.974  13.781  19.420  0.00  0.00    +0.000 N 
ATOM     22  C   UNL     1       3.387  14.191  19.371  0.00  0.00    +0.000 C 
ATOM     23  C   UNL     1       1.650  12.594  19.974  0.00  0.00    +0.000 A 
ATOM     24  C   UNL     1       0.332  12.139  19.960  0.00  0.00    +0.000 A 
ENDBRANCH   7  18
TORSDOF 1
ENDMDL
