MODEL 1
REMARK VINA RESULT:      -8.1      0.000      0.000
REMARK  Name = 
REMARK  8 active torsions:
REMARK  status: ('A' for Active; 'I' for Inactive)
REMARK    1  A    between atoms: C_2  and  C_15
REMARK    2  A    between atoms: N_3  and  C_4
REMARK    3  A    between atoms: C_6  and  C_7
REMARK    4  A    between atoms: C_7  and  O_8
REMARK    5  A    between atoms: C_9  and  O_10
REMARK    6  A    between atoms: C_11  and  O_12
REMARK    7  A    between atoms: C_13  and  O_14
REMARK    8  A    between atoms: C_18  and  C_19
REMARK                            x       y       z     vdW  Elec       q    Type
REMARK                         _______ _______ _______ _____ _____    ______ ____
ROOT
ATOM      1  O   UNL     1       2.809   7.804  16.893  0.00  0.00    +0.000 OA
ATOM      2  C   UNL     1       2.434   7.997  18.049  0.00  0.00    +0.000 C 
ATOM      3  N   UNL     1       2.482   6.991  18.997  0.00  0.00    +0.000 N 
ATOM      4  H   UNL     1       1.980   7.117  19.869  0.00  0.00    +0.000 HD
ENDROOT
BRANCH   3   5
ATOM      5  C   UNL     1       3.030   5.688  18.702  0.00  0.00    +0.000 C 
ATOM      6  O   UNL     1       2.452   4.829  19.682  0.00  0.00    +0.000 OA
ATOM      7  C   UNL     1       2.855   3.455  19.570  0.00  0.00    +0.000 C 
ATOM      8  C   UNL     1       4.381   3.327  19.723  0.00  0.00    +0.000 C 
ATOM      9  C   UNL     1       5.077   4.200  18.672  0.00  0.00    +0.000 C 
ATOM     10  C   UNL     1       4.583   5.655  18.762  0.00  0.00    +0.000 C 
BRANCH   8  11
ATOM     11  O   UNL     1       4.800   1.962  19.623  0.00  0.00    +0.000 OA
ATOM     12  H   UNL     1       4.215   1.412  20.179  0.00  0.00    +0.000 HD
ENDBRANCH   8  11
BRANCH   9  13
ATOM     13  O   UNL     1       6.500   4.132  18.824  0.00  0.00    +0.000 OA
ATOM     14  H   UNL     1       6.904   4.012  17.946  0.00  0.00    +0.000 HD
ENDBRANCH   9  13
BRANCH  10  15
ATOM     15  O   UNL     1       5.186   6.443  17.731  0.00  0.00    +0.000 OA
ATOM     16  H   UNL     1       4.882   7.365  17.814  0.00  0.00    +0.000 HD
ENDBRANCH  10  15
BRANCH   7  17
ATOM     17  C   UNL     1       2.119   2.651  20.654  0.00  0.00    +0.000 C 
BRANCH  17  18
ATOM     18  O   UNL     1       2.809   2.627  21.898  0.00  0.00    +0.000 OA
ATOM     19  H   UNL     1       3.386   3.420  21.927  0.00  0.00    +0.000 HD
ENDBRANCH  17  18
ENDBRANCH   7  17
ENDBRANCH   3   5
BRANCH   2  20
ATOM     20  C   UNL     1       1.858   9.250  18.509  0.00  0.00    +0.000 A 
ATOM     21  N   UNL     1       2.148  10.464  18.081  0.00  0.00    +0.000 NA
ATOM     22  N   UNL     1       1.374  11.333  18.830  0.00  0.00    +0.000 NA
ATOM     23  C   UNL     1       0.672  10.591  19.667  0.00  0.00    +0.000 A 
ATOM     24  O   UNL     1       0.922   9.252  19.515  0.00  0.00    +0.000 OA
BRANCH  23  25
ATOM     25  C   UNL     1      -0.306  10.980  20.681  0.00  0.00    +0.000 A 
ATOM     26  C   UNL     1      -0.195  10.491  21.988  0.00  0.00    +0.000 A 
ATOM     27  C   UNL     1      -1.080  10.908  22.988  0.00  0.00    +0.000 A 
ATOM     28  C   UNL     1      -2.099  11.828  22.704  0.00  0.00    +0.000 A 
ATOM     29  C   UNL     1      -2.963  12.296  23.707  0.00  0.00    +0.000 A 
ATOM     30  C   UNL     1      -3.972  13.217  23.411  0.00  0.00    +0.000 A 
ATOM     31  C   UNL     1      -4.132  13.672  22.096  0.00  0.00    +0.000 A 
ATOM     32  C   UNL     1      -3.280  13.209  21.096  0.00  0.00    +0.000 A 
ATOM     33  C   UNL     1      -2.252  12.300  21.382  0.00  0.00    +0.000 A 
ATOM     34  C   UNL     1      -1.356  11.865  20.388  0.00  0.00    +0.000 A 
ENDBRANCH  23  25
ENDBRANCH   2  20
TORSDOF 8
ENDMDL
MODEL 2
REMARK VINA RESULT:      -8.0      5.917      8.516
REMARK  Name = 
REMARK  8 active torsions:
REMARK  status: ('A' for Active; 'I' for Inactive)
REMARK    1  A    between atoms: C_2  and  C_15
REMARK    2  A    between atoms: N_3  and  C_4
REMARK    3  A    between atoms: C_6  and  C_7
REMARK    4  A    between atoms: C_7  and  O_8
REMARK    5  A    between atoms: C_9  and  O_10
REMARK    6  A    between atoms: C_11  and  O_12
REMARK    7  A    between atoms: C_13  and  O_14
REMARK    8  A    between atoms: C_18  and  C_19
REMARK                            x       y       z     vdW  Elec       q    Type
REMARK                         _______ _______ _______ _____ _____    ______ ____
ROOT
ATOM      1  O   UNL     1       5.875   6.571  16.167  0.00  0.00    +0.000 OA
ATOM      2  C   UNL     1       6.199   6.640  17.353  0.00  0.00    +0.000 C 
ATOM      3  N   UNL     1       5.515   5.934  18.326  0.00  0.00    +0.000 N 
ATOM      4  H   UNL     1       5.671   6.169  19.300  0.00  0.00    +0.000 HD
ENDROOT
BRANCH   3   5
ATOM      5  C   UNL     1       4.434   5.035  18.001  0.00  0.00    +0.000 C 
ATOM      6  O   UNL     1       3.552   5.120  19.118  0.00  0.00    +0.000 OA
ATOM      7  C   UNL     1       2.378   4.301  19.004  0.00  0.00    +0.000 C 
ATOM      8  C   UNL     1       2.766   2.819  18.866  0.00  0.00    +0.000 C 
ATOM      9  C   UNL     1       3.690   2.640  17.656  0.00  0.00    +0.000 C 
ATOM     10  C   UNL     1       4.909   3.574  17.763  0.00  0.00    +0.000 C 
BRANCH   8  11
ATOM     11  O   UNL     1       1.606   1.986  18.761  0.00  0.00    +0.000 OA
ATOM     12  H   UNL     1       1.861   1.144  18.340  0.00  0.00    +0.000 HD
ENDBRANCH   8  11
BRANCH   9  13
ATOM     13  O   UNL     1       4.101   1.273  17.534  0.00  0.00    +0.000 OA
ATOM     14  H   UNL     1       4.141   1.040  16.589  0.00  0.00    +0.000 HD
ENDBRANCH   9  13
BRANCH  10  15
ATOM     15  O   UNL     1       5.726   3.449  16.594  0.00  0.00    +0.000 OA
ATOM     16  H   UNL     1       6.277   2.650  16.674  0.00  0.00    +0.000 HD
ENDBRANCH  10  15
BRANCH   7  17
ATOM     17  C   UNL     1       1.509   4.535  20.251  0.00  0.00    +0.000 C 
BRANCH  17  18
ATOM     18  O   UNL     1       0.319   3.757  20.256  0.00  0.00    +0.000 OA
ATOM     19  H   UNL     1      -0.254   4.094  19.535  0.00  0.00    +0.000 HD
ENDBRANCH  17  18
ENDBRANCH   7  17
ENDBRANCH   3   5
BRANCH   2  20
ATOM     20  C   UNL     1       7.265   7.496  17.847  0.00  0.00    +0.000 A 
ATOM     21  N   UNL     1       8.226   7.166  18.688  0.00  0.00    +0.000 NA
ATOM     22  N   UNL     1       8.979   8.311  18.882  0.00  0.00    +0.000 NA
ATOM     23  C   UNL     1       8.422   9.261  18.153  0.00  0.00    +0.000 A 
ATOM     24  O   UNL     1       7.328   8.812  17.459  0.00  0.00    +0.000 OA
BRANCH  23  25
ATOM     25  C   UNL     1       8.801  10.661  17.978  0.00  0.00    +0.000 A 
ATOM     26  C   UNL     1       7.859  11.591  17.524  0.00  0.00    +0.000 A 
ATOM     27  C   UNL     1       8.184  12.948  17.417  0.00  0.00    +0.000 A 
ATOM     28  C   UNL     1       9.462  13.408  17.765  0.00  0.00    +0.000 A 
ATOM     29  C   UNL     1       9.789  14.773  17.713  0.00  0.00    +0.000 A 
ATOM     30  C   UNL     1      11.065  15.217  18.068  0.00  0.00    +0.000 A 
ATOM     31  C   UNL     1      12.036  14.291  18.469  0.00  0.00    +0.000 A 
ATOM     32  C   UNL     1      11.720  12.935  18.519  0.00  0.00    +0.000 A 
ATOM     33  C   UNL     1      10.437  12.477  18.185  0.00  0.00    +0.000 A 
ATOM     34  C   UNL     1      10.094  11.116  18.281  0.00  0.00    +0.000 A 
ENDBRANCH  23  25
ENDBRANCH   2  20
TORSDOF 8
ENDMDL
MODEL 3
REMARK VINA RESULT:      -7.9      6.242      9.243
REMARK  Name = 
REMARK  8 active torsions:
REMARK  status: ('A' for Active; 'I' for Inactive)
REMARK    1  A    between atoms: C_2  and  C_15
REMARK    2  A    between atoms: N_3  and  C_4
REMARK    3  A    between atoms: C_6  and  C_7
REMARK    4  A    between atoms: C_7  and  O_8
REMARK    5  A    between atoms: C_9  and  O_10
REMARK    6  A    between atoms: C_11  and  O_12
REMARK    7  A    between atoms: C_13  and  O_14
REMARK    8  A    between atoms: C_18  and  C_19
REMARK                            x       y       z     vdW  Elec       q    Type
REMARK                         _______ _______ _______ _____ _____    ______ ____
ROOT
ATOM      1  O   UNL     1       7.702  10.373  17.586  0.00  0.00    +0.000 OA
ATOM      2  C   UNL     1       8.073   9.280  18.015  0.00  0.00    +0.000 C 
ATOM      3  N   UNL     1       9.087   9.182  18.951  0.00  0.00    +0.000 N 
ATOM      4  H   UNL     1       9.505   8.275  19.125  0.00  0.00    +0.000 HD
ENDROOT
BRANCH   3   5
ATOM      5  C   UNL     1       9.719  10.349  19.519  0.00  0.00    +0.000 C 
ATOM      6  O   UNL     1       8.903  10.685  20.639  0.00  0.00    +0.000 OA
ATOM      7  C   UNL     1       9.359  11.831  21.375  0.00  0.00    +0.000 C 
ATOM      8  C   UNL     1       9.392  13.074  20.470  0.00  0.00    +0.000 C 
ATOM      9  C   UNL     1      10.285  12.802  19.254  0.00  0.00    +0.000 C 
ATOM     10  C   UNL     1       9.823  11.532  18.516  0.00  0.00    +0.000 C 
BRANCH   8  11
ATOM     11  O   UNL     1       9.835  14.230  21.191  0.00  0.00    +0.000 OA
ATOM     12  H   UNL     1       9.136  14.496  21.818  0.00  0.00    +0.000 HD
ENDBRANCH   8  11
BRANCH   9  13
ATOM     13  O   UNL     1      10.295  13.931  18.373  0.00  0.00    +0.000 OA
ATOM     14  H   UNL     1      10.051  14.727  18.879  0.00  0.00    +0.000 HD
ENDBRANCH   9  13
BRANCH  10  15
ATOM     15  O   UNL     1      10.707  11.249  17.427  0.00  0.00    +0.000 OA
ATOM     16  H   UNL     1      10.846  12.062  16.908  0.00  0.00    +0.000 HD
ENDBRANCH  10  15
BRANCH   7  17
ATOM     17  C   UNL     1       8.413  12.038  22.570  0.00  0.00    +0.000 C 
BRANCH  17  18
ATOM     18  O   UNL     1       8.443  10.962  23.499  0.00  0.00    +0.000 OA
ATOM     19  H   UNL     1       7.610  10.456  23.387  0.00  0.00    +0.000 HD
ENDBRANCH  17  18
ENDBRANCH   7  17
ENDBRANCH   3   5
BRANCH   2  20
ATOM     20  C   UNL     1       7.541   8.010  17.548  0.00  0.00    +0.000 A 
ATOM     21  N   UNL     1       8.074   7.206  16.649  0.00  0.00    +0.000 NA
ATOM     22  N   UNL     1       7.198   6.143  16.513  0.00  0.00    +0.000 NA
ATOM     23  C   UNL     1       6.187   6.376  17.332  0.00  0.00    +0.000 A 
ATOM     24  O   UNL     1       6.342   7.546  18.031  0.00  0.00    +0.000 OA
BRANCH  23  25
ATOM     25  C   UNL     1       4.987   5.588  17.598  0.00  0.00    +0.000 A 
ATOM     26  C   UNL     1       4.623   4.550  16.731  0.00  0.00    +0.000 A 
ATOM     27  C   UNL     1       3.516   3.740  17.008  0.00  0.00    +0.000 A 
ATOM     28  C   UNL     1       2.746   3.948  18.161  0.00  0.00    +0.000 A 
ATOM     29  C   UNL     1       1.664   3.111  18.480  0.00  0.00    +0.000 A 
ATOM     30  C   UNL     1       0.908   3.327  19.635  0.00  0.00    +0.000 A 
ATOM     31  C   UNL     1       1.225   4.397  20.481  0.00  0.00    +0.000 A 
ATOM     32  C   UNL     1       2.295   5.233  20.170  0.00  0.00    +0.000 A 
ATOM     33  C   UNL     1       3.074   5.016  19.024  0.00  0.00    +0.000 A 
ATOM     34  C   UNL     1       4.187   5.825  18.727  0.00  0.00    +0.000 A 
ENDBRANCH  23  25
ENDBRANCH   2  20
TORSDOF 8
ENDMDL
MODEL 4
REMARK VINA RESULT:      -7.8      3.078      9.397
REMARK  Name = 
REMARK  8 active torsions:
REMARK  status: ('A' for Active; 'I' for Inactive)
REMARK    1  A    between atoms: C_2  and  C_15
REMARK    2  A    between atoms: N_3  and  C_4
REMARK    3  A    between atoms: C_6  and  C_7
REMARK    4  A    between atoms: C_7  and  O_8
REMARK    5  A    between atoms: C_9  and  O_10
REMARK    6  A    between atoms: C_11  and  O_12
REMARK    7  A    between atoms: C_13  and  O_14
REMARK    8  A    between atoms: C_18  and  C_19
REMARK                            x       y       z     vdW  Elec       q    Type
REMARK                         _______ _______ _______ _____ _____    ______ ____
ROOT
ATOM      1  O   UNL     1       0.668  12.479  18.389  0.00  0.00    +0.000 OA
ATOM      2  C   UNL     1       0.495  11.343  18.833  0.00  0.00    +0.000 C 
ATOM      3  N   UNL     1      -0.509  11.074  19.745  0.00  0.00    +0.000 N 
ATOM      4  H   UNL     1      -0.494  10.190  20.241  0.00  0.00    +0.000 HD
ENDROOT
BRANCH   3   5
ATOM      5  C   UNL     1      -1.444  12.086  20.174  0.00  0.00    +0.000 C 
ATOM      6  O   UNL     1      -1.669  11.802  21.552  0.00  0.00    +0.000 OA
ATOM      7  C   UNL     1      -2.576  12.709  22.199  0.00  0.00    +0.000 C 
ATOM      8  C   UNL     1      -3.953  12.672  21.515  0.00  0.00    +0.000 C 
ATOM      9  C   UNL     1      -3.798  13.007  20.027  0.00  0.00    +0.000 C 
ATOM     10  C   UNL     1      -2.772  12.069  19.365  0.00  0.00    +0.000 C 
BRANCH   8  11
ATOM     11  O   UNL     1      -4.874  13.564  22.154  0.00  0.00    +0.000 OA
ATOM     12  H   UNL     1      -4.491  13.856  23.003  0.00  0.00    +0.000 HD
ENDBRANCH   8  11
BRANCH   9  13
ATOM     13  O   UNL     1      -5.063  12.935  19.359  0.00  0.00    +0.000 OA
ATOM     14  H   UNL     1      -5.230  12.010  19.101  0.00  0.00    +0.000 HD
ENDBRANCH   9  13
BRANCH  10  15
ATOM     15  O   UNL     1      -2.583  12.437  17.995  0.00  0.00    +0.000 OA
ATOM     16  H   UNL     1      -3.436  12.380  17.528  0.00  0.00    +0.000 HD
ENDBRANCH  10  15
BRANCH   7  17
ATOM     17  C   UNL     1      -2.680  12.307  23.680  0.00  0.00    +0.000 C 
BRANCH  17  18
ATOM     18  O   UNL     1      -3.977  11.853  24.046  0.00  0.00    +0.000 OA
ATOM     19  H   UNL     1      -4.566  11.998  23.275  0.00  0.00    +0.000 HD
ENDBRANCH  17  18
ENDBRANCH   7  17
ENDBRANCH   3   5
BRANCH   2  20
ATOM     20  C   UNL     1       1.347  10.212  18.502  0.00  0.00    +0.000 A 
ATOM     21  N   UNL     1       2.335  10.189  17.628  0.00  0.00    +0.000 NA
ATOM     22  N   UNL     1       2.828   8.896  17.636  0.00  0.00    +0.000 NA
ATOM     23  C   UNL     1       2.102   8.218  18.508  0.00  0.00    +0.000 A 
ATOM     24  O   UNL     1       1.144   8.995  19.105  0.00  0.00    +0.000 OA
BRANCH  23  25
ATOM     25  C   UNL     1       2.185   6.819  18.920  0.00  0.00    +0.000 A 
ATOM     26  C   UNL     1       1.991   6.470  20.262  0.00  0.00    +0.000 A 
ATOM     27  C   UNL     1       1.997   5.129  20.662  0.00  0.00    +0.000 A 
ATOM     28  C   UNL     1       2.197   4.103  19.727  0.00  0.00    +0.000 A 
ATOM     29  C   UNL     1       2.154   2.751  20.103  0.00  0.00    +0.000 A 
ATOM     30  C   UNL     1       2.350   1.739  19.160  0.00  0.00    +0.000 A 
ATOM     31  C   UNL     1       2.604   2.075  17.825  0.00  0.00    +0.000 A 
ATOM     32  C   UNL     1       2.650   3.414  17.445  0.00  0.00    +0.000 A 
ATOM     33  C   UNL     1       2.436   4.440  18.377  0.00  0.00    +0.000 A 
ATOM     34  C   UNL     1       2.432   5.794  17.993  0.00  0.00    +0.000 A 
ENDBRANCH  23  25
ENDBRANCH   2  20
TORSDOF 8
ENDMDL
MODEL 5
REMARK VINA RESULT:      -7.8      1.765      2.214
REMARK  Name = 
REMARK  8 active torsions:
REMARK  status: ('A' for Active; 'I' for Inactive)
REMARK    1  A    between atoms: C_2  and  C_15
REMARK    2  A    between atoms: N_3  and  C_4
REMARK    3  A    between atoms: C_6  and  C_7
REMARK    4  A    between atoms: C_7  and  O_8
REMARK    5  A    between atoms: C_9  and  O_10
REMARK    6  A    between atoms: C_11  and  O_12
REMARK    7  A    between atoms: C_13  and  O_14
REMARK    8  A    between atoms: C_18  and  C_19
REMARK                            x       y       z     vdW  Elec       q    Type
REMARK                         _______ _______ _______ _____ _____    ______ ____
ROOT
ATOM      1  O   UNL     1       2.025   8.152  18.596  0.00  0.00    +0.000 OA
ATOM      2  C   UNL     1       1.878   7.791  19.764  0.00  0.00    +0.000 C 
ATOM      3  N   UNL     1       2.142   6.490  20.152  0.00  0.00    +0.000 N 
ATOM      4  H   UNL     1       1.818   6.176  21.060  0.00  0.00    +0.000 HD
ENDROOT
BRANCH   3   5
ATOM      5  C   UNL     1       2.659   5.507  19.230  0.00  0.00    +0.000 C 
ATOM      6  O   UNL     1       1.803   4.379  19.393  0.00  0.00    +0.000 OA
ATOM      7  C   UNL     1       2.131   3.265  18.549  0.00  0.00    +0.000 C 
ATOM      8  C   UNL     1       3.560   2.774  18.837  0.00  0.00    +0.000 C 
ATOM      9  C   UNL     1       4.550   3.929  18.645  0.00  0.00    +0.000 C 
ATOM     10  C   UNL     1       4.144   5.139  19.506  0.00  0.00    +0.000 C 
BRANCH   8  11
ATOM     11  O   UNL     1       3.901   1.655  18.010  0.00  0.00    +0.000 OA
ATOM     12  H   UNL     1       3.727   1.888  17.079  0.00  0.00    +0.000 HD
ENDBRANCH   8  11
BRANCH   9  13
ATOM     13  O   UNL     1       5.884   3.506  18.951  0.00  0.00    +0.000 OA
ATOM     14  H   UNL     1       6.502   3.952  18.344  0.00  0.00    +0.000 HD
ENDBRANCH   9  13
BRANCH  10  15
ATOM     15  O   UNL     1       5.033   6.234  19.263  0.00  0.00    +0.000 OA
ATOM     16  H   UNL     1       4.654   7.044  19.647  0.00  0.00    +0.000 HD
ENDBRANCH  10  15
BRANCH   7  17
ATOM     17  C   UNL     1       1.100   2.153  18.803  0.00  0.00    +0.000 C 
BRANCH  17  18
ATOM     18  O   UNL     1      -0.039   2.602  19.526  0.00  0.00    +0.000 OA
ATOM     19  H   UNL     1      -0.791   2.638  18.897  0.00  0.00    +0.000 HD
ENDBRANCH  17  18
ENDBRANCH   7  17
ENDBRANCH   3   5
BRANCH   2  20
ATOM     20  C   UNL     1       1.367   8.656  20.815  0.00  0.00    +0.000 A 
ATOM     21  N   UNL     1       1.716   8.654  22.087  0.00  0.00    +0.000 NA
ATOM     22  N   UNL     1       0.944   9.626  22.701  0.00  0.00    +0.000 NA
ATOM     23  C   UNL     1       0.174  10.148  21.763  0.00  0.00    +0.000 A 
ATOM     24  O   UNL     1       0.395   9.584  20.533  0.00  0.00    +0.000 OA
BRANCH  23  25
ATOM     25  C   UNL     1      -0.826  11.209  21.846  0.00  0.00    +0.000 A 
ATOM     26  C   UNL     1      -0.970  12.122  20.794  0.00  0.00    +0.000 A 
ATOM     27  C   UNL     1      -1.970  13.101  20.825  0.00  0.00    +0.000 A 
ATOM     28  C   UNL     1      -2.853  13.188  21.911  0.00  0.00    +0.000 A 
ATOM     29  C   UNL     1      -3.893  14.132  21.934  0.00  0.00    +0.000 A 
ATOM     30  C   UNL     1      -4.769  14.204  23.021  0.00  0.00    +0.000 A 
ATOM     31  C   UNL     1      -4.601  13.336  24.107  0.00  0.00    +0.000 A 
ATOM     32  C   UNL     1      -3.569  12.401  24.092  0.00  0.00    +0.000 A 
ATOM     33  C   UNL     1      -2.695  12.303  22.999  0.00  0.00    +0.000 A 
ATOM     34  C   UNL     1      -1.681  11.329  22.953  0.00  0.00    +0.000 A 
ENDBRANCH  23  25
ENDBRANCH   2  20
TORSDOF 8
ENDMDL
MODEL 6
REMARK VINA RESULT:      -7.7      2.126      3.466
REMARK  Name = 
REMARK  8 active torsions:
REMARK  status: ('A' for Active; 'I' for Inactive)
REMARK    1  A    between atoms: C_2  and  C_15
REMARK    2  A    between atoms: N_3  and  C_4
REMARK    3  A    between atoms: C_6  and  C_7
REMARK    4  A    between atoms: C_7  and  O_8
REMARK    5  A    between atoms: C_9  and  O_10
REMARK    6  A    between atoms: C_11  and  O_12
REMARK    7  A    between atoms: C_13  and  O_14
REMARK    8  A    between atoms: C_18  and  C_19
REMARK                            x       y       z     vdW  Elec       q    Type
REMARK                         _______ _______ _______ _____ _____    ______ ____
ROOT
ATOM      1  O   UNL     1       1.669   8.037  21.377  0.00  0.00    +0.000 OA
ATOM      2  C   UNL     1       1.615   8.234  20.162  0.00  0.00    +0.000 C 
ATOM      3  N   UNL     1       2.278   7.409  19.271  0.00  0.00    +0.000 N 
ATOM      4  H   UNL     1       2.384   7.714  18.310  0.00  0.00    +0.000 HD
ENDROOT
BRANCH   3   5
ATOM      5  C   UNL     1       3.010   6.244  19.707  0.00  0.00    +0.000 C 
ATOM      6  O   UNL     1       4.099   6.145  18.792  0.00  0.00    +0.000 OA
ATOM      7  C   UNL     1       4.982   5.042  19.048  0.00  0.00    +0.000 C 
ATOM      8  C   UNL     1       4.219   3.709  18.965  0.00  0.00    +0.000 C 
ATOM      9  C   UNL     1       3.048   3.725  19.954  0.00  0.00    +0.000 C 
ATOM     10  C   UNL     1       2.148   4.950  19.709  0.00  0.00    +0.000 C 
BRANCH   8  11
ATOM     11  O   UNL     1       5.088   2.597  19.208  0.00  0.00    +0.000 OA
ATOM     12  H   UNL     1       4.592   1.911  19.694  0.00  0.00    +0.000 HD
ENDBRANCH   8  11
BRANCH   9  13
ATOM     13  O   UNL     1       2.294   2.510  19.863  0.00  0.00    +0.000 OA
ATOM     14  H   UNL     1       2.126   2.315  18.923  0.00  0.00    +0.000 HD
ENDBRANCH   9  13
BRANCH  10  15
ATOM     15  O   UNL     1       1.101   4.993  20.683  0.00  0.00    +0.000 OA
ATOM     16  H   UNL     1       0.506   4.233  20.546  0.00  0.00    +0.000 HD
ENDBRANCH  10  15
BRANCH   7  17
ATOM     17  C   UNL     1       6.123   5.095  18.017  0.00  0.00    +0.000 C 
BRANCH  17  18
ATOM     18  O   UNL     1       7.188   4.202  18.317  0.00  0.00    +0.000 OA
ATOM     19  H   UNL     1       7.910   4.732  18.719  0.00  0.00    +0.000 HD
ENDBRANCH  17  18
ENDBRANCH   7  17
ENDBRANCH   3   5
BRANCH   2  20
ATOM     20  C   UNL     1       0.920   9.360  19.560  0.00  0.00    +0.000 A 
ATOM     21  N   UNL     1       1.405  10.217  18.682  0.00  0.00    +0.000 NA
ATOM     22  N   UNL     1       0.391  11.124  18.427  0.00  0.00    +0.000 NA
ATOM     23  C   UNL     1      -0.639  10.762  19.172  0.00  0.00    +0.000 A 
ATOM     24  O   UNL     1      -0.376   9.641  19.916  0.00  0.00    +0.000 OA
BRANCH  23  25
ATOM     25  C   UNL     1      -1.967  11.357  19.298  0.00  0.00    +0.000 A 
ATOM     26  C   UNL     1      -2.255  12.211  20.370  0.00  0.00    +0.000 A 
ATOM     27  C   UNL     1      -3.499  12.844  20.469  0.00  0.00    +0.000 A 
ATOM     28  C   UNL     1      -4.486  12.639  19.494  0.00  0.00    +0.000 A 
ATOM     29  C   UNL     1      -5.721  13.306  19.550  0.00  0.00    +0.000 A 
ATOM     30  C   UNL     1      -6.693  13.096  18.570  0.00  0.00    +0.000 A 
ATOM     31  C   UNL     1      -6.442  12.200  17.523  0.00  0.00    +0.000 A 
ATOM     32  C   UNL     1      -5.221  11.532  17.463  0.00  0.00    +0.000 A 
ATOM     33  C   UNL     1      -4.228  11.748  18.430  0.00  0.00    +0.000 A 
ATOM     34  C   UNL     1      -2.973  11.116  18.350  0.00  0.00    +0.000 A 
ENDBRANCH  23  25
ENDBRANCH   2  20
TORSDOF 8
ENDMDL
MODEL 7
REMARK VINA RESULT:      -7.7      3.734     10.148
REMARK  Name = 
REMARK  8 active torsions:
REMARK  status: ('A' for Active; 'I' for Inactive)
REMARK    1  A    between atoms: C_2  and  C_15
REMARK    2  A    between atoms: N_3  and  C_4
REMARK    3  A    between atoms: C_6  and  C_7
REMARK    4  A    between atoms: C_7  and  O_8
REMARK    5  A    between atoms: C_9  and  O_10
REMARK    6  A    between atoms: C_11  and  O_12
REMARK    7  A    between atoms: C_13  and  O_14
REMARK    8  A    between atoms: C_18  and  C_19
REMARK                            x       y       z     vdW  Elec       q    Type
REMARK                         _______ _______ _______ _____ _____    ______ ____
ROOT
ATOM      1  O   UNL     1      -0.294  10.617  23.522  0.00  0.00    +0.000 OA
ATOM      2  C   UNL     1      -0.559  10.838  22.340  0.00  0.00    +0.000 C 
ATOM      3  N   UNL     1      -1.621  11.648  21.981  0.00  0.00    +0.000 N 
ATOM      4  H   UNL     1      -1.936  11.643  21.018  0.00  0.00    +0.000 HD
ENDROOT
BRANCH   3   5
ATOM      5  C   UNL     1      -2.432  12.326  22.965  0.00  0.00    +0.000 C 
ATOM      6  O   UNL     1      -3.752  12.283  22.429  0.00  0.00    +0.000 OA
ATOM      7  C   UNL     1      -4.745  12.900  23.263  0.00  0.00    +0.000 C 
ATOM      8  C   UNL     1      -4.413  14.385  23.486  0.00  0.00    +0.000 C 
ATOM      9  C   UNL     1      -3.013  14.513  24.099  0.00  0.00    +0.000 C 
ATOM     10  C   UNL     1      -1.972  13.788  23.227  0.00  0.00    +0.000 C 
BRANCH   8  11
ATOM     11  O   UNL     1      -5.399  15.020  24.308  0.00  0.00    +0.000 OA
ATOM     12  H   UNL     1      -6.280  14.868  23.916  0.00  0.00    +0.000 HD
ENDBRANCH   8  11
BRANCH   9  13
ATOM     13  O   UNL     1      -2.664  15.891  24.275  0.00  0.00    +0.000 OA
ATOM     14  H   UNL     1      -1.740  16.019  23.994  0.00  0.00    +0.000 HD
ENDBRANCH   9  13
BRANCH  10  15
ATOM     15  O   UNL     1      -0.683  13.853  23.846  0.00  0.00    +0.000 OA
ATOM     16  H   UNL     1      -0.480  12.991  24.252  0.00  0.00    +0.000 HD
ENDBRANCH  10  15
BRANCH   7  17
ATOM     17  C   UNL     1      -6.113  12.733  22.580  0.00  0.00    +0.000 C 
BRANCH  17  18
ATOM     18  O   UNL     1      -6.060  11.923  21.413  0.00  0.00    +0.000 OA
ATOM     19  H   UNL     1      -5.835  12.510  20.659  0.00  0.00    +0.000 HD
ENDBRANCH  17  18
ENDBRANCH   7  17
ENDBRANCH   3   5
BRANCH   2  20
ATOM     20  C   UNL     1       0.159  10.235  21.229  0.00  0.00    +0.000 A 
ATOM     21  N   UNL     1       0.417  10.783  20.057  0.00  0.00    +0.000 NA
ATOM     22  N   UNL     1       1.093   9.824  19.322  0.00  0.00    +0.000 NA
ATOM     23  C   UNL     1       1.193   8.756  20.093  0.00  0.00    +0.000 A 
ATOM     24  O   UNL     1       0.627   8.947  21.327  0.00  0.00    +0.000 OA
BRANCH  23  25
ATOM     25  C   UNL     1       1.811   7.458  19.832  0.00  0.00    +0.000 A 
ATOM     26  C   UNL     1       2.671   7.298  18.739  0.00  0.00    +0.000 A 
ATOM     27  C   UNL     1       3.327   6.082  18.514  0.00  0.00    +0.000 A 
ATOM     28  C   UNL     1       3.138   4.996  19.380  0.00  0.00    +0.000 A 
ATOM     29  C   UNL     1       3.827   3.786  19.198  0.00  0.00    +0.000 A 
ATOM     30  C   UNL     1       3.634   2.713  20.072  0.00  0.00    +0.000 A 
ATOM     31  C   UNL     1       2.732   2.839  21.136  0.00  0.00    +0.000 A 
ATOM     32  C   UNL     1       2.042   4.035  21.320  0.00  0.00    +0.000 A 
ATOM     33  C   UNL     1       2.242   5.127  20.463  0.00  0.00    +0.000 A 
ATOM     34  C   UNL     1       1.587   6.355  20.670  0.00  0.00    +0.000 A 
ENDBRANCH  23  25
ENDBRANCH   2  20
TORSDOF 8
ENDMDL
MODEL 8
REMARK VINA RESULT:      -7.7      4.541     10.589
REMARK  Name = 
REMARK  8 active torsions:
REMARK  status: ('A' for Active; 'I' for Inactive)
REMARK    1  A    between atoms: C_2  and  C_15
REMARK    2  A    between atoms: N_3  and  C_4
REMARK    3  A    between atoms: C_6  and  C_7
REMARK    4  A    between atoms: C_7  and  O_8
REMARK    5  A    between atoms: C_9  and  O_10
REMARK    6  A    between atoms: C_11  and  O_12
REMARK    7  A    between atoms: C_13  and  O_14
REMARK    8  A    between atoms: C_18  and  C_19
REMARK                            x       y       z     vdW  Elec       q    Type
REMARK                         _______ _______ _______ _____ _____    ______ ____
ROOT
ATOM      1  O   UNL     1      -1.244  13.307  23.180  0.00  0.00    +0.000 OA
ATOM      2  C   UNL     1      -1.638  12.255  22.675  0.00  0.00    +0.000 C 
ATOM      3  N   UNL     1      -2.951  12.101  22.269  0.00  0.00    +0.000 N 
ATOM      4  H   UNL     1      -3.289  11.170  22.054  0.00  0.00    +0.000 HD
ENDROOT
BRANCH   3   5
ATOM      5  C   UNL     1      -3.909  13.177  22.355  0.00  0.00    +0.000 C 
ATOM      6  O   UNL     1      -4.996  12.628  23.094  0.00  0.00    +0.000 OA
ATOM      7  C   UNL     1      -6.080  13.544  23.315  0.00  0.00    +0.000 C 
ATOM      8  C   UNL     1      -6.662  14.023  21.973  0.00  0.00    +0.000 C 
ATOM      9  C   UNL     1      -5.552  14.664  21.131  0.00  0.00    +0.000 C 
ATOM     10  C   UNL     1      -4.371  13.691  20.962  0.00  0.00    +0.000 C 
BRANCH   8  11
ATOM     11  O   UNL     1      -7.751  14.931  22.174  0.00  0.00    +0.000 OA
ATOM     12  H   UNL     1      -8.588  14.432  22.128  0.00  0.00    +0.000 HD
ENDBRANCH   8  11
BRANCH   9  13
ATOM     13  O   UNL     1      -6.061  15.077  19.857  0.00  0.00    +0.000 OA
ATOM     14  H   UNL     1      -5.313  15.212  19.249  0.00  0.00    +0.000 HD
ENDBRANCH   9  13
BRANCH  10  15
ATOM     15  O   UNL     1      -3.313  14.326  20.236  0.00  0.00    +0.000 OA
ATOM     16  H   UNL     1      -2.478  14.216  20.726  0.00  0.00    +0.000 HD
ENDBRANCH  10  15
BRANCH   7  17
ATOM     17  C   UNL     1      -7.147  12.829  24.160  0.00  0.00    +0.000 C 
BRANCH  17  18
ATOM     18  O   UNL     1      -7.916  13.719  24.959  0.00  0.00    +0.000 OA
ATOM     19  H   UNL     1      -7.320  14.443  25.247  0.00  0.00    +0.000 HD
ENDBRANCH  17  18
ENDBRANCH   7  17
ENDBRANCH   3   5
BRANCH   2  20
ATOM     20  C   UNL     1      -0.801  11.077  22.516  0.00  0.00    +0.000 A 
ATOM     21  N   UNL     1      -0.393  10.256  23.465  0.00  0.00    +0.000 NA
ATOM     22  N   UNL     1       0.400   9.308  22.842  0.00  0.00    +0.000 NA
ATOM     23  C   UNL     1       0.427   9.620  21.558  0.00  0.00    +0.000 A 
ATOM     24  O   UNL     1      -0.323  10.731  21.276  0.00  0.00    +0.000 OA
BRANCH  23  25
ATOM     25  C   UNL     1       1.103   8.963  20.442  0.00  0.00    +0.000 A 
ATOM     26  C   UNL     1       1.156   9.587  19.190  0.00  0.00    +0.000 A 
ATOM     27  C   UNL     1       1.859   9.006  18.128  0.00  0.00    +0.000 A 
ATOM     28  C   UNL     1       2.529   7.785  18.296  0.00  0.00    +0.000 A 
ATOM     29  C   UNL     1       3.281   7.214  17.256  0.00  0.00    +0.000 A 
ATOM     30  C   UNL     1       3.947   5.999  17.439  0.00  0.00    +0.000 A 
ATOM     31  C   UNL     1       3.855   5.335  18.668  0.00  0.00    +0.000 A 
ATOM     32  C   UNL     1       3.107   5.894  19.702  0.00  0.00    +0.000 A 
ATOM     33  C   UNL     1       2.450   7.122  19.540  0.00  0.00    +0.000 A 
ATOM     34  C   UNL     1       1.733   7.718  20.594  0.00  0.00    +0.000 A 
ENDBRANCH  23  25
ENDBRANCH   2  20
TORSDOF 8
ENDMDL
MODEL 9
REMARK VINA RESULT:      -7.6      3.417     10.040
REMARK  Name = 
REMARK  8 active torsions:
REMARK  status: ('A' for Active; 'I' for Inactive)
REMARK    1  A    between atoms: C_2  and  C_15
REMARK    2  A    between atoms: N_3  and  C_4
REMARK    3  A    between atoms: C_6  and  C_7
REMARK    4  A    between atoms: C_7  and  O_8
REMARK    5  A    between atoms: C_9  and  O_10
REMARK    6  A    between atoms: C_11  and  O_12
REMARK    7  A    between atoms: C_13  and  O_14
REMARK    8  A    between atoms: C_18  and  C_19
REMARK                            x       y       z     vdW  Elec       q    Type
REMARK                         _______ _______ _______ _____ _____    ______ ____
ROOT
ATOM      1  O   UNL     1       0.771  11.357  18.543  0.00  0.00    +0.000 OA
ATOM      2  C   UNL     1       0.287  10.262  18.831  0.00  0.00    +0.000 C 
ATOM      3  N   UNL     1      -1.082  10.076  18.890  0.00  0.00    +0.000 N 
ATOM      4  H   UNL     1      -1.442   9.234  19.326  0.00  0.00    +0.000 HD
ENDROOT
BRANCH   3   5
ATOM      5  C   UNL     1      -2.012  11.129  18.558  0.00  0.00    +0.000 C 
ATOM      6  O   UNL     1      -2.554  11.534  19.813  0.00  0.00    +0.000 OA
ATOM      7  C   UNL     1      -3.512  12.601  19.723  0.00  0.00    +0.000 C 
ATOM      8  C   UNL     1      -4.705  12.180  18.847  0.00  0.00    +0.000 C 
ATOM      9  C   UNL     1      -4.203  11.763  17.460  0.00  0.00    +0.000 C 
ATOM     10  C   UNL     1      -3.128  10.667  17.580  0.00  0.00    +0.000 C 
BRANCH   8  11
ATOM     11  O   UNL     1      -5.676  13.229  18.754  0.00  0.00    +0.000 OA
ATOM     12  H   UNL     1      -6.565  12.845  18.870  0.00  0.00    +0.000 HD
ENDBRANCH   8  11
BRANCH   9  13
ATOM     13  O   UNL     1      -5.293  11.324  16.640  0.00  0.00    +0.000 OA
ATOM     14  H   UNL     1      -5.412  11.958  15.910  0.00  0.00    +0.000 HD
ENDBRANCH   9  13
BRANCH  10  15
ATOM     15  O   UNL     1      -2.617  10.338  16.284  0.00  0.00    +0.000 OA
ATOM     16  H   UNL     1      -1.667  10.549  16.252  0.00  0.00    +0.000 HD
ENDBRANCH  10  15
BRANCH   7  17
ATOM     17  C   UNL     1      -3.966  12.957  21.148  0.00  0.00    +0.000 C 
BRANCH  17  18
ATOM     18  O   UNL     1      -5.151  12.277  21.543  0.00  0.00    +0.000 OA
ATOM     19  H   UNL     1      -5.008  11.320  21.380  0.00  0.00    +0.000 HD
ENDBRANCH  17  18
ENDBRANCH   7  17
ENDBRANCH   3   5
BRANCH   2  20
ATOM     20  C   UNL     1       1.083   9.100  19.190  0.00  0.00    +0.000 A 
ATOM     21  N   UNL     1       1.337   8.654  20.405  0.00  0.00    +0.000 NA
ATOM     22  N   UNL     1       2.156   7.549  20.248  0.00  0.00    +0.000 NA
ATOM     23  C   UNL     1       2.351   7.403  18.950  0.00  0.00    +0.000 A 
ATOM     24  O   UNL     1       1.691   8.351  18.212  0.00  0.00    +0.000 OA
BRANCH  23  25
ATOM     25  C   UNL     1       3.127   6.403  18.219  0.00  0.00    +0.000 A 
ATOM     26  C   UNL     1       2.673   5.081  18.142  0.00  0.00    +0.000 A 
ATOM     27  C   UNL     1       3.366   4.127  17.388  0.00  0.00    +0.000 A 
ATOM     28  C   UNL     1       4.532   4.475  16.690  0.00  0.00    +0.000 A 
ATOM     29  C   UNL     1       5.210   3.543  15.888  0.00  0.00    +0.000 A 
ATOM     30  C   UNL     1       6.367   3.905  15.193  0.00  0.00    +0.000 A 
ATOM     31  C   UNL     1       6.866   5.208  15.307  0.00  0.00    +0.000 A 
ATOM     32  C   UNL     1       6.200   6.137  16.104  0.00  0.00    +0.000 A 
ATOM     33  C   UNL     1       5.026   5.794  16.791  0.00  0.00    +0.000 A 
ATOM     34  C   UNL     1       4.320   6.738  17.558  0.00  0.00    +0.000 A 
ENDBRANCH  23  25
ENDBRANCH   2  20
TORSDOF 8
ENDMDL
