MODEL 1
REMARK VINA RESULT:      -8.2      0.000      0.000
REMARK  Name = 
REMARK  7 active torsions:
REMARK  status: ('A' for Active; 'I' for Inactive)
REMARK    1  A    between atoms: C_1  and  C_2
REMARK    2  A    between atoms: C_2  and  C_3
REMARK    3  A    between atoms: C_3  and  C_4
REMARK    4  A    between atoms: C_4  and  C_5
REMARK    5  A    between atoms: C_5  and  C_6
REMARK    6  A    between atoms: C_7  and  C_8
REMARK    7  A    between atoms: C_13  and  C_14
REMARK                            x       y       z     vdW  Elec       q    Type
REMARK                         _______ _______ _______ _____ _____    ______ ____
ROOT
ATOM      1  C   UNL     1       5.663   4.453  15.496  0.00  0.00    +0.000 C 
ATOM      2  C   UNL     1       6.290   5.637  15.617  0.00  0.00    +0.000 C 
ATOM      3  C   UNL     1       6.180   6.443  16.852  0.00  0.00    +0.000 C 
ATOM      4  O   UNL     1       6.804   7.499  16.936  0.00  0.00    +0.000 OA
ATOM      5  C   UNL     1       5.388   5.892  18.014  0.00  0.00    +0.000 C 
ATOM      6  C   UNL     1       4.228   5.025  17.523  0.00  0.00    +0.000 C 
ATOM      7  C   UNL     1       4.724   3.930  16.561  0.00  0.00    +0.000 C 
ENDROOT
BRANCH   6   8
ATOM      8  C   UNL     1       3.445   4.420  18.679  0.00  0.00    +0.000 A 
ATOM      9  C   UNL     1       3.138   3.052  18.680  0.00  0.00    +0.000 A 
ATOM     10  C   UNL     1       2.420   2.485  19.737  0.00  0.00    +0.000 A 
ATOM     11  C   UNL     1       2.006   3.281  20.803  0.00  0.00    +0.000 A 
ATOM     12 CL   UNL     1       1.117   2.583  22.099  0.00  0.00    +0.000 Cl
ATOM     13  C   UNL     1       2.308   4.637  20.822  0.00  0.00    +0.000 A 
ATOM     14  C   UNL     1       3.024   5.205  19.766  0.00  0.00    +0.000 A 
ENDBRANCH   6   8
BRANCH   1  16
ATOM     15  C   UNL     1       6.255   4.127  13.114  0.00  0.00    +0.000 C 
ATOM     16  C   UNL     1       5.874   3.643  14.304  0.00  0.00    +0.000 C 
BRANCH  15  17
ATOM     17  C   UNL     1       6.465   3.289  11.886  0.00  0.00    +0.000 C 
BRANCH  17  18
ATOM     18  C   UNL     1       5.216   2.462  11.583  0.00  0.00    +0.000 C 
BRANCH  18  19
ATOM     19  C   UNL     1       4.002   3.359  11.356  0.00  0.00    +0.000 C 
BRANCH  19  21
ATOM     20  C   UNL     1       2.732   4.546   9.536  0.00  0.00    +0.000 C 
ATOM     21  C   UNL     1       3.545   3.313   9.899  0.00  0.00    +0.000 C 
ENDBRANCH  19  21
ENDBRANCH  18  19
ENDBRANCH  17  18
ENDBRANCH  15  17
ENDBRANCH   1  16
TORSDOF 6
ENDMDL
MODEL 2
REMARK VINA RESULT:      -8.2      0.607      1.202
REMARK  Name = 
REMARK  7 active torsions:
REMARK  status: ('A' for Active; 'I' for Inactive)
REMARK    1  A    between atoms: C_1  and  C_2
REMARK    2  A    between atoms: C_2  and  C_3
REMARK    3  A    between atoms: C_3  and  C_4
REMARK    4  A    between atoms: C_4  and  C_5
REMARK    5  A    between atoms: C_5  and  C_6
REMARK    6  A    between atoms: C_7  and  C_8
REMARK    7  A    between atoms: C_13  and  C_14
REMARK                            x       y       z     vdW  Elec       q    Type
REMARK                         _______ _______ _______ _____ _____    ______ ____
ROOT
ATOM      1  C   UNL     1       5.732   4.858  15.537  0.00  0.00    +0.000 C 
ATOM      2  C   UNL     1       6.741   5.672  15.896  0.00  0.00    +0.000 C 
ATOM      3  C   UNL     1       6.987   6.012  17.314  0.00  0.00    +0.000 C 
ATOM      4  O   UNL     1       7.946   6.726  17.601  0.00  0.00    +0.000 OA
ATOM      5  C   UNL     1       6.114   5.387  18.376  0.00  0.00    +0.000 C 
ATOM      6  C   UNL     1       4.698   5.145  17.848  0.00  0.00    +0.000 C 
ATOM      7  C   UNL     1       4.727   4.336  16.539  0.00  0.00    +0.000 C 
ENDROOT
BRANCH   6   8
ATOM      8  C   UNL     1       3.815   4.471  18.888  0.00  0.00    +0.000 A 
ATOM      9  C   UNL     1       3.071   5.249  19.788  0.00  0.00    +0.000 A 
ATOM     10  C   UNL     1       2.255   4.641  20.747  0.00  0.00    +0.000 A 
ATOM     11  C   UNL     1       2.176   3.252  20.813  0.00  0.00    +0.000 A 
ATOM     12 CL   UNL     1       1.178   2.506  21.998  0.00  0.00    +0.000 Cl
ATOM     13  C   UNL     1       2.901   2.466  19.925  0.00  0.00    +0.000 A 
ATOM     14  C   UNL     1       3.717   3.071  18.967  0.00  0.00    +0.000 A 
ENDBRANCH   6   8
BRANCH   1  16
ATOM     15  C   UNL     1       6.499   3.786  13.441  0.00  0.00    +0.000 C 
ATOM     16  C   UNL     1       5.582   4.467  14.142  0.00  0.00    +0.000 C 
BRANCH  15  17
ATOM     17  C   UNL     1       6.344   3.391  12.001  0.00  0.00    +0.000 C 
BRANCH  17  18
ATOM     18  C   UNL     1       5.011   2.674  11.783  0.00  0.00    +0.000 C 
BRANCH  18  19
ATOM     19  C   UNL     1       3.911   3.661  11.398  0.00  0.00    +0.000 C 
BRANCH  19  21
ATOM     20  C   UNL     1       2.757   4.460   9.309  0.00  0.00    +0.000 C 
ATOM     21  C   UNL     1       3.226   3.246  10.097  0.00  0.00    +0.000 C 
ENDBRANCH  19  21
ENDBRANCH  18  19
ENDBRANCH  17  18
ENDBRANCH  15  17
ENDBRANCH   1  16
TORSDOF 6
ENDMDL
MODEL 3
REMARK VINA RESULT:      -8.0      1.231      1.951
REMARK  Name = 
REMARK  7 active torsions:
REMARK  status: ('A' for Active; 'I' for Inactive)
REMARK    1  A    between atoms: C_1  and  C_2
REMARK    2  A    between atoms: C_2  and  C_3
REMARK    3  A    between atoms: C_3  and  C_4
REMARK    4  A    between atoms: C_4  and  C_5
REMARK    5  A    between atoms: C_5  and  C_6
REMARK    6  A    between atoms: C_7  and  C_8
REMARK    7  A    between atoms: C_13  and  C_14
REMARK                            x       y       z     vdW  Elec       q    Type
REMARK                         _______ _______ _______ _____ _____    ______ ____
ROOT
ATOM      1  C   UNL     1       5.997   4.705  15.421  0.00  0.00    +0.000 C 
ATOM      2  C   UNL     1       6.722   5.814  15.657  0.00  0.00    +0.000 C 
ATOM      3  C   UNL     1       6.661   6.509  16.960  0.00  0.00    +0.000 C 
ATOM      4  O   UNL     1       7.373   7.495  17.146  0.00  0.00    +0.000 OA
ATOM      5  C   UNL     1       5.806   5.925  18.059  0.00  0.00    +0.000 C 
ATOM      6  C   UNL     1       4.584   5.211  17.480  0.00  0.00    +0.000 C 
ATOM      7  C   UNL     1       4.999   4.170  16.425  0.00  0.00    +0.000 C 
ENDROOT
BRANCH   6   8
ATOM      8  C   UNL     1       3.733   4.573  18.569  0.00  0.00    +0.000 A 
ATOM      9  C   UNL     1       4.084   3.319  19.090  0.00  0.00    +0.000 A 
ATOM     10  C   UNL     1       3.311   2.723  20.091  0.00  0.00    +0.000 A 
ATOM     11  C   UNL     1       2.183   3.378  20.581  0.00  0.00    +0.000 A 
ATOM     12 CL   UNL     1       1.230   2.640  21.808  0.00  0.00    +0.000 Cl
ATOM     13  C   UNL     1       1.825   4.625  20.082  0.00  0.00    +0.000 A 
ATOM     14  C   UNL     1       2.596   5.220  19.081  0.00  0.00    +0.000 A 
ENDBRANCH   6   8
BRANCH   1  16
ATOM     15  C   UNL     1       5.264   4.004  13.162  0.00  0.00    +0.000 C 
ATOM     16  C   UNL     1       6.157   3.992  14.161  0.00  0.00    +0.000 C 
BRANCH  15  17
ATOM     17  C   UNL     1       5.429   3.261  11.868  0.00  0.00    +0.000 C 
BRANCH  17  18
ATOM     18  C   UNL     1       6.911   3.043  11.562  0.00  0.00    +0.000 C 
BRANCH  18  19
ATOM     19  C   UNL     1       7.165   1.627  11.049  0.00  0.00    +0.000 C 
BRANCH  19  21
ATOM     20  C   UNL     1       6.201  -0.676  11.364  0.00  0.00    +0.000 C 
ATOM     21  C   UNL     1       5.890   0.787  11.088  0.00  0.00    +0.000 C 
ENDBRANCH  19  21
ENDBRANCH  18  19
ENDBRANCH  17  18
ENDBRANCH  15  17
ENDBRANCH   1  16
TORSDOF 6
ENDMDL
MODEL 4
REMARK VINA RESULT:      -7.9      3.292      4.295
REMARK  Name = 
REMARK  7 active torsions:
REMARK  status: ('A' for Active; 'I' for Inactive)
REMARK    1  A    between atoms: C_1  and  C_2
REMARK    2  A    between atoms: C_2  and  C_3
REMARK    3  A    between atoms: C_3  and  C_4
REMARK    4  A    between atoms: C_4  and  C_5
REMARK    5  A    between atoms: C_5  and  C_6
REMARK    6  A    between atoms: C_7  and  C_8
REMARK    7  A    between atoms: C_13  and  C_14
REMARK                            x       y       z     vdW  Elec       q    Type
REMARK                         _______ _______ _______ _____ _____    ______ ____
ROOT
ATOM      1  C   UNL     1       4.669   5.231  16.451  0.00  0.00    +0.000 C 
ATOM      2  C   UNL     1       4.266   3.986  16.765  0.00  0.00    +0.000 C 
ATOM      3  C   UNL     1       3.091   3.754  17.632  0.00  0.00    +0.000 C 
ATOM      4  O   UNL     1       2.733   2.600  17.859  0.00  0.00    +0.000 OA
ATOM      5  C   UNL     1       2.303   4.944  18.126  0.00  0.00    +0.000 C 
ATOM      6  C   UNL     1       3.212   6.158  18.325  0.00  0.00    +0.000 C 
ATOM      7  C   UNL     1       4.020   6.459  17.050  0.00  0.00    +0.000 C 
ENDROOT
BRANCH   6   8
ATOM      8  C   UNL     1       2.429   7.382  18.777  0.00  0.00    +0.000 A 
ATOM      9  C   UNL     1       2.132   8.403  17.862  0.00  0.00    +0.000 A 
ATOM     10  C   UNL     1       1.413   9.532  18.265  0.00  0.00    +0.000 A 
ATOM     11  C   UNL     1       0.983   9.648  19.584  0.00  0.00    +0.000 A 
ATOM     12 CL   UNL     1       0.104  11.041  20.080  0.00  0.00    +0.000 Cl
ATOM     13  C   UNL     1       1.261   8.643  20.503  0.00  0.00    +0.000 A 
ATOM     14  C   UNL     1       1.981   7.515  20.102  0.00  0.00    +0.000 A 
ENDBRANCH   6   8
BRANCH   1  16
ATOM     15  C   UNL     1       6.077   4.572  14.524  0.00  0.00    +0.000 C 
ATOM     16  C   UNL     1       5.769   5.419  15.516  0.00  0.00    +0.000 C 
BRANCH  15  17
ATOM     17  C   UNL     1       7.217   4.765  13.566  0.00  0.00    +0.000 C 
BRANCH  17  18
ATOM     18  C   UNL     1       6.927   4.062  12.240  0.00  0.00    +0.000 C 
BRANCH  18  19
ATOM     19  C   UNL     1       5.637   3.249  12.318  0.00  0.00    +0.000 C 
BRANCH  19  21
ATOM     20  C   UNL     1       7.123   1.606  11.124  0.00  0.00    +0.000 C 
ATOM     21  C   UNL     1       5.689   2.038  11.387  0.00  0.00    +0.000 C 
ENDBRANCH  19  21
ENDBRANCH  18  19
ENDBRANCH  17  18
ENDBRANCH  15  17
ENDBRANCH   1  16
TORSDOF 6
ENDMDL
MODEL 5
REMARK VINA RESULT:      -7.8      0.970      1.639
REMARK  Name = 
REMARK  7 active torsions:
REMARK  status: ('A' for Active; 'I' for Inactive)
REMARK    1  A    between atoms: C_1  and  C_2
REMARK    2  A    between atoms: C_2  and  C_3
REMARK    3  A    between atoms: C_3  and  C_4
REMARK    4  A    between atoms: C_4  and  C_5
REMARK    5  A    between atoms: C_5  and  C_6
REMARK    6  A    between atoms: C_7  and  C_8
REMARK    7  A    between atoms: C_13  and  C_14
REMARK                            x       y       z     vdW  Elec       q    Type
REMARK                         _______ _______ _______ _____ _____    ______ ____
ROOT
ATOM      1  C   UNL     1       5.987   5.416  16.192  0.00  0.00    +0.000 C 
ATOM      2  C   UNL     1       7.014   6.124  16.696  0.00  0.00    +0.000 C 
ATOM      3  C   UNL     1       7.225   6.243  18.155  0.00  0.00    +0.000 C 
ATOM      4  O   UNL     1       8.201   6.865  18.570  0.00  0.00    +0.000 OA
ATOM      5  C   UNL     1       6.293   5.506  19.088  0.00  0.00    +0.000 C 
ATOM      6  C   UNL     1       4.888   5.406  18.492  0.00  0.00    +0.000 C 
ATOM      7  C   UNL     1       4.929   4.796  17.079  0.00  0.00    +0.000 C 
ENDROOT
BRANCH   6   8
ATOM      8  C   UNL     1       3.946   4.625  19.396  0.00  0.00    +0.000 A 
ATOM      9  C   UNL     1       2.959   5.299  20.132  0.00  0.00    +0.000 A 
ATOM     10  C   UNL     1       2.087   4.593  20.965  0.00  0.00    +0.000 A 
ATOM     11  C   UNL     1       2.192   3.208  21.068  0.00  0.00    +0.000 A 
ATOM     12 CL   UNL     1       1.123   2.341  22.099  0.00  0.00    +0.000 Cl
ATOM     13  C   UNL     1       3.158   2.523  20.340  0.00  0.00    +0.000 A 
ATOM     14  C   UNL     1       4.032   3.227  19.508  0.00  0.00    +0.000 A 
ENDBRANCH   6   8
BRANCH   1  16
ATOM     15  C   UNL     1       6.705   4.506  14.004  0.00  0.00    +0.000 C 
ATOM     16  C   UNL     1       5.869   5.240  14.752  0.00  0.00    +0.000 C 
BRANCH  15  17
ATOM     17  C   UNL     1       6.585   4.334  12.518  0.00  0.00    +0.000 C 
BRANCH  17  18
ATOM     18  C   UNL     1       6.602   2.850  12.149  0.00  0.00    +0.000 C 
BRANCH  18  19
ATOM     19  C   UNL     1       5.252   2.404  11.594  0.00  0.00    +0.000 C 
BRANCH  19  21
ATOM     20  C   UNL     1       3.410   3.534  10.304  0.00  0.00    +0.000 C 
ATOM     21  C   UNL     1       4.254   3.561  11.569  0.00  0.00    +0.000 C 
ENDBRANCH  19  21
ENDBRANCH  18  19
ENDBRANCH  17  18
ENDBRANCH  15  17
ENDBRANCH   1  16
TORSDOF 6
ENDMDL
MODEL 6
REMARK VINA RESULT:      -7.8      1.548      2.239
REMARK  Name = 
REMARK  7 active torsions:
REMARK  status: ('A' for Active; 'I' for Inactive)
REMARK    1  A    between atoms: C_1  and  C_2
REMARK    2  A    between atoms: C_2  and  C_3
REMARK    3  A    between atoms: C_3  and  C_4
REMARK    4  A    between atoms: C_4  and  C_5
REMARK    5  A    between atoms: C_5  and  C_6
REMARK    6  A    between atoms: C_7  and  C_8
REMARK    7  A    between atoms: C_13  and  C_14
REMARK                            x       y       z     vdW  Elec       q    Type
REMARK                         _______ _______ _______ _____ _____    ______ ____
ROOT
ATOM      1  C   UNL     1       6.178   5.277  16.005  0.00  0.00    +0.000 C 
ATOM      2  C   UNL     1       7.138   6.091  16.479  0.00  0.00    +0.000 C 
ATOM      3  C   UNL     1       7.269   6.364  17.926  0.00  0.00    +0.000 C 
ATOM      4  O   UNL     1       8.188   7.081  18.320  0.00  0.00    +0.000 OA
ATOM      5  C   UNL     1       6.334   5.669  18.887  0.00  0.00    +0.000 C 
ATOM      6  C   UNL     1       4.968   5.427  18.243  0.00  0.00    +0.000 C 
ATOM      7  C   UNL     1       5.113   4.686  16.901  0.00  0.00    +0.000 C 
ENDROOT
BRANCH   6   8
ATOM      8  C   UNL     1       4.026   4.684  19.178  0.00  0.00    +0.000 A 
ATOM      9  C   UNL     1       2.925   5.348  19.739  0.00  0.00    +0.000 A 
ATOM     10  C   UNL     1       2.051   4.676  20.600  0.00  0.00    +0.000 A 
ATOM     11  C   UNL     1       2.271   3.335  20.904  0.00  0.00    +0.000 A 
ATOM     12 CL   UNL     1       1.200   2.512  21.968  0.00  0.00    +0.000 Cl
ATOM     13  C   UNL     1       3.353   2.659  20.352  0.00  0.00    +0.000 A 
ATOM     14  C   UNL     1       4.227   3.329  19.493  0.00  0.00    +0.000 A 
ENDBRANCH   6   8
BRANCH   1  16
ATOM     15  C   UNL     1       5.568   3.858  14.069  0.00  0.00    +0.000 C 
ATOM     16  C   UNL     1       6.141   4.955  14.585  0.00  0.00    +0.000 C 
BRANCH  15  17
ATOM     17  C   UNL     1       5.539   3.525  12.606  0.00  0.00    +0.000 C 
BRANCH  17  18
ATOM     18  C   UNL     1       6.955   3.522  12.030  0.00  0.00    +0.000 C 
BRANCH  18  19
ATOM     19  C   UNL     1       7.271   2.192  11.349  0.00  0.00    +0.000 C 
BRANCH  19  21
ATOM     20  C   UNL     1       6.214  -0.091  11.332  0.00  0.00    +0.000 C 
ATOM     21  C   UNL     1       5.997   1.393  11.079  0.00  0.00    +0.000 C 
ENDBRANCH  19  21
ENDBRANCH  18  19
ENDBRANCH  17  18
ENDBRANCH  15  17
ENDBRANCH   1  16
TORSDOF 6
ENDMDL
MODEL 7
REMARK VINA RESULT:      -7.8      3.142      4.134
REMARK  Name = 
REMARK  7 active torsions:
REMARK  status: ('A' for Active; 'I' for Inactive)
REMARK    1  A    between atoms: C_1  and  C_2
REMARK    2  A    between atoms: C_2  and  C_3
REMARK    3  A    between atoms: C_3  and  C_4
REMARK    4  A    between atoms: C_4  and  C_5
REMARK    5  A    between atoms: C_5  and  C_6
REMARK    6  A    between atoms: C_7  and  C_8
REMARK    7  A    between atoms: C_13  and  C_14
REMARK                            x       y       z     vdW  Elec       q    Type
REMARK                         _______ _______ _______ _____ _____    ______ ____
ROOT
ATOM      1  C   UNL     1       4.803   5.191  16.274  0.00  0.00    +0.000 C 
ATOM      2  C   UNL     1       4.473   3.925  16.591  0.00  0.00    +0.000 C 
ATOM      3  C   UNL     1       3.360   3.630  17.518  0.00  0.00    +0.000 C 
ATOM      4  O   UNL     1       3.066   2.457  17.746  0.00  0.00    +0.000 OA
ATOM      5  C   UNL     1       2.550   4.776  18.075  0.00  0.00    +0.000 C 
ATOM      6  C   UNL     1       3.415   6.027  18.242  0.00  0.00    +0.000 C 
ATOM      7  C   UNL     1       4.135   6.381  16.928  0.00  0.00    +0.000 C 
ENDROOT
BRANCH   6   8
ATOM      8  C   UNL     1       2.606   7.209  18.756  0.00  0.00    +0.000 A 
ATOM      9  C   UNL     1       2.135   7.215  20.077  0.00  0.00    +0.000 A 
ATOM     10  C   UNL     1       1.391   8.295  20.562  0.00  0.00    +0.000 A 
ATOM     11  C   UNL     1       1.115   9.378  19.730  0.00  0.00    +0.000 A 
ATOM     12 CL   UNL     1       0.195  10.703  20.326  0.00  0.00    +0.000 Cl
ATOM     13  C   UNL     1       1.581   9.392  18.421  0.00  0.00    +0.000 A 
ATOM     14  C   UNL     1       2.322   8.313  17.935  0.00  0.00    +0.000 A 
ENDBRANCH   6   8
BRANCH   1  16
ATOM     15  C   UNL     1       6.287   4.530  14.406  0.00  0.00    +0.000 C 
ATOM     16  C   UNL     1       5.839   5.440  15.282  0.00  0.00    +0.000 C 
BRANCH  15  17
ATOM     17  C   UNL     1       7.361   4.789  13.390  0.00  0.00    +0.000 C 
BRANCH  17  18
ATOM     18  C   UNL     1       7.109   3.968  12.125  0.00  0.00    +0.000 C 
BRANCH  18  19
ATOM     19  C   UNL     1       5.705   3.368  12.127  0.00  0.00    +0.000 C 
BRANCH  19  21
ATOM     20  C   UNL     1       7.043   1.595  10.943  0.00  0.00    +0.000 C 
ATOM     21  C   UNL     1       5.718   1.930  11.611  0.00  0.00    +0.000 C 
ENDBRANCH  19  21
ENDBRANCH  18  19
ENDBRANCH  17  18
ENDBRANCH  15  17
ENDBRANCH   1  16
TORSDOF 6
ENDMDL
MODEL 8
REMARK VINA RESULT:      -7.5      3.536      4.835
REMARK  Name = 
REMARK  7 active torsions:
REMARK  status: ('A' for Active; 'I' for Inactive)
REMARK    1  A    between atoms: C_1  and  C_2
REMARK    2  A    between atoms: C_2  and  C_3
REMARK    3  A    between atoms: C_3  and  C_4
REMARK    4  A    between atoms: C_4  and  C_5
REMARK    5  A    between atoms: C_5  and  C_6
REMARK    6  A    between atoms: C_7  and  C_8
REMARK    7  A    between atoms: C_13  and  C_14
REMARK                            x       y       z     vdW  Elec       q    Type
REMARK                         _______ _______ _______ _____ _____    ______ ____
ROOT
ATOM      1  C   UNL     1       3.885   4.657  17.838  0.00  0.00    +0.000 C 
ATOM      2  C   UNL     1       3.783   3.745  18.822  0.00  0.00    +0.000 C 
ATOM      3  C   UNL     1       2.955   3.997  20.022  0.00  0.00    +0.000 C 
ATOM      4  O   UNL     1       2.857   3.119  20.877  0.00  0.00    +0.000 OA
ATOM      5  C   UNL     1       2.172   5.285  20.109  0.00  0.00    +0.000 C 
ATOM      6  C   UNL     1       2.904   6.421  19.394  0.00  0.00    +0.000 C 
ATOM      7  C   UNL     1       3.256   6.029  17.948  0.00  0.00    +0.000 C 
ENDROOT
BRANCH   6   8
ATOM      8  C   UNL     1       2.108   7.717  19.429  0.00  0.00    +0.000 A 
ATOM      9  C   UNL     1       1.453   8.107  20.607  0.00  0.00    +0.000 A 
ATOM     10  C   UNL     1       0.718   9.296  20.652  0.00  0.00    +0.000 A 
ATOM     11  C   UNL     1       0.635  10.105  19.521  0.00  0.00    +0.000 A 
ATOM     12 CL   UNL     1      -0.274  11.564  19.576  0.00  0.00    +0.000 Cl
ATOM     13  C   UNL     1       1.284   9.738  18.348  0.00  0.00    +0.000 A 
ATOM     14  C   UNL     1       2.017   8.550  18.301  0.00  0.00    +0.000 A 
ENDBRANCH   6   8
BRANCH   1  16
ATOM     15  C   UNL     1       5.513   5.150  16.039  0.00  0.00    +0.000 C 
ATOM     16  C   UNL     1       4.629   4.334  16.629  0.00  0.00    +0.000 C 
BRANCH  15  17
ATOM     17  C   UNL     1       6.272   4.816  14.788  0.00  0.00    +0.000 C 
BRANCH  17  18
ATOM     18  C   UNL     1       5.450   3.888  13.895  0.00  0.00    +0.000 C 
BRANCH  18  19
ATOM     19  C   UNL     1       6.182   3.587  12.589  0.00  0.00    +0.000 C 
BRANCH  19  21
ATOM     20  C   UNL     1       6.031   1.423  11.313  0.00  0.00    +0.000 C 
ATOM     21  C   UNL     1       5.327   2.726  11.661  0.00  0.00    +0.000 C 
ENDBRANCH  19  21
ENDBRANCH  18  19
ENDBRANCH  17  18
ENDBRANCH  15  17
ENDBRANCH   1  16
TORSDOF 6
ENDMDL
MODEL 9
REMARK VINA RESULT:      -7.5      3.464      4.541
REMARK  Name = 
REMARK  7 active torsions:
REMARK  status: ('A' for Active; 'I' for Inactive)
REMARK    1  A    between atoms: C_1  and  C_2
REMARK    2  A    between atoms: C_2  and  C_3
REMARK    3  A    between atoms: C_3  and  C_4
REMARK    4  A    between atoms: C_4  and  C_5
REMARK    5  A    between atoms: C_5  and  C_6
REMARK    6  A    between atoms: C_7  and  C_8
REMARK    7  A    between atoms: C_13  and  C_14
REMARK                            x       y       z     vdW  Elec       q    Type
REMARK                         _______ _______ _______ _____ _____    ______ ____
ROOT
ATOM      1  C   UNL     1       4.347   5.068  17.548  0.00  0.00    +0.000 C 
ATOM      2  C   UNL     1       4.149   3.993  18.332  0.00  0.00    +0.000 C 
ATOM      3  C   UNL     1       3.116   3.993  19.391  0.00  0.00    +0.000 C 
ATOM      4  O   UNL     1       2.941   2.973  20.056  0.00  0.00    +0.000 OA
ATOM      5  C   UNL     1       2.236   5.209  19.552  0.00  0.00    +0.000 C 
ATOM      6  C   UNL     1       2.993   6.485  19.178  0.00  0.00    +0.000 C 
ATOM      7  C   UNL     1       3.610   6.370  17.772  0.00  0.00    +0.000 C 
ENDROOT
BRANCH   6   8
ATOM      8  C   UNL     1       2.109   7.719  19.287  0.00  0.00    +0.000 A 
ATOM      9  C   UNL     1       1.858   8.505  18.152  0.00  0.00    +0.000 A 
ATOM     10  C   UNL     1       1.047   9.641  18.240  0.00  0.00    +0.000 A 
ATOM     11  C   UNL     1       0.479   9.997  19.460  0.00  0.00    +0.000 A 
ATOM     12 CL   UNL     1      -0.513  11.398  19.567  0.00  0.00    +0.000 Cl
ATOM     13  C   UNL     1       0.711   9.225  20.593  0.00  0.00    +0.000 A 
ATOM     14  C   UNL     1       1.522   8.092  20.508  0.00  0.00    +0.000 A 
ENDBRANCH   6   8
BRANCH   1  16
ATOM     15  C   UNL     1       5.483   3.925  15.669  0.00  0.00    +0.000 C 
ATOM     16  C   UNL     1       5.305   4.997  16.454  0.00  0.00    +0.000 C 
BRANCH  15  17
ATOM     17  C   UNL     1       6.477   3.852  14.546  0.00  0.00    +0.000 C 
BRANCH  17  18
ATOM     18  C   UNL     1       5.812   4.220  13.219  0.00  0.00    +0.000 C 
BRANCH  18  19
ATOM     19  C   UNL     1       6.339   3.352  12.079  0.00  0.00    +0.000 C 
BRANCH  19  21
ATOM     20  C   UNL     1       4.032   3.098  11.106  0.00  0.00    +0.000 C 
ATOM     21  C   UNL     1       5.274   2.369  11.595  0.00  0.00    +0.000 C 
ENDBRANCH  19  21
ENDBRANCH  18  19
ENDBRANCH  17  18
ENDBRANCH  15  17
ENDBRANCH   1  16
TORSDOF 6
ENDMDL
