MODEL 1
REMARK VINA RESULT:      -6.4      0.000      0.000
REMARK  Name = 
REMARK  5 active torsions:
REMARK  status: ('A' for Active; 'I' for Inactive)
REMARK    1  A    between atoms: C_1  and  O_2
REMARK    2  A    between atoms: O_2  and  C_3
REMARK    3  A    between atoms: C_3  and  C_4
REMARK    4  A    between atoms: C_8  and  C_10
REMARK    5  A    between atoms: C_24  and  C_25
REMARK                            x       y       z     vdW  Elec       q    Type
REMARK                         _______ _______ _______ _____ _____    ______ ____
ROOT
ATOM      1  C   UNL     1       0.709   9.895  18.995  0.00  0.00    +0.000 C 
ATOM      2  C   UNL     1       1.226  11.340  19.324  0.00  0.00    +0.000 C 
ATOM      3  C   UNL     1       0.680  12.035  20.594  0.00  0.00    +0.000 C 
ATOM      4  N   UNL     1       0.062  11.150  21.565  0.00  0.00    +0.000 N 
ATOM      5  C   UNL     1      -0.730  11.545  22.667  0.00  0.00    +0.000 C 
ATOM      6  O   UNL     1      -0.963  10.764  23.592  0.00  0.00    +0.000 OA
ATOM      7  C   UNL     1       0.674   9.852  21.618  0.00  0.00    +0.000 C 
ATOM      8  C   UNL     1       0.434   9.086  20.312  0.00  0.00    +0.000 C 
ATOM      9  C   UNL     1       1.433   7.927  20.376  0.00  0.00    +0.000 C 
ATOM     10  N   UNL     1       2.217   7.982  19.177  0.00  0.00    +0.000 N 
ATOM     11  C   UNL     1       3.028   6.900  18.887  0.00  0.00    +0.000 C 
ATOM     12  C   UNL     1       3.591   6.788  17.492  0.00  0.00    +0.000 C 
ATOM     13  O   UNL     1       3.290   6.036  19.722  0.00  0.00    +0.000 OA
ATOM     14  C   UNL     1       1.715   8.974  18.246  0.00  0.00    +0.000 C 
ENDROOT
BRANCH   5  15
ATOM     15  C   UNL     1      -1.350  12.921  22.721  0.00  0.00    +0.000 A 
ATOM     16  N   UNL     1      -0.722  13.800  23.558  0.00  0.00    +0.000 NA
ATOM     17  C   UNL     1      -1.210  15.048  23.607  0.00  0.00    +0.000 A 
ATOM     18  C   UNL     1      -2.293  15.483  22.871  0.00  0.00    +0.000 A 
ATOM     19  C   UNL     1      -2.960  14.579  22.040  0.00  0.00    +0.000 A 
ATOM     20  C   UNL     1      -4.073  15.004  21.294  0.00  0.00    +0.000 A 
ATOM     21  C   UNL     1      -4.761  14.125  20.465  0.00  0.00    +0.000 A 
ATOM     22  C   UNL     1      -4.347  12.803  20.373  0.00  0.00    +0.000 A 
ATOM     23  C   UNL     1      -3.229  12.373  21.097  0.00  0.00    +0.000 A 
ATOM     24  C   UNL     1      -2.499  13.244  21.943  0.00  0.00    +0.000 A 
ENDBRANCH   5  15
BRANCH   1  25
ATOM     25  C   UNL     1      -0.466  10.156  17.983  0.00  0.00    +0.000 C 
BRANCH  25  27
ATOM     26  C   UNL     1      -2.799   9.973  17.632  0.00  0.00    +0.000 C 
ATOM     27  O   UNL     1      -1.763  10.363  18.549  0.00  0.00    +0.000 OA
ENDBRANCH  25  27
ENDBRANCH   1  25
TORSDOF 3
ENDMDL
MODEL 2
REMARK VINA RESULT:      -6.4      2.266      8.371
REMARK  Name = 
REMARK  5 active torsions:
REMARK  status: ('A' for Active; 'I' for Inactive)
REMARK    1  A    between atoms: C_1  and  O_2
REMARK    2  A    between atoms: O_2  and  C_3
REMARK    3  A    between atoms: C_3  and  C_4
REMARK    4  A    between atoms: C_8  and  C_10
REMARK    5  A    between atoms: C_24  and  C_25
REMARK                            x       y       z     vdW  Elec       q    Type
REMARK                         _______ _______ _______ _____ _____    ______ ____
ROOT
ATOM      1  C   UNL     1       0.893  11.436  19.167  0.00  0.00    +0.000 C 
ATOM      2  C   UNL     1       0.535  10.464  17.988  0.00  0.00    +0.000 C 
ATOM      3  C   UNL     1       1.031   9.001  18.078  0.00  0.00    +0.000 C 
ATOM      4  N   UNL     1       1.425   8.562  19.404  0.00  0.00    +0.000 N 
ATOM      5  C   UNL     1       2.143   7.384  19.713  0.00  0.00    +0.000 C 
ATOM      6  O   UNL     1       2.176   6.946  20.865  0.00  0.00    +0.000 OA
ATOM      7  C   UNL     1       0.650   9.162  20.453  0.00  0.00    +0.000 C 
ATOM      8  C   UNL     1       0.924  10.668  20.536  0.00  0.00    +0.000 C 
ATOM      9  C   UNL     1      -0.217  11.203  21.407  0.00  0.00    +0.000 C 
ATOM     10  N   UNL     1      -0.858  12.247  20.664  0.00  0.00    +0.000 N 
ATOM     11  C   UNL     1      -1.768  13.048  21.331  0.00  0.00    +0.000 C 
ATOM     12  C   UNL     1      -2.192  14.339  20.676  0.00  0.00    +0.000 C 
ATOM     13  O   UNL     1      -2.224  12.744  22.432  0.00  0.00    +0.000 OA
ATOM     14  C   UNL     1      -0.140  12.566  19.446  0.00  0.00    +0.000 C 
ENDROOT
BRANCH   5  15
ATOM     15  C   UNL     1       2.926   6.652  18.649  0.00  0.00    +0.000 A 
ATOM     16  N   UNL     1       3.872   7.406  18.013  0.00  0.00    +0.000 NA
ATOM     17  C   UNL     1       4.624   6.789  17.091  0.00  0.00    +0.000 A 
ATOM     18  C   UNL     1       4.495   5.457  16.755  0.00  0.00    +0.000 A 
ATOM     19  C   UNL     1       3.506   4.690  17.377  0.00  0.00    +0.000 A 
ATOM     20  C   UNL     1       3.353   3.335  17.037  0.00  0.00    +0.000 A 
ATOM     21  C   UNL     1       2.373   2.549  17.633  0.00  0.00    +0.000 A 
ATOM     22  C   UNL     1       1.526   3.111  18.579  0.00  0.00    +0.000 A 
ATOM     23  C   UNL     1       1.681   4.454  18.939  0.00  0.00    +0.000 A 
ATOM     24  C   UNL     1       2.674   5.281  18.360  0.00  0.00    +0.000 A 
ENDBRANCH   5  15
BRANCH   1  25
ATOM     25  C   UNL     1       2.191  12.160  18.653  0.00  0.00    +0.000 C 
BRANCH  25  27
ATOM     26  C   UNL     1       3.087  14.319  18.282  0.00  0.00    +0.000 C 
ATOM     27  O   UNL     1       2.005  13.417  17.997  0.00  0.00    +0.000 OA
ENDBRANCH  25  27
ENDBRANCH   1  25
TORSDOF 3
ENDMDL
MODEL 3
REMARK VINA RESULT:      -6.1      2.176      7.873
REMARK  Name = 
REMARK  5 active torsions:
REMARK  status: ('A' for Active; 'I' for Inactive)
REMARK    1  A    between atoms: C_1  and  O_2
REMARK    2  A    between atoms: O_2  and  C_3
REMARK    3  A    between atoms: C_3  and  C_4
REMARK    4  A    between atoms: C_8  and  C_10
REMARK    5  A    between atoms: C_24  and  C_25
REMARK                            x       y       z     vdW  Elec       q    Type
REMARK                         _______ _______ _______ _____ _____    ______ ____
ROOT
ATOM      1  C   UNL     1      -0.589  12.145  19.726  0.00  0.00    +0.000 C 
ATOM      2  C   UNL     1      -1.044  10.900  18.885  0.00  0.00    +0.000 C 
ATOM      3  C   UNL     1      -0.312   9.558  19.121  0.00  0.00    +0.000 C 
ATOM      4  N   UNL     1       0.441   9.473  20.360  0.00  0.00    +0.000 N 
ATOM      5  C   UNL     1       1.389   8.481  20.693  0.00  0.00    +0.000 C 
ATOM      6  O   UNL     1       1.755   8.318  21.859  0.00  0.00    +0.000 OA
ATOM      7  C   UNL     1      -0.162  10.205  21.439  0.00  0.00    +0.000 C 
ATOM      8  C   UNL     1      -0.123  11.712  21.160  0.00  0.00    +0.000 C 
ATOM      9  C   UNL     1      -1.107  12.300  22.177  0.00  0.00    +0.000 C 
ATOM     10  N   UNL     1      -2.060  13.074  21.439  0.00  0.00    +0.000 N 
ATOM     11  C   UNL     1      -2.911  13.899  22.152  0.00  0.00    +0.000 C 
ATOM     12  C   UNL     1      -3.676  14.956  21.394  0.00  0.00    +0.000 C 
ATOM     13  O   UNL     1      -3.049  13.802  23.370  0.00  0.00    +0.000 OA
ATOM     14  C   UNL     1      -1.699  13.189  20.039  0.00  0.00    +0.000 C 
ENDROOT
BRANCH   5  15
ATOM     15  C   UNL     1       2.017   7.619  19.623  0.00  0.00    +0.000 A 
ATOM     16  N   UNL     1       2.630   8.311  18.616  0.00  0.00    +0.000 NA
ATOM     17  C   UNL     1       3.241   7.590  17.665  0.00  0.00    +0.000 A 
ATOM     18  C   UNL     1       3.282   6.211  17.649  0.00  0.00    +0.000 A 
ATOM     19  C   UNL     1       2.628   5.498  18.658  0.00  0.00    +0.000 A 
ATOM     20  C   UNL     1       2.650   4.092  18.648  0.00  0.00    +0.000 A 
ATOM     21  C   UNL     1       2.002   3.356  19.633  0.00  0.00    +0.000 A 
ATOM     22  C   UNL     1       1.317   4.018  20.643  0.00  0.00    +0.000 A 
ATOM     23  C   UNL     1       1.303   5.416  20.673  0.00  0.00    +0.000 A 
ATOM     24  C   UNL     1       1.961   6.197  19.692  0.00  0.00    +0.000 A 
ENDBRANCH   5  15
BRANCH   1  25
ATOM     25  C   UNL     1       0.424  12.873  18.767  0.00  0.00    +0.000 C 
BRANCH  25  27
ATOM     26  C   UNL     1       2.693  13.438  18.403  0.00  0.00    +0.000 C 
ATOM     27  O   UNL     1       1.774  12.402  18.784  0.00  0.00    +0.000 OA
ENDBRANCH  25  27
ENDBRANCH   1  25
TORSDOF 3
ENDMDL
MODEL 4
REMARK VINA RESULT:      -6.1      2.470      8.052
REMARK  Name = 
REMARK  5 active torsions:
REMARK  status: ('A' for Active; 'I' for Inactive)
REMARK    1  A    between atoms: C_1  and  O_2
REMARK    2  A    between atoms: O_2  and  C_3
REMARK    3  A    between atoms: C_3  and  C_4
REMARK    4  A    between atoms: C_8  and  C_10
REMARK    5  A    between atoms: C_24  and  C_25
REMARK                            x       y       z     vdW  Elec       q    Type
REMARK                         _______ _______ _______ _____ _____    ______ ____
ROOT
ATOM      1  C   UNL     1       0.778  12.138  19.392  0.00  0.00    +0.000 C 
ATOM      2  C   UNL     1       0.251  11.064  18.376  0.00  0.00    +0.000 C 
ATOM      3  C   UNL     1       0.595   9.580  18.645  0.00  0.00    +0.000 C 
ATOM      4  N   UNL     1       1.020   9.280  20.000  0.00  0.00    +0.000 N 
ATOM      5  C   UNL     1       1.627   8.081  20.437  0.00  0.00    +0.000 C 
ATOM      6  O   UNL     1       1.683   7.798  21.636  0.00  0.00    +0.000 OA
ATOM      7  C   UNL     1       0.375  10.097  20.989  0.00  0.00    +0.000 C 
ATOM      8  C   UNL     1       0.810  11.560  20.851  0.00  0.00    +0.000 C 
ATOM      9  C   UNL     1      -0.215  12.330  21.690  0.00  0.00    +0.000 C 
ATOM     10  N   UNL     1      -0.786  13.331  20.839  0.00  0.00    +0.000 N 
ATOM     11  C   UNL     1      -1.566  14.310  21.428  0.00  0.00    +0.000 C 
ATOM     12  C   UNL     1      -1.891  15.542  20.621  0.00  0.00    +0.000 C 
ATOM     13  O   UNL     1      -1.985  14.208  22.580  0.00  0.00    +0.000 OA
ATOM     14  C   UNL     1      -0.112  13.404  19.557  0.00  0.00    +0.000 C 
ENDROOT
BRANCH   5  15
ATOM     15  C   UNL     1       2.264   7.131  19.450  0.00  0.00    +0.000 A 
ATOM     16  N   UNL     1       3.033   7.731  18.493  0.00  0.00    +0.000 NA
ATOM     17  C   UNL     1       3.657   6.926  17.620  0.00  0.00    +0.000 A 
ATOM     18  C   UNL     1       3.564   5.550  17.637  0.00  0.00    +0.000 A 
ATOM     19  C   UNL     1       2.752   4.933  18.593  0.00  0.00    +0.000 A 
ATOM     20  C   UNL     1       2.637   3.532  18.616  0.00  0.00    +0.000 A 
ATOM     21  C   UNL     1       1.830   2.891  19.550  0.00  0.00    +0.000 A 
ATOM     22  C   UNL     1       1.122   3.646  20.475  0.00  0.00    +0.000 A 
ATOM     23  C   UNL     1       1.242   5.040  20.474  0.00  0.00    +0.000 A 
ATOM     24  C   UNL     1       2.062   5.724  19.544  0.00  0.00    +0.000 A 
ENDBRANCH   5  15
BRANCH   1  25
ATOM     25  C   UNL     1       2.112  12.638  18.725  0.00  0.00    +0.000 C 
BRANCH  25  27
ATOM     26  C   UNL     1       3.282  14.600  18.108  0.00  0.00    +0.000 C 
ATOM     27  O   UNL     1       2.618  13.898  19.172  0.00  0.00    +0.000 OA
ENDBRANCH  25  27
ENDBRANCH   1  25
TORSDOF 3
ENDMDL
MODEL 5
REMARK VINA RESULT:      -6.0      7.015     10.048
REMARK  Name = 
REMARK  5 active torsions:
REMARK  status: ('A' for Active; 'I' for Inactive)
REMARK    1  A    between atoms: C_1  and  O_2
REMARK    2  A    between atoms: O_2  and  C_3
REMARK    3  A    between atoms: C_3  and  C_4
REMARK    4  A    between atoms: C_8  and  C_10
REMARK    5  A    between atoms: C_24  and  C_25
REMARK                            x       y       z     vdW  Elec       q    Type
REMARK                         _______ _______ _______ _____ _____    ______ ____
ROOT
ATOM      1  C   UNL     1       3.096  14.983  18.961  0.00  0.00    +0.000 C 
ATOM      2  C   UNL     1       3.668  15.045  20.421  0.00  0.00    +0.000 C 
ATOM      3  C   UNL     1       5.200  15.168  20.596  0.00  0.00    +0.000 C 
ATOM      4  N   UNL     1       5.923  15.615  19.419  0.00  0.00    +0.000 N 
ATOM      5  C   UNL     1       7.322  15.566  19.232  0.00  0.00    +0.000 C 
ATOM      6  O   UNL     1       7.867  16.226  18.344  0.00  0.00    +0.000 OA
ATOM      7  C   UNL     1       5.177  16.542  18.616  0.00  0.00    +0.000 C 
ATOM      8  C   UNL     1       3.960  15.856  17.984  0.00  0.00    +0.000 C 
ATOM      9  C   UNL     1       3.093  17.021  17.495  0.00  0.00    +0.000 C 
ATOM     10  N   UNL     1       1.794  16.848  18.073  0.00  0.00    +0.000 N 
ATOM     11  C   UNL     1       0.765  17.639  17.594  0.00  0.00    +0.000 C 
ATOM     12  C   UNL     1      -0.651  17.248  17.938  0.00  0.00    +0.000 C 
ATOM     13  O   UNL     1       0.971  18.630  16.897  0.00  0.00    +0.000 OA
ATOM     14  C   UNL     1       1.673  15.582  18.769  0.00  0.00    +0.000 C 
ENDROOT
BRANCH   5  15
ATOM     15  C   UNL     1       8.187  14.669  20.086  0.00  0.00    +0.000 A 
ATOM     16  N   UNL     1       8.421  15.132  21.350  0.00  0.00    +0.000 NA
ATOM     17  C   UNL     1       9.148  14.350  22.161  0.00  0.00    +0.000 A 
ATOM     18  C   UNL     1       9.662  13.124  21.793  0.00  0.00    +0.000 A 
ATOM     19  C   UNL     1       9.454  12.660  20.491  0.00  0.00    +0.000 A 
ATOM     20  C   UNL     1       9.983  11.419  20.097  0.00  0.00    +0.000 A 
ATOM     21  C   UNL     1       9.800  10.936  18.806  0.00  0.00    +0.000 A 
ATOM     22  C   UNL     1       9.086  11.692  17.887  0.00  0.00    +0.000 A 
ATOM     23  C   UNL     1       8.540  12.921  18.272  0.00  0.00    +0.000 A 
ATOM     24  C   UNL     1       8.698  13.439  19.581  0.00  0.00    +0.000 A 
ENDBRANCH   5  15
BRANCH   1  25
ATOM     25  C   UNL     1       2.949  13.439  18.699  0.00  0.00    +0.000 C 
BRANCH  25  27
ATOM     26  C   UNL     1       1.285  11.994  19.561  0.00  0.00    +0.000 C 
ATOM     27  O   UNL     1       1.619  12.942  18.533  0.00  0.00    +0.000 OA
ENDBRANCH  25  27
ENDBRANCH   1  25
TORSDOF 3
ENDMDL
MODEL 6
REMARK VINA RESULT:      -5.9      1.507      1.796
REMARK  Name = 
REMARK  5 active torsions:
REMARK  status: ('A' for Active; 'I' for Inactive)
REMARK    1  A    between atoms: C_1  and  O_2
REMARK    2  A    between atoms: O_2  and  C_3
REMARK    3  A    between atoms: C_3  and  C_4
REMARK    4  A    between atoms: C_8  and  C_10
REMARK    5  A    between atoms: C_24  and  C_25
REMARK                            x       y       z     vdW  Elec       q    Type
REMARK                         _______ _______ _______ _____ _____    ______ ____
ROOT
ATOM      1  C   UNL     1      -0.579  10.780  18.902  0.00  0.00    +0.000 C 
ATOM      2  C   UNL     1      -0.280  12.299  19.159  0.00  0.00    +0.000 C 
ATOM      3  C   UNL     1      -0.926  12.966  20.397  0.00  0.00    +0.000 C 
ATOM      4  N   UNL     1      -1.411  12.048  21.412  0.00  0.00    +0.000 N 
ATOM      5  C   UNL     1      -2.255  12.375  22.497  0.00  0.00    +0.000 C 
ATOM      6  O   UNL     1      -2.375  11.614  23.459  0.00  0.00    +0.000 OA
ATOM      7  C   UNL     1      -0.616  10.857  21.524  0.00  0.00    +0.000 C 
ATOM      8  C   UNL     1      -0.738  10.003  20.256  0.00  0.00    +0.000 C 
ATOM      9  C   UNL     1       0.421   9.007  20.372  0.00  0.00    +0.000 C 
ATOM     10  N   UNL     1       1.191   9.119  19.168  0.00  0.00    +0.000 N 
ATOM     11  C   UNL     1       2.153   8.155  18.927  0.00  0.00    +0.000 C 
ATOM     12  C   UNL     1       2.731   8.059  17.537  0.00  0.00    +0.000 C 
ATOM     13  O   UNL     1       2.536   7.379  19.801  0.00  0.00    +0.000 OA
ATOM     14  C   UNL     1       0.553   9.981  18.193  0.00  0.00    +0.000 C 
ENDROOT
BRANCH   5  15
ATOM     15  C   UNL     1      -3.070  13.646  22.488  0.00  0.00    +0.000 A 
ATOM     16  N   UNL     1      -2.478  14.711  23.106  0.00  0.00    +0.000 NA
ATOM     17  C   UNL     1      -3.143  15.875  23.086  0.00  0.00    +0.000 A 
ATOM     18  C   UNL     1      -4.373  16.050  22.486  0.00  0.00    +0.000 A 
ATOM     19  C   UNL     1      -4.999  14.956  21.882  0.00  0.00    +0.000 A 
ATOM     20  C   UNL     1      -6.258  15.116  21.277  0.00  0.00    +0.000 A 
ATOM     21  C   UNL     1      -6.909  14.045  20.676  0.00  0.00    +0.000 A 
ATOM     22  C   UNL     1      -6.309  12.792  20.675  0.00  0.00    +0.000 A 
ATOM     23  C   UNL     1      -5.048  12.625  21.258  0.00  0.00    +0.000 A 
ATOM     24  C   UNL     1      -4.352  13.697  21.870  0.00  0.00    +0.000 A 
ENDBRANCH   5  15
BRANCH   1  25
ATOM     25  C   UNL     1      -1.777  10.818  17.883  0.00  0.00    +0.000 C 
BRANCH  25  27
ATOM     26  C   UNL     1      -2.668  10.066  15.824  0.00  0.00    +0.000 C 
ATOM     27  O   UNL     1      -1.879   9.719  16.974  0.00  0.00    +0.000 OA
ENDBRANCH  25  27
ENDBRANCH   1  25
TORSDOF 3
ENDMDL
MODEL 7
REMARK VINA RESULT:      -5.7      1.208      1.270
REMARK  Name = 
REMARK  5 active torsions:
REMARK  status: ('A' for Active; 'I' for Inactive)
REMARK    1  A    between atoms: C_1  and  O_2
REMARK    2  A    between atoms: O_2  and  C_3
REMARK    3  A    between atoms: C_3  and  C_4
REMARK    4  A    between atoms: C_8  and  C_10
REMARK    5  A    between atoms: C_24  and  C_25
REMARK                            x       y       z     vdW  Elec       q    Type
REMARK                         _______ _______ _______ _____ _____    ______ ____
ROOT
ATOM      1  C   UNL     1       0.790   9.815  18.854  0.00  0.00    +0.000 C 
ATOM      2  C   UNL     1       1.343  11.270  19.058  0.00  0.00    +0.000 C 
ATOM      3  C   UNL     1       0.875  12.055  20.307  0.00  0.00    +0.000 C 
ATOM      4  N   UNL     1       0.299  11.246  21.366  0.00  0.00    +0.000 N 
ATOM      5  C   UNL     1      -0.427  11.725  22.480  0.00  0.00    +0.000 C 
ATOM      6  O   UNL     1      -0.620  11.010  23.466  0.00  0.00    +0.000 OA
ATOM      7  C   UNL     1       0.896   9.944  21.472  0.00  0.00    +0.000 C 
ATOM      8  C   UNL     1       0.576   9.099  20.233  0.00  0.00    +0.000 C 
ATOM      9  C   UNL     1       1.562   7.930  20.321  0.00  0.00    +0.000 C 
ATOM     10  N   UNL     1       2.281   7.894  19.081  0.00  0.00    +0.000 N 
ATOM     11  C   UNL     1       3.062   6.783  18.821  0.00  0.00    +0.000 C 
ATOM     12  C   UNL     1       3.547   6.570  17.409  0.00  0.00    +0.000 C 
ATOM     13  O   UNL     1       3.357   5.970  19.696  0.00  0.00    +0.000 OA
ATOM     14  C   UNL     1       1.743   8.831  18.115  0.00  0.00    +0.000 C 
ENDROOT
BRANCH   5  15
ATOM     15  C   UNL     1      -1.026  13.111  22.476  0.00  0.00    +0.000 A 
ATOM     16  N   UNL     1      -0.191  14.095  22.027  0.00  0.00    +0.000 NA
ATOM     17  C   UNL     1      -0.692  15.337  21.963  0.00  0.00    +0.000 A 
ATOM     18  C   UNL     1      -1.982  15.668  22.321  0.00  0.00    +0.000 A 
ATOM     19  C   UNL     1      -2.830  14.672  22.813  0.00  0.00    +0.000 A 
ATOM     20  C   UNL     1      -4.144  14.995  23.194  0.00  0.00    +0.000 A 
ATOM     21  C   UNL     1      -5.008  14.028  23.694  0.00  0.00    +0.000 A 
ATOM     22  C   UNL     1      -4.566  12.718  23.825  0.00  0.00    +0.000 A 
ATOM     23  C   UNL     1      -3.266  12.380  23.432  0.00  0.00    +0.000 A 
ATOM     24  C   UNL     1      -2.364  13.338  22.909  0.00  0.00    +0.000 A 
ENDBRANCH   5  15
BRANCH   1  25
ATOM     25  C   UNL     1      -0.435  10.029  17.890  0.00  0.00    +0.000 C 
BRANCH  25  27
ATOM     26  C   UNL     1      -2.230  11.562  18.050  0.00  0.00    +0.000 C 
ATOM     27  O   UNL     1      -1.693  10.311  18.508  0.00  0.00    +0.000 OA
ENDBRANCH  25  27
ENDBRANCH   1  25
TORSDOF 3
ENDMDL
MODEL 8
REMARK VINA RESULT:      -5.7      2.144      7.767
REMARK  Name = 
REMARK  5 active torsions:
REMARK  status: ('A' for Active; 'I' for Inactive)
REMARK    1  A    between atoms: C_1  and  O_2
REMARK    2  A    between atoms: O_2  and  C_3
REMARK    3  A    between atoms: C_3  and  C_4
REMARK    4  A    between atoms: C_8  and  C_10
REMARK    5  A    between atoms: C_24  and  C_25
REMARK                            x       y       z     vdW  Elec       q    Type
REMARK                         _______ _______ _______ _____ _____    ______ ____
ROOT
ATOM      1  C   UNL     1      -1.405  13.060  20.771  0.00  0.00    +0.000 C 
ATOM      2  C   UNL     1      -1.839  11.889  19.820  0.00  0.00    +0.000 C 
ATOM      3  C   UNL     1      -0.978  10.603  19.812  0.00  0.00    +0.000 C 
ATOM      4  N   UNL     1      -0.101  10.440  20.957  0.00  0.00    +0.000 N 
ATOM      5  C   UNL     1       0.956   9.509  21.071  0.00  0.00    +0.000 C 
ATOM      6  O   UNL     1       1.450   9.241  22.169  0.00  0.00    +0.000 OA
ATOM      7  C   UNL     1      -0.649  10.975  22.171  0.00  0.00    +0.000 C 
ATOM      8  C   UNL     1      -0.763  12.502  22.089  0.00  0.00    +0.000 C 
ATOM      9  C   UNL     1      -1.684  12.866  23.258  0.00  0.00    +0.000 C 
ATOM     10  N   UNL     1      -2.767  13.631  22.715  0.00  0.00    +0.000 N 
ATOM     11  C   UNL     1      -3.606  14.279  23.603  0.00  0.00    +0.000 C 
ATOM     12  C   UNL     1      -4.529  15.343  23.061  0.00  0.00    +0.000 C 
ATOM     13  O   UNL     1      -3.612  14.022  24.806  0.00  0.00    +0.000 OA
ATOM     14  C   UNL     1      -2.560  13.948  21.316  0.00  0.00    +0.000 C 
ENDROOT
BRANCH   5  15
ATOM     15  C   UNL     1       1.541   8.847  19.846  0.00  0.00    +0.000 A 
ATOM     16  N   UNL     1       1.776   9.690  18.796  0.00  0.00    +0.000 NA
ATOM     17  C   UNL     1       2.337   9.157  17.701  0.00  0.00    +0.000 A 
ATOM     18  C   UNL     1       2.681   7.827  17.580  0.00  0.00    +0.000 A 
ATOM     19  C   UNL     1       2.412   6.954  18.637  0.00  0.00    +0.000 A 
ATOM     20  C   UNL     1       2.746   5.593  18.525  0.00  0.00    +0.000 A 
ATOM     21  C   UNL     1       2.483   4.699  19.556  0.00  0.00    +0.000 A 
ATOM     22  C   UNL     1       1.876   5.155  20.719  0.00  0.00    +0.000 A 
ATOM     23  C   UNL     1       1.555   6.511  20.850  0.00  0.00    +0.000 A 
ATOM     24  C   UNL     1       1.819   7.450  19.823  0.00  0.00    +0.000 A 
ENDBRANCH   5  15
BRANCH   1  25
ATOM     25  C   UNL     1      -0.558  13.992  19.827  0.00  0.00    +0.000 C 
BRANCH  25  27
ATOM     26  C   UNL     1       1.128  15.621  20.144  0.00  0.00    +0.000 C 
ATOM     27  O   UNL     1       0.800  14.223  20.209  0.00  0.00    +0.000 OA
ENDBRANCH  25  27
ENDBRANCH   1  25
TORSDOF 3
ENDMDL
MODEL 9
REMARK VINA RESULT:      -5.7      7.663     10.153
REMARK  Name = 
REMARK  5 active torsions:
REMARK  status: ('A' for Active; 'I' for Inactive)
REMARK    1  A    between atoms: C_1  and  O_2
REMARK    2  A    between atoms: O_2  and  C_3
REMARK    3  A    between atoms: C_3  and  C_4
REMARK    4  A    between atoms: C_8  and  C_10
REMARK    5  A    between atoms: C_24  and  C_25
REMARK                            x       y       z     vdW  Elec       q    Type
REMARK                         _______ _______ _______ _____ _____    ______ ____
ROOT
ATOM      1  C   UNL     1       3.204  15.459  18.870  0.00  0.00    +0.000 C 
ATOM      2  C   UNL     1       4.199  14.994  17.748  0.00  0.00    +0.000 C 
ATOM      3  C   UNL     1       5.716  15.115  18.027  0.00  0.00    +0.000 C 
ATOM      4  N   UNL     1       6.077  15.264  19.425  0.00  0.00    +0.000 N 
ATOM      5  C   UNL     1       7.343  15.646  19.922  0.00  0.00    +0.000 C 
ATOM      6  O   UNL     1       7.642  15.463  21.104  0.00  0.00    +0.000 OA
ATOM      7  C   UNL     1       5.199  14.558  20.315  0.00  0.00    +0.000 C 
ATOM      8  C   UNL     1       3.796  15.175  20.295  0.00  0.00    +0.000 C 
ATOM      9  C   UNL     1       2.919  14.116  20.971  0.00  0.00    +0.000 C 
ATOM     10  N   UNL     1       1.849  13.817  20.065  0.00  0.00    +0.000 N 
ATOM     11  C   UNL     1       0.791  13.066  20.544  0.00  0.00    +0.000 C 
ATOM     12  C   UNL     1      -0.478  13.027  19.730  0.00  0.00    +0.000 C 
ATOM     13  O   UNL     1       0.854  12.447  21.604  0.00  0.00    +0.000 OA
ATOM     14  C   UNL     1       1.844  14.705  18.919  0.00  0.00    +0.000 C 
ENDROOT
BRANCH   5  15
ATOM     15  C   UNL     1       8.352  16.330  19.030  0.00  0.00    +0.000 A 
ATOM     16  N   UNL     1       8.240  17.691  18.976  0.00  0.00    +0.000 NA
ATOM     17  C   UNL     1       9.141  18.348  18.232  0.00  0.00    +0.000 A 
ATOM     18  C   UNL     1      10.157  17.734  17.530  0.00  0.00    +0.000 A 
ATOM     19  C   UNL     1      10.256  16.340  17.554  0.00  0.00    +0.000 A 
ATOM     20  C   UNL     1      11.278  15.697  16.833  0.00  0.00    +0.000 A 
ATOM     21  C   UNL     1      11.397  14.313  16.832  0.00  0.00    +0.000 A 
ATOM     22  C   UNL     1      10.489  13.547  17.551  0.00  0.00    +0.000 A 
ATOM     23  C   UNL     1       9.478  14.175  18.286  0.00  0.00    +0.000 A 
ATOM     24  C   UNL     1       9.334  15.584  18.318  0.00  0.00    +0.000 A 
ENDBRANCH   5  15
BRANCH   1  25
ATOM     25  C   UNL     1       2.859  16.936  18.453  0.00  0.00    +0.000 C 
BRANCH  25  27
ATOM     26  C   UNL     1       1.698  17.883  16.621  0.00  0.00    +0.000 C 
ATOM     27  O   UNL     1       2.904  17.234  17.055  0.00  0.00    +0.000 OA
ENDBRANCH  25  27
ENDBRANCH   1  25
TORSDOF 3
ENDMDL
