MODEL 1
REMARK VINA RESULT:      -7.7      0.000      0.000
REMARK  Name = 
REMARK  4 active torsions:
REMARK  status: ('A' for Active; 'I' for Inactive)
REMARK    1  A    between atoms: C_7  and  C_8
REMARK    2  A    between atoms: C_14  and  C_16
REMARK    3  A    between atoms: C_16  and  C_17
REMARK    4  A    between atoms: C_20  and  N_21
REMARK                            x       y       z     vdW  Elec       q    Type
REMARK                         _______ _______ _______ _____ _____    ______ ____
ROOT
ATOM      1  C   UNL     1      -2.260  12.420  18.283  0.00  0.00    +0.000 C 
ATOM      2  C   UNL     1      -0.911  12.566  19.044  0.00  0.00    +0.000 C 
ATOM      3  N   UNL     1      -0.719  11.412  19.928  0.00  0.00    +0.000 NA
ATOM      4  C   UNL     1       0.444  11.507  20.816  0.00  0.00    +0.000 C 
ATOM      5  C   UNL     1       0.441  10.327  21.808  0.00  0.00    +0.000 C 
ATOM      6  N   UNL     1       0.367   9.044  21.100  0.00  0.00    +0.000 N 
ATOM      7  C   UNL     1       1.378   8.117  21.267  0.00  0.00    +0.000 C 
ATOM      8  O   UNL     1       2.350   8.333  21.996  0.00  0.00    +0.000 OA
ATOM      9  C   UNL     1      -0.744   8.958  20.140  0.00  0.00    +0.000 C 
ATOM     10  C   UNL     1      -0.721  10.151  19.155  0.00  0.00    +0.000 C 
ATOM     11  C   UNL     1      -1.923  10.047  18.185  0.00  0.00    +0.000 C 
ATOM     12  O   UNL     1      -2.188  11.246  17.441  0.00  0.00    +0.000 OA
ENDROOT
BRANCH   1  19
ATOM     13  O   UNL     1      -7.362  12.277  22.547  0.00  0.00    +0.000 OA
ATOM     14  C   UNL     1      -7.077  12.033  21.396  0.00  0.00    +0.000 C 
ATOM     15  O   UNL     1      -7.888  11.481  20.445  0.00  0.00    +0.000 OA
ATOM     16  C   UNL     1      -7.219  11.337  19.171  0.00  0.00    +0.000 C 
ATOM     17  C   UNL     1      -5.849  11.816  19.443  0.00  0.00    +0.000 A 
ATOM     18  C   UNL     1      -4.726  11.872  18.624  0.00  0.00    +0.000 A 
ATOM     19  C   UNL     1      -3.533  12.416  19.142  0.00  0.00    +0.000 A 
ATOM     20  C   UNL     1      -3.542  12.926  20.465  0.00  0.00    +0.000 A 
ATOM     21  C   UNL     1      -4.663  12.827  21.289  0.00  0.00    +0.000 A 
ATOM     22  C   UNL     1      -5.793  12.262  20.746  0.00  0.00    +0.000 A 
ENDBRANCH   1  19
BRANCH   7  23
ATOM     23  C   UNL     1       1.292   6.805  20.498  0.00  0.00    +0.000 C 
BRANCH  23  24
ATOM     24  C   UNL     1       2.500   6.582  19.620  0.00  0.00    +0.000 A 
ATOM     25  C   UNL     1       2.665   7.339  18.452  0.00  0.00    +0.000 A 
ATOM     26  C   UNL     1       3.748   7.108  17.602  0.00  0.00    +0.000 A 
ATOM     27  C   UNL     1       4.675   6.104  17.909  0.00  0.00    +0.000 A 
ATOM     28  C   UNL     1       4.525   5.354  19.083  0.00  0.00    +0.000 A 
ATOM     29  C   UNL     1       3.452   5.607  19.938  0.00  0.00    +0.000 A 
BRANCH  27  30
ATOM     30  N   UNL     1       5.748   5.829  17.032  0.00  0.00    +0.000 N 
ATOM     31  C   UNL     1       6.072   4.656  16.399  0.00  0.00    +0.000 A 
ATOM     32  N   UNL     1       7.184   4.820  15.722  0.00  0.00    +0.000 NA
ATOM     33  N   UNL     1       7.551   6.125  15.921  0.00  0.00    +0.000 NA
ATOM     34  N   UNL     1       6.681   6.752  16.701  0.00  0.00    +0.000 NA
ENDBRANCH  27  30
ENDBRANCH  23  24
ENDBRANCH   7  23
TORSDOF 4
ENDMDL
MODEL 2
REMARK VINA RESULT:      -7.0      1.358      1.790
REMARK  Name = 
REMARK  4 active torsions:
REMARK  status: ('A' for Active; 'I' for Inactive)
REMARK    1  A    between atoms: C_7  and  C_8
REMARK    2  A    between atoms: C_14  and  C_16
REMARK    3  A    between atoms: C_16  and  C_17
REMARK    4  A    between atoms: C_20  and  N_21
REMARK                            x       y       z     vdW  Elec       q    Type
REMARK                         _______ _______ _______ _____ _____    ______ ____
ROOT
ATOM      1  C   UNL     1      -1.662  13.992  20.994  0.00  0.00    +0.000 C 
ATOM      2  C   UNL     1      -0.663  13.195  21.881  0.00  0.00    +0.000 C 
ATOM      3  N   UNL     1      -0.679  11.782  21.489  0.00  0.00    +0.000 NA
ATOM      4  C   UNL     1       0.107  10.898  22.355  0.00  0.00    +0.000 C 
ATOM      5  C   UNL     1      -0.124   9.429  21.947  0.00  0.00    +0.000 C 
ATOM      6  N   UNL     1       0.155   9.227  20.521  0.00  0.00    +0.000 N 
ATOM      7  C   UNL     1       1.129   8.323  20.142  0.00  0.00    +0.000 C 
ATOM      8  O   UNL     1       1.778   7.675  20.967  0.00  0.00    +0.000 OA
ATOM      9  C   UNL     1      -0.559  10.161  19.638  0.00  0.00    +0.000 C 
ATOM     10  C   UNL     1      -0.312  11.628  20.064  0.00  0.00    +0.000 C 
ATOM     11  C   UNL     1      -1.106  12.579  19.136  0.00  0.00    +0.000 C 
ATOM     12  O   UNL     1      -1.210  13.927  19.621  0.00  0.00    +0.000 OA
ENDROOT
BRANCH   1  19
ATOM     13  O   UNL     1      -7.891  11.913  22.046  0.00  0.00    +0.000 OA
ATOM     14  C   UNL     1      -7.149  12.287  21.165  0.00  0.00    +0.000 C 
ATOM     15  O   UNL     1      -7.421  12.350  19.827  0.00  0.00    +0.000 OA
ATOM     16  C   UNL     1      -6.302  12.853  19.063  0.00  0.00    +0.000 C 
ATOM     17  C   UNL     1      -5.250  13.053  20.080  0.00  0.00    +0.000 A 
ATOM     18  C   UNL     1      -3.929  13.470  19.952  0.00  0.00    +0.000 A 
ATOM     19  C   UNL     1      -3.144  13.606  21.115  0.00  0.00    +0.000 A 
ATOM     20  C   UNL     1      -3.749  13.357  22.372  0.00  0.00    +0.000 A 
ATOM     21  C   UNL     1      -5.062  12.900  22.483  0.00  0.00    +0.000 A 
ATOM     22  C   UNL     1      -5.777  12.755  21.318  0.00  0.00    +0.000 A 
ENDBRANCH   1  19
BRANCH   7  23
ATOM     23  C   UNL     1       1.420   8.153  18.656  0.00  0.00    +0.000 C 
BRANCH  23  24
ATOM     24  C   UNL     1       2.732   7.448  18.412  0.00  0.00    +0.000 A 
ATOM     25  C   UNL     1       3.603   7.915  17.418  0.00  0.00    +0.000 A 
ATOM     26  C   UNL     1       4.795   7.243  17.145  0.00  0.00    +0.000 A 
ATOM     27  C   UNL     1       5.124   6.084  17.859  0.00  0.00    +0.000 A 
ATOM     28  C   UNL     1       4.266   5.621  18.865  0.00  0.00    +0.000 A 
ATOM     29  C   UNL     1       3.087   6.311  19.147  0.00  0.00    +0.000 A 
BRANCH  27  30
ATOM     30  N   UNL     1       6.304   5.368  17.558  0.00  0.00    +0.000 N 
ATOM     31  C   UNL     1       6.808   5.000  16.337  0.00  0.00    +0.000 A 
ATOM     32  N   UNL     1       7.900   4.292  16.512  0.00  0.00    +0.000 NA
ATOM     33  N   UNL     1       8.091   4.235  17.866  0.00  0.00    +0.000 NA
ATOM     34  N   UNL     1       7.140   4.896  18.512  0.00  0.00    +0.000 NA
ENDBRANCH  27  30
ENDBRANCH  23  24
ENDBRANCH   7  23
TORSDOF 4
ENDMDL
MODEL 3
REMARK VINA RESULT:      -6.9      6.260     11.895
REMARK  Name = 
REMARK  4 active torsions:
REMARK  status: ('A' for Active; 'I' for Inactive)
REMARK    1  A    between atoms: C_7  and  C_8
REMARK    2  A    between atoms: C_14  and  C_16
REMARK    3  A    between atoms: C_16  and  C_17
REMARK    4  A    between atoms: C_20  and  N_21
REMARK                            x       y       z     vdW  Elec       q    Type
REMARK                         _______ _______ _______ _____ _____    ______ ____
ROOT
ATOM      1  C   UNL     1       5.672  16.689  18.733  0.00  0.00    +0.000 C 
ATOM      2  C   UNL     1       4.461  16.122  17.938  0.00  0.00    +0.000 C 
ATOM      3  N   UNL     1       3.819  15.057  18.714  0.00  0.00    +0.000 NA
ATOM      4  C   UNL     1       2.757  14.336  18.005  0.00  0.00    +0.000 C 
ATOM      5  C   UNL     1       2.282  13.141  18.855  0.00  0.00    +0.000 C 
ATOM      6  N   UNL     1       1.879  13.574  20.196  0.00  0.00    +0.000 N 
ATOM      7  C   UNL     1       0.586  13.342  20.626  0.00  0.00    +0.000 C 
ATOM      8  O   UNL     1      -0.249  12.778  19.913  0.00  0.00    +0.000 OA
ATOM      9  C   UNL     1       2.899  14.372  20.894  0.00  0.00    +0.000 C 
ATOM     10  C   UNL     1       3.360  15.566  20.025  0.00  0.00    +0.000 C 
ATOM     11  C   UNL     1       4.457  16.361  20.775  0.00  0.00    +0.000 C 
ATOM     12  O   UNL     1       5.180  17.290  19.953  0.00  0.00    +0.000 OA
ENDROOT
BRANCH   1  19
ATOM     13  O   UNL     1      11.012  13.004  20.196  0.00  0.00    +0.000 OA
ATOM     14  C   UNL     1      10.086  13.070  19.418  0.00  0.00    +0.000 C 
ATOM     15  O   UNL     1       9.851  12.260  18.343  0.00  0.00    +0.000 OA
ATOM     16  C   UNL     1       8.644  12.624  17.636  0.00  0.00    +0.000 C 
ATOM     17  C   UNL     1       8.162  13.814  18.363  0.00  0.00    +0.000 A 
ATOM     18  C   UNL     1       7.072  14.646  18.126  0.00  0.00    +0.000 A 
ATOM     19  C   UNL     1       6.823  15.711  19.015  0.00  0.00    +0.000 A 
ATOM     20  C   UNL     1       7.669  15.861  20.143  0.00  0.00    +0.000 A 
ATOM     21  C   UNL     1       8.781  15.046  20.347  0.00  0.00    +0.000 A 
ATOM     22  C   UNL     1       8.998  14.040  19.436  0.00  0.00    +0.000 A 
ENDBRANCH   1  19
BRANCH   7  23
ATOM     23  C   UNL     1       0.185  13.828  22.012  0.00  0.00    +0.000 C 
BRANCH  23  24
ATOM     24  C   UNL     1      -1.266  13.540  22.317  0.00  0.00    +0.000 A 
ATOM     25  C   UNL     1      -1.609  12.432  23.104  0.00  0.00    +0.000 A 
ATOM     26  C   UNL     1      -2.948  12.123  23.350  0.00  0.00    +0.000 A 
ATOM     27  C   UNL     1      -3.961  12.917  22.800  0.00  0.00    +0.000 A 
ATOM     28  C   UNL     1      -3.625  14.035  22.026  0.00  0.00    +0.000 A 
ATOM     29  C   UNL     1      -2.284  14.351  21.803  0.00  0.00    +0.000 A 
BRANCH  27  30
ATOM     30  N   UNL     1      -5.320  12.586  23.003  0.00  0.00    +0.000 N 
ATOM     31  C   UNL     1      -6.053  12.603  24.162  0.00  0.00    +0.000 A 
ATOM     32  N   UNL     1      -7.265  12.163  23.917  0.00  0.00    +0.000 NA
ATOM     33  N   UNL     1      -7.294  11.886  22.576  0.00  0.00    +0.000 NA
ATOM     34  N   UNL     1      -6.126  12.152  22.007  0.00  0.00    +0.000 NA
ENDBRANCH  27  30
ENDBRANCH  23  24
ENDBRANCH   7  23
TORSDOF 4
ENDMDL
MODEL 4
REMARK VINA RESULT:      -6.9      5.831      8.044
REMARK  Name = 
REMARK  4 active torsions:
REMARK  status: ('A' for Active; 'I' for Inactive)
REMARK    1  A    between atoms: C_7  and  C_8
REMARK    2  A    between atoms: C_14  and  C_16
REMARK    3  A    between atoms: C_16  and  C_17
REMARK    4  A    between atoms: C_20  and  N_21
REMARK                            x       y       z     vdW  Elec       q    Type
REMARK                         _______ _______ _______ _____ _____    ______ ____
ROOT
ATOM      1  C   UNL     1      -0.637  12.526  19.546  0.00  0.00    +0.000 C 
ATOM      2  C   UNL     1      -0.288  13.556  20.657  0.00  0.00    +0.000 C 
ATOM      3  N   UNL     1       1.161  13.781  20.680  0.00  0.00    +0.000 NA
ATOM      4  C   UNL     1       1.634  14.617  21.788  0.00  0.00    +0.000 C 
ATOM      5  C   UNL     1       3.176  14.638  21.803  0.00  0.00    +0.000 C 
ATOM      6  N   UNL     1       3.710  15.057  20.503  0.00  0.00    +0.000 N 
ATOM      7  C   UNL     1       4.511  16.181  20.429  0.00  0.00    +0.000 C 
ATOM      8  O   UNL     1       4.794  16.851  21.427  0.00  0.00    +0.000 OA
ATOM      9  C   UNL     1       3.183  14.287  19.367  0.00  0.00    +0.000 C 
ATOM     10  C   UNL     1       1.636  14.280  19.370  0.00  0.00    +0.000 C 
ATOM     11  C   UNL     1       1.118  13.431  18.184  0.00  0.00    +0.000 C 
ATOM     12  O   UNL     1      -0.275  13.091  18.264  0.00  0.00    +0.000 OA
ENDROOT
BRANCH   1  19
ATOM     13  O   UNL     1       1.912   6.549  20.965  0.00  0.00    +0.000 OA
ATOM     14  C   UNL     1       1.864   7.378  20.084  0.00  0.00    +0.000 C 
ATOM     15  O   UNL     1       2.512   7.342  18.881  0.00  0.00    +0.000 OA
ATOM     16  C   UNL     1       2.220   8.500  18.066  0.00  0.00    +0.000 C 
ATOM     17  C   UNL     1       1.343   9.317  18.928  0.00  0.00    +0.000 A 
ATOM     18  C   UNL     1       0.777  10.571  18.721  0.00  0.00    +0.000 A 
ATOM     19  C   UNL     1      -0.061  11.112  19.718  0.00  0.00    +0.000 A 
ATOM     20  C   UNL     1      -0.329  10.332  20.871  0.00  0.00    +0.000 A 
ATOM     21  C   UNL     1       0.277   9.095  21.084  0.00  0.00    +0.000 A 
ATOM     22  C   UNL     1       1.109   8.624  20.096  0.00  0.00    +0.000 A 
ENDBRANCH   1  19
BRANCH   7  23
ATOM     23  C   UNL     1       5.030  16.613  19.064  0.00  0.00    +0.000 C 
BRANCH  23  24
ATOM     24  C   UNL     1       6.363  15.984  18.738  0.00  0.00    +0.000 A 
ATOM     25  C   UNL     1       7.545  16.558  19.226  0.00  0.00    +0.000 A 
ATOM     26  C   UNL     1       8.788  16.019  18.890  0.00  0.00    +0.000 A 
ATOM     27  C   UNL     1       8.862  14.903  18.049  0.00  0.00    +0.000 A 
ATOM     28  C   UNL     1       7.684  14.314  17.570  0.00  0.00    +0.000 A 
ATOM     29  C   UNL     1       6.444  14.845  17.929  0.00  0.00    +0.000 A 
BRANCH  27  30
ATOM     30  N   UNL     1      10.116  14.378  17.663  0.00  0.00    +0.000 N 
ATOM     31  C   UNL     1      10.505  13.070  17.530  0.00  0.00    +0.000 A 
ATOM     32  N   UNL     1      11.777  13.025  17.209  0.00  0.00    +0.000 NA
ATOM     33  N   UNL     1      12.183  14.329  17.121  0.00  0.00    +0.000 NA
ATOM     34  N   UNL     1      11.183  15.160  17.379  0.00  0.00    +0.000 NA
ENDBRANCH  27  30
ENDBRANCH  23  24
ENDBRANCH   7  23
TORSDOF 4
ENDMDL
MODEL 5
REMARK VINA RESULT:      -6.9      0.749      1.123
REMARK  Name = 
REMARK  4 active torsions:
REMARK  status: ('A' for Active; 'I' for Inactive)
REMARK    1  A    between atoms: C_7  and  C_8
REMARK    2  A    between atoms: C_14  and  C_16
REMARK    3  A    between atoms: C_16  and  C_17
REMARK    4  A    between atoms: C_20  and  N_21
REMARK                            x       y       z     vdW  Elec       q    Type
REMARK                         _______ _______ _______ _____ _____    ______ ____
ROOT
ATOM      1  C   UNL     1      -2.033  12.745  18.742  0.00  0.00    +0.000 C 
ATOM      2  C   UNL     1      -0.632  12.791  19.416  0.00  0.00    +0.000 C 
ATOM      3  N   UNL     1      -0.472  11.628  20.295  0.00  0.00    +0.000 NA
ATOM      4  C   UNL     1       0.748  11.638  21.108  0.00  0.00    +0.000 C 
ATOM      5  C   UNL     1       0.719  10.463  22.106  0.00  0.00    +0.000 C 
ATOM      6  N   UNL     1       0.504   9.188  21.413  0.00  0.00    +0.000 N 
ATOM      7  C   UNL     1       1.452   8.188  21.524  0.00  0.00    +0.000 C 
ATOM      8  O   UNL     1       2.481   8.331  22.189  0.00  0.00    +0.000 OA
ATOM      9  C   UNL     1      -0.668   9.184  20.526  0.00  0.00    +0.000 C 
ATOM     10  C   UNL     1      -0.617  10.369  19.532  0.00  0.00    +0.000 C 
ATOM     11  C   UNL     1      -1.882  10.353  18.640  0.00  0.00    +0.000 C 
ATOM     12  O   UNL     1      -2.102  11.567  17.905  0.00  0.00    +0.000 OA
ENDROOT
BRANCH   1  19
ATOM     13  O   UNL     1      -6.849  13.021  23.320  0.00  0.00    +0.000 OA
ATOM     14  C   UNL     1      -6.653  12.725  22.162  0.00  0.00    +0.000 C 
ATOM     15  O   UNL     1      -7.552  12.190  21.284  0.00  0.00    +0.000 OA
ATOM     16  C   UNL     1      -6.975  11.968  19.977  0.00  0.00    +0.000 C 
ATOM     17  C   UNL     1      -5.567  12.378  20.145  0.00  0.00    +0.000 A 
ATOM     18  C   UNL     1      -4.498  12.346  19.256  0.00  0.00    +0.000 A 
ATOM     19  C   UNL     1      -3.247  12.839  19.679  0.00  0.00    +0.000 A 
ATOM     20  C   UNL     1      -3.143  13.391  20.981  0.00  0.00    +0.000 A 
ATOM     21  C   UNL     1      -4.212  13.379  21.876  0.00  0.00    +0.000 A 
ATOM     22  C   UNL     1      -5.403  12.862  21.426  0.00  0.00    +0.000 A 
ENDBRANCH   1  19
BRANCH   7  23
ATOM     23  C   UNL     1       1.220   6.884  20.771  0.00  0.00    +0.000 C 
BRANCH  23  24
ATOM     24  C   UNL     1       2.262   6.651  19.704  0.00  0.00    +0.000 A 
ATOM     25  C   UNL     1       3.067   5.504  19.750  0.00  0.00    +0.000 A 
ATOM     26  C   UNL     1       4.069   5.301  18.801  0.00  0.00    +0.000 A 
ATOM     27  C   UNL     1       4.286   6.254  17.798  0.00  0.00    +0.000 A 
ATOM     28  C   UNL     1       3.475   7.395  17.736  0.00  0.00    +0.000 A 
ATOM     29  C   UNL     1       2.460   7.580  18.676  0.00  0.00    +0.000 A 
BRANCH  27  30
ATOM     30  N   UNL     1       5.330   6.083  16.861  0.00  0.00    +0.000 N 
ATOM     31  C   UNL     1       5.263   6.008  15.493  0.00  0.00    +0.000 A 
ATOM     32  N   UNL     1       6.463   5.785  15.011  0.00  0.00    +0.000 NA
ATOM     33  N   UNL     1       7.296   5.738  16.096  0.00  0.00    +0.000 NA
ATOM     34  N   UNL     1       6.625   5.932  17.223  0.00  0.00    +0.000 NA
ENDBRANCH  27  30
ENDBRANCH  23  24
ENDBRANCH   7  23
TORSDOF 4
ENDMDL
MODEL 6
REMARK VINA RESULT:      -6.8      4.270      5.471
REMARK  Name = 
REMARK  4 active torsions:
REMARK  status: ('A' for Active; 'I' for Inactive)
REMARK    1  A    between atoms: C_7  and  C_8
REMARK    2  A    between atoms: C_14  and  C_16
REMARK    3  A    between atoms: C_16  and  C_17
REMARK    4  A    between atoms: C_20  and  N_21
REMARK                            x       y       z     vdW  Elec       q    Type
REMARK                         _______ _______ _______ _____ _____    ______ ____
ROOT
ATOM      1  C   UNL     1      -2.016  16.272  20.738  0.00  0.00    +0.000 C 
ATOM      2  C   UNL     1      -0.919  16.204  19.638  0.00  0.00    +0.000 C 
ATOM      3  N   UNL     1      -0.089  15.013  19.845  0.00  0.00    +0.000 NA
ATOM      4  C   UNL     1       1.078  14.918  18.963  0.00  0.00    +0.000 C 
ATOM      5  C   UNL     1       1.957  13.725  19.389  0.00  0.00    +0.000 C 
ATOM      6  N   UNL     1       1.176  12.485  19.436  0.00  0.00    +0.000 N 
ATOM      7  C   UNL     1       1.546  11.419  18.638  0.00  0.00    +0.000 C 
ATOM      8  O   UNL     1       2.518  11.475  17.880  0.00  0.00    +0.000 OA
ATOM      9  C   UNL     1      -0.047  12.583  20.248  0.00  0.00    +0.000 C 
ATOM     10  C   UNL     1      -0.914  13.785  19.803  0.00  0.00    +0.000 C 
ATOM     11  C   UNL     1      -2.171  13.878  20.701  0.00  0.00    +0.000 C 
ATOM     12  O   UNL     1      -2.882  15.121  20.595  0.00  0.00    +0.000 OA
ENDROOT
BRANCH   1  19
ATOM     13  O   UNL     1       0.748  16.975  26.746  0.00  0.00    +0.000 OA
ATOM     14  C   UNL     1      -0.201  16.469  26.188  0.00  0.00    +0.000 C 
ATOM     15  O   UNL     1      -1.158  15.672  26.749  0.00  0.00    +0.000 OA
ATOM     16  C   UNL     1      -2.150  15.247  25.787  0.00  0.00    +0.000 C 
ATOM     17  C   UNL     1      -1.673  15.830  24.517  0.00  0.00    +0.000 A 
ATOM     18  C   UNL     1      -2.175  15.729  23.224  0.00  0.00    +0.000 A 
ATOM     19  C   UNL     1      -1.526  16.428  22.185  0.00  0.00    +0.000 A 
ATOM     20  C   UNL     1      -0.414  17.244  22.513  0.00  0.00    +0.000 A 
ATOM     21  C   UNL     1       0.104  17.305  23.805  0.00  0.00    +0.000 A 
ATOM     22  C   UNL     1      -0.547  16.582  24.777  0.00  0.00    +0.000 A 
ENDBRANCH   1  19
BRANCH   7  23
ATOM     23  C   UNL     1       0.701  10.153  18.684  0.00  0.00    +0.000 C 
BRANCH  23  24
ATOM     24  C   UNL     1       1.545   8.912  18.853  0.00  0.00    +0.000 A 
ATOM     25  C   UNL     1       2.271   8.406  17.766  0.00  0.00    +0.000 A 
ATOM     26  C   UNL     1       3.014   7.231  17.892  0.00  0.00    +0.000 A 
ATOM     27  C   UNL     1       3.028   6.542  19.111  0.00  0.00    +0.000 A 
ATOM     28  C   UNL     1       2.318   7.050  20.206  0.00  0.00    +0.000 A 
ATOM     29  C   UNL     1       1.596   8.237  20.078  0.00  0.00    +0.000 A 
BRANCH  27  30
ATOM     30  N   UNL     1       3.737   5.326  19.237  0.00  0.00    +0.000 N 
ATOM     31  C   UNL     1       5.091   5.107  19.234  0.00  0.00    +0.000 A 
ATOM     32  N   UNL     1       5.324   3.818  19.317  0.00  0.00    +0.000 NA
ATOM     33  N   UNL     1       4.093   3.223  19.392  0.00  0.00    +0.000 NA
ATOM     34  N   UNL     1       3.123   4.127  19.360  0.00  0.00    +0.000 NA
ENDBRANCH  27  30
ENDBRANCH  23  24
ENDBRANCH   7  23
TORSDOF 4
ENDMDL
MODEL 7
REMARK VINA RESULT:      -6.8      1.400      2.062
REMARK  Name = 
REMARK  4 active torsions:
REMARK  status: ('A' for Active; 'I' for Inactive)
REMARK    1  A    between atoms: C_7  and  C_8
REMARK    2  A    between atoms: C_14  and  C_16
REMARK    3  A    between atoms: C_16  and  C_17
REMARK    4  A    between atoms: C_20  and  N_21
REMARK                            x       y       z     vdW  Elec       q    Type
REMARK                         _______ _______ _______ _____ _____    ______ ____
ROOT
ATOM      1  C   UNL     1      -1.567  13.115  19.695  0.00  0.00    +0.000 C 
ATOM      2  C   UNL     1      -0.177  12.796  20.315  0.00  0.00    +0.000 C 
ATOM      3  N   UNL     1      -0.127  11.384  20.707  0.00  0.00    +0.000 NA
ATOM      4  C   UNL     1       1.078  10.996  21.447  0.00  0.00    +0.000 C 
ATOM      5  C   UNL     1       0.936   9.545  21.949  0.00  0.00    +0.000 C 
ATOM      6  N   UNL     1       0.626   8.632  20.843  0.00  0.00    +0.000 N 
ATOM      7  C   UNL     1       1.485   7.586  20.565  0.00  0.00    +0.000 C 
ATOM      8  O   UNL     1       2.513   7.391  21.220  0.00  0.00    +0.000 OA
ATOM      9  C   UNL     1      -0.530   9.049  20.035  0.00  0.00    +0.000 C 
ATOM     10  C   UNL     1      -0.367  10.506  19.541  0.00  0.00    +0.000 C 
ATOM     11  C   UNL     1      -1.616  10.921  18.727  0.00  0.00    +0.000 C 
ATOM     12  O   UNL     1      -1.723  12.333  18.488  0.00  0.00    +0.000 OA
ENDROOT
BRANCH   1  19
ATOM     13  O   UNL     1      -7.154  12.901  23.298  0.00  0.00    +0.000 OA
ATOM     14  C   UNL     1      -5.951  12.803  23.400  0.00  0.00    +0.000 C 
ATOM     15  O   UNL     1      -5.232  12.641  24.550  0.00  0.00    +0.000 OA
ATOM     16  C   UNL     1      -3.810  12.553  24.300  0.00  0.00    +0.000 C 
ATOM     17  C   UNL     1      -3.704  12.739  22.840  0.00  0.00    +0.000 A 
ATOM     18  C   UNL     1      -2.589  12.808  22.011  0.00  0.00    +0.000 A 
ATOM     19  C   UNL     1      -2.782  12.962  20.623  0.00  0.00    +0.000 A 
ATOM     20  C   UNL     1      -4.110  12.993  20.125  0.00  0.00    +0.000 A 
ATOM     21  C   UNL     1      -5.218  12.964  20.970  0.00  0.00    +0.000 A 
ATOM     22  C   UNL     1      -4.976  12.843  22.318  0.00  0.00    +0.000 A 
ENDBRANCH   1  19
BRANCH   7  23
ATOM     23  C   UNL     1       1.156   6.670  19.394  0.00  0.00    +0.000 C 
BRANCH  23  24
ATOM     24  C   UNL     1       2.375   6.347  18.565  0.00  0.00    +0.000 A 
ATOM     25  C   UNL     1       3.123   7.382  17.987  0.00  0.00    +0.000 A 
ATOM     26  C   UNL     1       4.222   7.098  17.175  0.00  0.00    +0.000 A 
ATOM     27  C   UNL     1       4.579   5.768  16.923  0.00  0.00    +0.000 A 
ATOM     28  C   UNL     1       3.847   4.728  17.511  0.00  0.00    +0.000 A 
ATOM     29  C   UNL     1       2.763   5.021  18.339  0.00  0.00    +0.000 A 
BRANCH  27  30
ATOM     30  N   UNL     1       5.660   5.467  16.064  0.00  0.00    +0.000 N 
ATOM     31  C   UNL     1       5.762   4.489  15.108  0.00  0.00    +0.000 A 
ATOM     32  N   UNL     1       6.963   4.520  14.581  0.00  0.00    +0.000 NA
ATOM     33  N   UNL     1       7.616   5.549  15.205  0.00  0.00    +0.000 NA
ATOM     34  N   UNL     1       6.832   6.142  16.096  0.00  0.00    +0.000 NA
ENDBRANCH  27  30
ENDBRANCH  23  24
ENDBRANCH   7  23
TORSDOF 4
ENDMDL
MODEL 8
REMARK VINA RESULT:      -6.8      6.169     11.947
REMARK  Name = 
REMARK  4 active torsions:
REMARK  status: ('A' for Active; 'I' for Inactive)
REMARK    1  A    between atoms: C_7  and  C_8
REMARK    2  A    between atoms: C_14  and  C_16
REMARK    3  A    between atoms: C_16  and  C_17
REMARK    4  A    between atoms: C_20  and  N_21
REMARK                            x       y       z     vdW  Elec       q    Type
REMARK                         _______ _______ _______ _____ _____    ______ ____
ROOT
ATOM      1  C   UNL     1       6.316  16.333  19.028  0.00  0.00    +0.000 C 
ATOM      2  C   UNL     1       5.019  16.157  18.189  0.00  0.00    +0.000 C 
ATOM      3  N   UNL     1       4.224  15.054  18.739  0.00  0.00    +0.000 NA
ATOM      4  C   UNL     1       3.050  14.687  17.942  0.00  0.00    +0.000 C 
ATOM      5  C   UNL     1       2.400  13.416  18.525  0.00  0.00    +0.000 C 
ATOM      6  N   UNL     1       2.092  13.587  19.948  0.00  0.00    +0.000 N 
ATOM      7  C   UNL     1       0.785  13.464  20.380  0.00  0.00    +0.000 C 
ATOM      8  O   UNL     1      -0.141  13.214  19.602  0.00  0.00    +0.000 OA
ATOM      9  C   UNL     1       3.237  14.037  20.754  0.00  0.00    +0.000 C 
ATOM     10  C   UNL     1       3.872  15.313  20.153  0.00  0.00    +0.000 C 
ATOM     11  C   UNL     1       5.093  15.736  21.004  0.00  0.00    +0.000 C 
ATOM     12  O   UNL     1       5.945  16.707  20.376  0.00  0.00    +0.000 OA
ENDROOT
BRANCH   1  19
ATOM     13  O   UNL     1      10.104  10.880  18.630  0.00  0.00    +0.000 OA
ATOM     14  C   UNL     1       9.848  11.810  19.364  0.00  0.00    +0.000 C 
ATOM     15  O   UNL     1      10.328  12.022  20.625  0.00  0.00    +0.000 OA
ATOM     16  C   UNL     1       9.815  13.240  21.209  0.00  0.00    +0.000 C 
ATOM     17  C   UNL     1       8.893  13.757  20.178  0.00  0.00    +0.000 A 
ATOM     18  C   UNL     1       8.061  14.872  20.179  0.00  0.00    +0.000 A 
ATOM     19  C   UNL     1       7.298  15.152  19.026  0.00  0.00    +0.000 A 
ATOM     20  C   UNL     1       7.449  14.309  17.896  0.00  0.00    +0.000 A 
ATOM     21  C   UNL     1       8.255  13.172  17.923  0.00  0.00    +0.000 A 
ATOM     22  C   UNL     1       8.956  12.926  19.080  0.00  0.00    +0.000 A 
ENDBRANCH   1  19
BRANCH   7  23
ATOM     23  C   UNL     1       0.487  13.675  21.858  0.00  0.00    +0.000 C 
BRANCH  23  24
ATOM     24  C   UNL     1      -0.968  13.436  22.184  0.00  0.00    +0.000 A 
ATOM     25  C   UNL     1      -1.363  12.230  22.780  0.00  0.00    +0.000 A 
ATOM     26  C   UNL     1      -2.710  11.974  23.039  0.00  0.00    +0.000 A 
ATOM     27  C   UNL     1      -3.681  12.921  22.693  0.00  0.00    +0.000 A 
ATOM     28  C   UNL     1      -3.292  14.135  22.113  0.00  0.00    +0.000 A 
ATOM     29  C   UNL     1      -1.941  14.394  21.877  0.00  0.00    +0.000 A 
BRANCH  27  30
ATOM     30  N   UNL     1      -5.052  12.652  22.907  0.00  0.00    +0.000 N 
ATOM     31  C   UNL     1      -5.792  12.779  24.054  0.00  0.00    +0.000 A 
ATOM     32  N   UNL     1      -7.017  12.364  23.830  0.00  0.00    +0.000 NA
ATOM     33  N   UNL     1      -7.046  11.989  22.513  0.00  0.00    +0.000 NA
ATOM     34  N   UNL     1      -5.866  12.173  21.938  0.00  0.00    +0.000 NA
ENDBRANCH  27  30
ENDBRANCH  23  24
ENDBRANCH   7  23
TORSDOF 4
ENDMDL
MODEL 9
REMARK VINA RESULT:      -6.8      3.642      4.852
REMARK  Name = 
REMARK  4 active torsions:
REMARK  status: ('A' for Active; 'I' for Inactive)
REMARK    1  A    between atoms: C_7  and  C_8
REMARK    2  A    between atoms: C_14  and  C_16
REMARK    3  A    between atoms: C_16  and  C_17
REMARK    4  A    between atoms: C_20  and  N_21
REMARK                            x       y       z     vdW  Elec       q    Type
REMARK                         _______ _______ _______ _____ _____    ______ ____
ROOT
ATOM      1  C   UNL     1      -2.805  12.955  22.703  0.00  0.00    +0.000 C 
ATOM      2  C   UNL     1      -3.032  12.511  21.230  0.00  0.00    +0.000 C 
ATOM      3  N   UNL     1      -1.748  12.139  20.626  0.00  0.00    +0.000 NA
ATOM      4  C   UNL     1      -1.807  11.849  19.190  0.00  0.00    +0.000 C 
ATOM      5  C   UNL     1      -0.381  11.642  18.641  0.00  0.00    +0.000 C 
ATOM      6  N   UNL     1       0.332  10.611  19.403  0.00  0.00    +0.000 N 
ATOM      7  C   UNL     1       0.799   9.486  18.750  0.00  0.00    +0.000 C 
ATOM      8  O   UNL     1       0.634   9.316  17.538  0.00  0.00    +0.000 OA
ATOM      9  C   UNL     1       0.331  10.838  20.856  0.00  0.00    +0.000 C 
ATOM     10  C   UNL     1      -1.109  11.042  21.385  0.00  0.00    +0.000 C 
ATOM     11  C   UNL     1      -1.068  11.313  22.908  0.00  0.00    +0.000 C 
ATOM     12  O   UNL     1      -2.295  11.826  23.450  0.00  0.00    +0.000 OA
ENDROOT
BRANCH   1  19
ATOM     13  O   UNL     1       0.625  18.444  24.231  0.00  0.00    +0.000 OA
ATOM     14  C   UNL     1       0.184  17.830  23.285  0.00  0.00    +0.000 C 
ATOM     15  O   UNL     1       0.223  18.201  21.971  0.00  0.00    +0.000 OA
ATOM     16  C   UNL     1      -0.396  17.222  21.106  0.00  0.00    +0.000 C 
ATOM     17  C   UNL     1      -0.892  16.196  22.045  0.00  0.00    +0.000 A 
ATOM     18  C   UNL     1      -1.621  15.033  21.818  0.00  0.00    +0.000 A 
ATOM     19  C   UNL     1      -1.938  14.205  22.915  0.00  0.00    +0.000 A 
ATOM     20  C   UNL     1      -1.459  14.571  24.199  0.00  0.00    +0.000 A 
ATOM     21  C   UNL     1      -0.765  15.760  24.418  0.00  0.00    +0.000 A 
ATOM     22  C   UNL     1      -0.506  16.547  23.321  0.00  0.00    +0.000 A 
ENDBRANCH   1  19
BRANCH   7  23
ATOM     23  C   UNL     1       1.510   8.416  19.568  0.00  0.00    +0.000 C 
BRANCH  23  24
ATOM     24  C   UNL     1       2.455   7.592  18.726  0.00  0.00    +0.000 A 
ATOM     25  C   UNL     1       2.550   6.209  18.932  0.00  0.00    +0.000 A 
ATOM     26  C   UNL     1       3.457   5.442  18.198  0.00  0.00    +0.000 A 
ATOM     27  C   UNL     1       4.289   6.057  17.255  0.00  0.00    +0.000 A 
ATOM     28  C   UNL     1       4.189   7.436  17.033  0.00  0.00    +0.000 A 
ATOM     29  C   UNL     1       3.264   8.193  17.754  0.00  0.00    +0.000 A 
BRANCH  27  30
ATOM     30  N   UNL     1       5.245   5.299  16.541  0.00  0.00    +0.000 N 
ATOM     31  C   UNL     1       5.185   3.990  16.135  0.00  0.00    +0.000 A 
ATOM     32  N   UNL     1       6.315   3.664  15.552  0.00  0.00    +0.000 NA
ATOM     33  N   UNL     1       7.085   4.796  15.577  0.00  0.00    +0.000 NA
ATOM     34  N   UNL     1       6.443   5.799  16.160  0.00  0.00    +0.000 NA
ENDBRANCH  27  30
ENDBRANCH  23  24
ENDBRANCH   7  23
TORSDOF 4
ENDMDL
