MODEL 1
REMARK VINA RESULT:      -9.0      0.000      0.000
REMARK  Name = 
REMARK  5 active torsions:
REMARK  status: ('A' for Active; 'I' for Inactive)
REMARK    1  A    between atoms: S_2  and  C_4
REMARK    2  A    between atoms: S_2  and  N_18
REMARK    3  A    between atoms: C_7  and  C_8
REMARK    4  A    between atoms: C_10  and  C_11
REMARK    5  A    between atoms: C_21  and  C_22
REMARK                            x       y       z     vdW  Elec       q    Type
REMARK                         _______ _______ _______ _____ _____    ______ ____
ROOT
ATOM      1  O   UNL     1       3.048   5.010  20.203  0.00  0.00    +0.000 OA
ATOM      2  S   UNL     1       3.177   5.647  18.908  0.00  0.00    +0.000 S 
ATOM      3  O   UNL     1       2.566   5.089  17.724  0.00  0.00    +0.000 OA
ENDROOT
BRANCH   2   4
ATOM      4  N   UNL     1       4.859   5.908  18.603  0.00  0.00    +0.000 NA
ATOM      5  C   UNL     1       5.628   4.637  18.520  0.00  0.00    +0.000 C 
ATOM      6  C   UNL     1       7.102   4.866  18.208  0.00  0.00    +0.000 C 
ATOM      7  C   UNL     1       7.318   5.755  16.981  0.00  0.00    +0.000 C 
ATOM      8  C   UNL     1       6.577   7.075  17.202  0.00  0.00    +0.000 C 
ATOM      9  C   UNL     1       5.094   6.876  17.495  0.00  0.00    +0.000 C 
BRANCH   7  10
ATOM     10  C   UNL     1       6.965   5.084  15.677  0.00  0.00    +0.000 A 
ATOM     11  C   UNL     1       6.064   4.013  15.460  0.00  0.00    +0.000 A 
ATOM     12  C   UNL     1       6.105   3.772  14.109  0.00  0.00    +0.000 A 
ATOM     13  N   UNL     1       7.002   4.659  13.597  0.00  0.00    +0.000 N 
ATOM     14  N   UNL     1       7.526   5.471  14.525  0.00  0.00    +0.000 NA
ATOM     15  H   UNL     1       7.302   4.770  12.634  0.00  0.00    +0.000 HD
ENDBRANCH   7  10
ENDBRANCH   2   4
BRANCH   2  16
ATOM     16  C   UNL     1       2.388   7.259  19.127  0.00  0.00    +0.000 A 
ATOM     17  C   UNL     1       2.131   8.272  18.209  0.00  0.00    +0.000 A 
ATOM     18  C   UNL     1       1.383   9.273  18.872  0.00  0.00    +0.000 A 
ATOM     19  C   UNL     1       1.224   8.846  20.174  0.00  0.00    +0.000 A 
ATOM     20  O   UNL     1       1.873   7.658  20.344  0.00  0.00    +0.000 OA
BRANCH  19  21
ATOM     21  C   UNL     1       0.431   9.538  21.234  0.00  0.00    +0.000 A 
ATOM     22  C   UNL     1      -0.342  10.706  21.050  0.00  0.00    +0.000 A 
ATOM     23  C   UNL     1      -0.852  11.000  22.296  0.00  0.00    +0.000 A 
ATOM     24  N   UNL     1      -0.381  10.027  23.128  0.00  0.00    +0.000 N 
ATOM     25  N   UNL     1       0.423   9.143  22.515  0.00  0.00    +0.000 NA
ATOM     26  H   UNL     1      -0.552   9.912  24.124  0.00  0.00    +0.000 HD
BRANCH  23  27
ATOM     27  C   UNL     1      -1.723  12.064  22.810  0.00  0.00    +0.000 C 
ATOM     28  F   UNL     1      -2.338  12.756  21.821  0.00  0.00    +0.000 F 
ATOM     29  F   UNL     1      -2.689  11.568  23.620  0.00  0.00    +0.000 F 
ATOM     30  F   UNL     1      -1.018  12.957  23.547  0.00  0.00    +0.000 F 
ENDBRANCH  23  27
ENDBRANCH  19  21
ENDBRANCH   2  16
TORSDOF 5
ENDMDL
MODEL 2
REMARK VINA RESULT:      -8.7      1.141      1.165
REMARK  Name = 
REMARK  5 active torsions:
REMARK  status: ('A' for Active; 'I' for Inactive)
REMARK    1  A    between atoms: S_2  and  C_4
REMARK    2  A    between atoms: S_2  and  N_18
REMARK    3  A    between atoms: C_7  and  C_8
REMARK    4  A    between atoms: C_10  and  C_11
REMARK    5  A    between atoms: C_21  and  C_22
REMARK                            x       y       z     vdW  Elec       q    Type
REMARK                         _______ _______ _______ _____ _____    ______ ____
ROOT
ATOM      1  O   UNL     1       2.989   5.442  20.172  0.00  0.00    +0.000 OA
ATOM      2  S   UNL     1       3.223   5.772  18.780  0.00  0.00    +0.000 S 
ATOM      3  O   UNL     1       2.628   5.007  17.708  0.00  0.00    +0.000 OA
ENDROOT
BRANCH   2   4
ATOM      4  N   UNL     1       4.931   5.856  18.529  0.00  0.00    +0.000 NA
ATOM      5  C   UNL     1       5.554   4.513  18.381  0.00  0.00    +0.000 C 
ATOM      6  C   UNL     1       7.053   4.590  18.115  0.00  0.00    +0.000 C 
ATOM      7  C   UNL     1       7.403   5.522  16.954  0.00  0.00    +0.000 C 
ATOM      8  C   UNL     1       6.810   6.902  17.242  0.00  0.00    +0.000 C 
ATOM      9  C   UNL     1       5.307   6.857  17.489  0.00  0.00    +0.000 C 
BRANCH   7  10
ATOM     10  C   UNL     1       7.014   4.977  15.601  0.00  0.00    +0.000 A 
ATOM     11  C   UNL     1       6.067   3.966  15.306  0.00  0.00    +0.000 A 
ATOM     12  C   UNL     1       6.090   3.836  13.939  0.00  0.00    +0.000 A 
ATOM     13  N   UNL     1       7.020   4.724  13.494  0.00  0.00    +0.000 N 
ATOM     14  N   UNL     1       7.584   5.434  14.480  0.00  0.00    +0.000 NA
ATOM     15  H   UNL     1       7.319   4.902  12.541  0.00  0.00    +0.000 HD
ENDBRANCH   7  10
ENDBRANCH   2   4
BRANCH   2  16
ATOM     16  C   UNL     1       2.544   7.438  18.598  0.00  0.00    +0.000 A 
ATOM     17  C   UNL     1       2.591   8.322  17.526  0.00  0.00    +0.000 A 
ATOM     18  C   UNL     1       1.799   9.445  17.860  0.00  0.00    +0.000 A 
ATOM     19  C   UNL     1       1.310   9.217  19.129  0.00  0.00    +0.000 A 
ATOM     20  O   UNL     1       1.799   8.033  19.597  0.00  0.00    +0.000 OA
BRANCH  19  21
ATOM     21  C   UNL     1       0.356  10.093  19.873  0.00  0.00    +0.000 A 
ATOM     22  C   UNL     1       0.181  10.111  21.274  0.00  0.00    +0.000 A 
ATOM     23  C   UNL     1      -0.820  11.031  21.500  0.00  0.00    +0.000 A 
ATOM     24  N   UNL     1      -1.175  11.502  20.271  0.00  0.00    +0.000 N 
ATOM     25  N   UNL     1      -0.496  10.929  19.263  0.00  0.00    +0.000 NA
ATOM     26  H   UNL     1      -1.879  12.200  20.041  0.00  0.00    +0.000 HD
BRANCH  23  27
ATOM     27  C   UNL     1      -1.484  11.530  22.711  0.00  0.00    +0.000 C 
ATOM     28  F   UNL     1      -2.738  11.980  22.470  0.00  0.00    +0.000 F 
ATOM     29  F   UNL     1      -1.572  10.569  23.662  0.00  0.00    +0.000 F 
ATOM     30  F   UNL     1      -0.787  12.557  23.259  0.00  0.00    +0.000 F 
ENDBRANCH  23  27
ENDBRANCH  19  21
ENDBRANCH   2  16
TORSDOF 5
ENDMDL
MODEL 3
REMARK VINA RESULT:      -8.6      6.100      8.296
REMARK  Name = 
REMARK  5 active torsions:
REMARK  status: ('A' for Active; 'I' for Inactive)
REMARK    1  A    between atoms: S_2  and  C_4
REMARK    2  A    between atoms: S_2  and  N_18
REMARK    3  A    between atoms: C_7  and  C_8
REMARK    4  A    between atoms: C_10  and  C_11
REMARK    5  A    between atoms: C_21  and  C_22
REMARK                            x       y       z     vdW  Elec       q    Type
REMARK                         _______ _______ _______ _____ _____    ______ ____
ROOT
ATOM      1  O   UNL     1       8.211   4.539  17.978  0.00  0.00    +0.000 OA
ATOM      2  S   UNL     1       7.241   5.365  18.668  0.00  0.00    +0.000 S 
ATOM      3  O   UNL     1       7.138   5.372  20.110  0.00  0.00    +0.000 OA
ENDROOT
BRANCH   2   4
ATOM      4  N   UNL     1       5.682   5.037  17.996  0.00  0.00    +0.000 NA
ATOM      5  C   UNL     1       5.344   3.588  18.018  0.00  0.00    +0.000 C 
ATOM      6  C   UNL     1       3.952   3.305  17.465  0.00  0.00    +0.000 C 
ATOM      7  C   UNL     1       2.868   4.162  18.120  0.00  0.00    +0.000 C 
ATOM      8  C   UNL     1       3.249   5.635  17.959  0.00  0.00    +0.000 C 
ATOM      9  C   UNL     1       4.629   5.951  18.523  0.00  0.00    +0.000 C 
BRANCH   7  10
ATOM     10  C   UNL     1       2.570   3.777  19.548  0.00  0.00    +0.000 A 
ATOM     11  C   UNL     1       2.604   2.486  20.130  0.00  0.00    +0.000 A 
ATOM     12  C   UNL     1       2.250   2.671  21.444  0.00  0.00    +0.000 A 
ATOM     13  N   UNL     1       2.014   4.004  21.584  0.00  0.00    +0.000 N 
ATOM     14  N   UNL     1       2.213   4.695  20.454  0.00  0.00    +0.000 NA
ATOM     15  H   UNL     1       1.719   4.510  22.412  0.00  0.00    +0.000 HD
ENDBRANCH   7  10
ENDBRANCH   2   4
BRANCH   2  16
ATOM     16  C   UNL     1       7.701   7.057  18.224  0.00  0.00    +0.000 A 
ATOM     17  C   UNL     1       7.337   7.836  17.132  0.00  0.00    +0.000 A 
ATOM     18  C   UNL     1       7.879   9.127  17.326  0.00  0.00    +0.000 A 
ATOM     19  C   UNL     1       8.569   9.088  18.519  0.00  0.00    +0.000 A 
ATOM     20  O   UNL     1       8.508   7.828  19.037  0.00  0.00    +0.000 OA
BRANCH  19  21
ATOM     21  C   UNL     1       9.245  10.244  19.181  0.00  0.00    +0.000 A 
ATOM     22  C   UNL     1       9.882  11.314  18.514  0.00  0.00    +0.000 A 
ATOM     23  C   UNL     1      10.393  12.110  19.516  0.00  0.00    +0.000 A 
ATOM     24  N   UNL     1      10.045  11.502  20.686  0.00  0.00    +0.000 N 
ATOM     25  N   UNL     1       9.371  10.353  20.511  0.00  0.00    +0.000 NA
ATOM     26  H   UNL     1      10.244  11.803  21.637  0.00  0.00    +0.000 HD
BRANCH  23  27
ATOM     27  C   UNL     1      11.159  13.363  19.525  0.00  0.00    +0.000 C 
ATOM     28  F   UNL     1      11.454  13.801  18.279  0.00  0.00    +0.000 F 
ATOM     29  F   UNL     1      10.482  14.354  20.155  0.00  0.00    +0.000 F 
ATOM     30  F   UNL     1      12.332  13.211  20.187  0.00  0.00    +0.000 F 
ENDBRANCH  23  27
ENDBRANCH  19  21
ENDBRANCH   2  16
TORSDOF 5
ENDMDL
MODEL 4
REMARK VINA RESULT:      -8.6      0.681      1.023
REMARK  Name = 
REMARK  5 active torsions:
REMARK  status: ('A' for Active; 'I' for Inactive)
REMARK    1  A    between atoms: S_2  and  C_4
REMARK    2  A    between atoms: S_2  and  N_18
REMARK    3  A    between atoms: C_7  and  C_8
REMARK    4  A    between atoms: C_10  and  C_11
REMARK    5  A    between atoms: C_21  and  C_22
REMARK                            x       y       z     vdW  Elec       q    Type
REMARK                         _______ _______ _______ _____ _____    ______ ____
ROOT
ATOM      1  O   UNL     1       2.907   4.961  20.187  0.00  0.00    +0.000 OA
ATOM      2  S   UNL     1       3.042   5.608  18.897  0.00  0.00    +0.000 S 
ATOM      3  O   UNL     1       2.404   5.081  17.713  0.00  0.00    +0.000 OA
ENDROOT
BRANCH   2   4
ATOM      4  N   UNL     1       4.727   5.824  18.578  0.00  0.00    +0.000 NA
ATOM      5  C   UNL     1       5.477   4.538  18.572  0.00  0.00    +0.000 C 
ATOM      6  C   UNL     1       6.954   4.725  18.248  0.00  0.00    +0.000 C 
ATOM      7  C   UNL     1       7.183   5.534  16.971  0.00  0.00    +0.000 C 
ATOM      8  C   UNL     1       6.463   6.877  17.110  0.00  0.00    +0.000 C 
ATOM      9  C   UNL     1       4.978   6.720  17.413  0.00  0.00    +0.000 C 
BRANCH   7  10
ATOM     10  C   UNL     1       6.820   4.792  15.708  0.00  0.00    +0.000 A 
ATOM     11  C   UNL     1       7.091   5.161  14.369  0.00  0.00    +0.000 A 
ATOM     12  C   UNL     1       6.552   4.160  13.599  0.00  0.00    +0.000 A 
ATOM     13  N   UNL     1       5.990   3.279  14.472  0.00  0.00    +0.000 N 
ATOM     14  N   UNL     1       6.150   3.634  15.754  0.00  0.00    +0.000 NA
ATOM     15  H   UNL     1       5.488   2.421  14.269  0.00  0.00    +0.000 HD
ENDBRANCH   7  10
ENDBRANCH   2   4
BRANCH   2  16
ATOM     16  C   UNL     1       2.301   7.241  19.140  0.00  0.00    +0.000 A 
ATOM     17  C   UNL     1       2.083   8.278  18.240  0.00  0.00    +0.000 A 
ATOM     18  C   UNL     1       1.363   9.289  18.916  0.00  0.00    +0.000 A 
ATOM     19  C   UNL     1       1.180   8.844  20.209  0.00  0.00    +0.000 A 
ATOM     20  O   UNL     1       1.789   7.633  20.361  0.00  0.00    +0.000 OA
BRANCH  19  21
ATOM     21  C   UNL     1       0.401   9.540  21.276  0.00  0.00    +0.000 A 
ATOM     22  C   UNL     1      -0.390  10.696  21.093  0.00  0.00    +0.000 A 
ATOM     23  C   UNL     1      -0.877  11.001  22.345  0.00  0.00    +0.000 A 
ATOM     24  N   UNL     1      -0.377  10.046  23.180  0.00  0.00    +0.000 N 
ATOM     25  N   UNL     1       0.425   9.163  22.562  0.00  0.00    +0.000 NA
ATOM     26  H   UNL     1      -0.526   9.942  24.181  0.00  0.00    +0.000 HD
BRANCH  23  27
ATOM     27  C   UNL     1      -1.751  12.062  22.863  0.00  0.00    +0.000 C 
ATOM     28  F   UNL     1      -1.077  12.983  23.589  0.00  0.00    +0.000 F 
ATOM     29  F   UNL     1      -2.385  12.717  21.860  0.00  0.00    +0.000 F 
ATOM     30  F   UNL     1      -2.718  11.548  23.663  0.00  0.00    +0.000 F 
ENDBRANCH  23  27
ENDBRANCH  19  21
ENDBRANCH   2  16
TORSDOF 5
ENDMDL
MODEL 5
REMARK VINA RESULT:      -8.4      0.643      1.063
REMARK  Name = 
REMARK  5 active torsions:
REMARK  status: ('A' for Active; 'I' for Inactive)
REMARK    1  A    between atoms: S_2  and  C_4
REMARK    2  A    between atoms: S_2  and  N_18
REMARK    3  A    between atoms: C_7  and  C_8
REMARK    4  A    between atoms: C_10  and  C_11
REMARK    5  A    between atoms: C_21  and  C_22
REMARK                            x       y       z     vdW  Elec       q    Type
REMARK                         _______ _______ _______ _____ _____    ______ ____
ROOT
ATOM      1  O   UNL     1       2.903   5.164  20.156  0.00  0.00    +0.000 OA
ATOM      2  S   UNL     1       3.114   5.671  18.815  0.00  0.00    +0.000 S 
ATOM      3  O   UNL     1       2.540   5.022  17.659  0.00  0.00    +0.000 OA
ENDROOT
BRANCH   2   4
ATOM      4  N   UNL     1       4.816   5.851  18.571  0.00  0.00    +0.000 NA
ATOM      5  C   UNL     1       5.520   4.544  18.469  0.00  0.00    +0.000 C 
ATOM      6  C   UNL     1       7.013   4.703  18.210  0.00  0.00    +0.000 C 
ATOM      7  C   UNL     1       7.315   5.617  17.022  0.00  0.00    +0.000 C 
ATOM      8  C   UNL     1       6.638   6.968  17.263  0.00  0.00    +0.000 C 
ATOM      9  C   UNL     1       5.138   6.840  17.503  0.00  0.00    +0.000 C 
BRANCH   7  10
ATOM     10  C   UNL     1       6.971   5.008  15.685  0.00  0.00    +0.000 A 
ATOM     11  C   UNL     1       6.063   3.956  15.413  0.00  0.00    +0.000 A 
ATOM     12  C   UNL     1       6.115   3.775  14.052  0.00  0.00    +0.000 A 
ATOM     13  N   UNL     1       7.025   4.675  13.590  0.00  0.00    +0.000 N 
ATOM     14  N   UNL     1       7.547   5.441  14.557  0.00  0.00    +0.000 NA
ATOM     15  H   UNL     1       7.337   4.826  12.636  0.00  0.00    +0.000 HD
ENDBRANCH   7  10
ENDBRANCH   2   4
BRANCH   2  16
ATOM     16  C   UNL     1       2.372   7.321  18.842  0.00  0.00    +0.000 A 
ATOM     17  C   UNL     1       2.119   8.216  17.809  0.00  0.00    +0.000 A 
ATOM     18  C   UNL     1       1.414   9.313  18.354  0.00  0.00    +0.000 A 
ATOM     19  C   UNL     1       1.276   9.060  19.703  0.00  0.00    +0.000 A 
ATOM     20  O   UNL     1       1.897   7.885  20.010  0.00  0.00    +0.000 OA
BRANCH  19  21
ATOM     21  C   UNL     1       0.527   9.903  20.682  0.00  0.00    +0.000 A 
ATOM     22  C   UNL     1       0.335  11.300  20.585  0.00  0.00    +0.000 A 
ATOM     23  C   UNL     1      -0.367  11.646  21.720  0.00  0.00    +0.000 A 
ATOM     24  N   UNL     1      -0.557  10.484  22.408  0.00  0.00    +0.000 N 
ATOM     25  N   UNL     1       0.000   9.415  21.814  0.00  0.00    +0.000 NA
ATOM     26  H   UNL     1      -1.040  10.346  23.292  0.00  0.00    +0.000 HD
BRANCH  23  27
ATOM     27  C   UNL     1      -0.887  12.916  22.242  0.00  0.00    +0.000 C 
ATOM     28  F   UNL     1      -1.076  12.889  23.582  0.00  0.00    +0.000 F 
ATOM     29  F   UNL     1      -0.049  13.946  21.969  0.00  0.00    +0.000 F 
ATOM     30  F   UNL     1      -2.079  13.224  21.674  0.00  0.00    +0.000 F 
ENDBRANCH  23  27
ENDBRANCH  19  21
ENDBRANCH   2  16
TORSDOF 5
ENDMDL
MODEL 6
REMARK VINA RESULT:      -8.4      6.360      9.165
REMARK  Name = 
REMARK  5 active torsions:
REMARK  status: ('A' for Active; 'I' for Inactive)
REMARK    1  A    between atoms: S_2  and  C_4
REMARK    2  A    between atoms: S_2  and  N_18
REMARK    3  A    between atoms: C_7  and  C_8
REMARK    4  A    between atoms: C_10  and  C_11
REMARK    5  A    between atoms: C_21  and  C_22
REMARK                            x       y       z     vdW  Elec       q    Type
REMARK                         _______ _______ _______ _____ _____    ______ ____
ROOT
ATOM      1  O   UNL     1       2.736   7.636  19.934  0.00  0.00    +0.000 OA
ATOM      2  S   UNL     1       2.485   6.893  18.715  0.00  0.00    +0.000 S 
ATOM      3  O   UNL     1       1.862   7.508  17.565  0.00  0.00    +0.000 OA
ENDROOT
BRANCH   2   4
ATOM      4  N   UNL     1       1.609   5.461  19.130  0.00  0.00    +0.000 NA
ATOM      5  C   UNL     1       1.607   4.455  18.033  0.00  0.00    +0.000 C 
ATOM      6  C   UNL     1       0.871   3.176  18.416  0.00  0.00    +0.000 C 
ATOM      7  C   UNL     1       1.355   2.587  19.742  0.00  0.00    +0.000 C 
ATOM      8  C   UNL     1       1.225   3.658  20.826  0.00  0.00    +0.000 C 
ATOM      9  C   UNL     1       1.970   4.942  20.479  0.00  0.00    +0.000 C 
BRANCH   7  10
ATOM     10  C   UNL     1       2.735   1.979  19.668  0.00  0.00    +0.000 A 
ATOM     11  C   UNL     1       3.790   2.092  20.605  0.00  0.00    +0.000 A 
ATOM     12  C   UNL     1       4.827   1.365  20.073  0.00  0.00    +0.000 A 
ATOM     13  N   UNL     1       4.374   0.883  18.884  0.00  0.00    +0.000 N 
ATOM     14  N   UNL     1       3.107   1.231  18.623  0.00  0.00    +0.000 NA
ATOM     15  H   UNL     1       4.867   0.313  18.204  0.00  0.00    +0.000 HD
ENDBRANCH   7  10
ENDBRANCH   2   4
BRANCH   2  16
ATOM     16  C   UNL     1       4.131   6.401  18.148  0.00  0.00    +0.000 A 
ATOM     17  C   UNL     1       5.266   6.045  18.867  0.00  0.00    +0.000 A 
ATOM     18  C   UNL     1       6.250   5.632  17.940  0.00  0.00    +0.000 A 
ATOM     19  C   UNL     1       5.690   5.766  16.687  0.00  0.00    +0.000 A 
ATOM     20  O   UNL     1       4.431   6.279  16.806  0.00  0.00    +0.000 OA
BRANCH  19  21
ATOM     21  C   UNL     1       6.326   5.374  15.394  0.00  0.00    +0.000 A 
ATOM     22  C   UNL     1       5.703   4.635  14.364  0.00  0.00    +0.000 A 
ATOM     23  C   UNL     1       6.673   4.478  13.397  0.00  0.00    +0.000 A 
ATOM     24  N   UNL     1       7.781   5.110  13.877  0.00  0.00    +0.000 N 
ATOM     25  N   UNL     1       7.607   5.639  15.100  0.00  0.00    +0.000 NA
ATOM     26  H   UNL     1       8.693   5.207  13.436  0.00  0.00    +0.000 HD
BRANCH  23  27
ATOM     27  C   UNL     1       6.698   3.819  12.084  0.00  0.00    +0.000 C 
ATOM     28  F   UNL     1       5.465   3.460  11.658  0.00  0.00    +0.000 F 
ATOM     29  F   UNL     1       7.238   4.623  11.136  0.00  0.00    +0.000 F 
ATOM     30  F   UNL     1       7.455   2.695  12.119  0.00  0.00    +0.000 F 
ENDBRANCH  23  27
ENDBRANCH  19  21
ENDBRANCH   2  16
TORSDOF 5
ENDMDL
MODEL 7
REMARK VINA RESULT:      -8.4      5.766      9.772
REMARK  Name = 
REMARK  5 active torsions:
REMARK  status: ('A' for Active; 'I' for Inactive)
REMARK    1  A    between atoms: S_2  and  C_4
REMARK    2  A    between atoms: S_2  and  N_18
REMARK    3  A    between atoms: C_7  and  C_8
REMARK    4  A    between atoms: C_10  and  C_11
REMARK    5  A    between atoms: C_21  and  C_22
REMARK                            x       y       z     vdW  Elec       q    Type
REMARK                         _______ _______ _______ _____ _____    ______ ____
ROOT
ATOM      1  O   UNL     1       1.420   5.738  18.085  0.00  0.00    +0.000 OA
ATOM      2  S   UNL     1       2.328   6.154  19.135  0.00  0.00    +0.000 S 
ATOM      3  O   UNL     1       2.270   5.579  20.460  0.00  0.00    +0.000 OA
ENDROOT
BRANCH   2   4
ATOM      4  N   UNL     1       2.246   7.876  19.266  0.00  0.00    +0.000 NA
ATOM      5  C   UNL     1       2.187   8.547  17.939  0.00  0.00    +0.000 C 
ATOM      6  C   UNL     1       2.071  10.062  18.057  0.00  0.00    +0.000 C 
ATOM      7  C   UNL     1       0.931  10.501  18.978  0.00  0.00    +0.000 C 
ATOM      8  C   UNL     1       1.132   9.844  20.345  0.00  0.00    +0.000 C 
ATOM      9  C   UNL     1       1.230   8.325  20.260  0.00  0.00    +0.000 C 
BRANCH   7  10
ATOM     10  C   UNL     1      -0.442  10.264  18.400  0.00  0.00    +0.000 A 
ATOM     11  C   UNL     1      -1.696  10.624  18.952  0.00  0.00    +0.000 A 
ATOM     12  C   UNL     1      -2.630  10.184  18.046  0.00  0.00    +0.000 A 
ATOM     13  N   UNL     1      -1.928   9.591  17.042  0.00  0.00    +0.000 N 
ATOM     14  N   UNL     1      -0.602   9.638  17.228  0.00  0.00    +0.000 NA
ATOM     15  H   UNL     1      -2.281   9.140  16.205  0.00  0.00    +0.000 HD
ENDBRANCH   7  10
ENDBRANCH   2   4
BRANCH   2  16
ATOM     16  C   UNL     1       3.965   5.714  18.505  0.00  0.00    +0.000 A 
ATOM     17  C   UNL     1       5.088   5.227  19.166  0.00  0.00    +0.000 A 
ATOM     18  C   UNL     1       6.067   4.935  18.189  0.00  0.00    +0.000 A 
ATOM     19  C   UNL     1       5.518   5.269  16.969  0.00  0.00    +0.000 A 
ATOM     20  O   UNL     1       4.271   5.787  17.160  0.00  0.00    +0.000 OA
BRANCH  19  21
ATOM     21  C   UNL     1       6.153   5.060  15.633  0.00  0.00    +0.000 A 
ATOM     22  C   UNL     1       5.605   4.302  14.574  0.00  0.00    +0.000 A 
ATOM     23  C   UNL     1       6.548   4.354  13.570  0.00  0.00    +0.000 A 
ATOM     24  N   UNL     1       7.568   5.115  14.058  0.00  0.00    +0.000 N 
ATOM     25  N   UNL     1       7.366   5.533  15.319  0.00  0.00    +0.000 NA
ATOM     26  H   UNL     1       8.437   5.377  13.598  0.00  0.00    +0.000 HD
BRANCH  23  27
ATOM     27  C   UNL     1       6.618   3.792  12.215  0.00  0.00    +0.000 C 
ATOM     28  F   UNL     1       7.130   2.539  12.198  0.00  0.00    +0.000 F 
ATOM     29  F   UNL     1       5.395   3.740  11.635  0.00  0.00    +0.000 F 
ATOM     30  F   UNL     1       7.398   4.556  11.411  0.00  0.00    +0.000 F 
ENDBRANCH  23  27
ENDBRANCH  19  21
ENDBRANCH   2  16
TORSDOF 5
ENDMDL
MODEL 8
REMARK VINA RESULT:      -8.4      5.667      8.062
REMARK  Name = 
REMARK  5 active torsions:
REMARK  status: ('A' for Active; 'I' for Inactive)
REMARK    1  A    between atoms: S_2  and  C_4
REMARK    2  A    between atoms: S_2  and  N_18
REMARK    3  A    between atoms: C_7  and  C_8
REMARK    4  A    between atoms: C_10  and  C_11
REMARK    5  A    between atoms: C_21  and  C_22
REMARK                            x       y       z     vdW  Elec       q    Type
REMARK                         _______ _______ _______ _____ _____    ______ ____
ROOT
ATOM      1  O   UNL     1       5.407   6.167  15.166  0.00  0.00    +0.000 OA
ATOM      2  S   UNL     1       5.427   5.404  16.398  0.00  0.00    +0.000 S 
ATOM      3  O   UNL     1       5.841   4.020  16.427  0.00  0.00    +0.000 OA
ENDROOT
BRANCH   2   4
ATOM      4  N   UNL     1       3.872   5.540  17.141  0.00  0.00    +0.000 NA
ATOM      5  C   UNL     1       3.069   4.293  17.018  0.00  0.00    +0.000 C 
ATOM      6  C   UNL     1       1.716   4.400  17.710  0.00  0.00    +0.000 C 
ATOM      7  C   UNL     1       1.827   4.876  19.160  0.00  0.00    +0.000 C 
ATOM      8  C   UNL     1       2.575   6.211  19.177  0.00  0.00    +0.000 C 
ATOM      9  C   UNL     1       3.943   6.128  18.509  0.00  0.00    +0.000 C 
BRANCH   7  10
ATOM     10  C   UNL     1       2.420   3.849  20.092  0.00  0.00    +0.000 A 
ATOM     11  C   UNL     1       3.569   3.047  19.891  0.00  0.00    +0.000 A 
ATOM     12  C   UNL     1       3.679   2.279  21.024  0.00  0.00    +0.000 A 
ATOM     13  N   UNL     1       2.627   2.627  21.815  0.00  0.00    +0.000 N 
ATOM     14  N   UNL     1       1.858   3.583  21.277  0.00  0.00    +0.000 NA
ATOM     15  H   UNL     1       2.373   2.260  22.726  0.00  0.00    +0.000 HD
ENDBRANCH   7  10
ENDBRANCH   2   4
BRANCH   2  16
ATOM     16  C   UNL     1       6.626   6.272  17.438  0.00  0.00    +0.000 A 
ATOM     17  C   UNL     1       7.537   5.784  18.368  0.00  0.00    +0.000 A 
ATOM     18  C   UNL     1       8.321   6.873  18.813  0.00  0.00    +0.000 A 
ATOM     19  C   UNL     1       7.851   7.990  18.155  0.00  0.00    +0.000 A 
ATOM     20  O   UNL     1       6.796   7.640  17.364  0.00  0.00    +0.000 OA
BRANCH  19  21
ATOM     21  C   UNL     1       8.423   9.367  18.243  0.00  0.00    +0.000 A 
ATOM     22  C   UNL     1       9.374   9.801  19.194  0.00  0.00    +0.000 A 
ATOM     23  C   UNL     1       9.571  11.138  18.921  0.00  0.00    +0.000 A 
ATOM     24  N   UNL     1       8.764  11.422  17.860  0.00  0.00    +0.000 N 
ATOM     25  N   UNL     1       8.035  10.372  17.446  0.00  0.00    +0.000 NA
ATOM     26  H   UNL     1       8.646  12.310  17.376  0.00  0.00    +0.000 HD
BRANCH  23  27
ATOM     27  C   UNL     1      10.415  12.181  19.518  0.00  0.00    +0.000 C 
ATOM     28  F   UNL     1       9.753  13.348  19.697  0.00  0.00    +0.000 F 
ATOM     29  F   UNL     1      10.900  11.798  20.724  0.00  0.00    +0.000 F 
ATOM     30  F   UNL     1      11.489  12.444  18.733  0.00  0.00    +0.000 F 
ENDBRANCH  23  27
ENDBRANCH  19  21
ENDBRANCH   2  16
TORSDOF 5
ENDMDL
MODEL 9
REMARK VINA RESULT:      -8.3      3.409      5.001
REMARK  Name = 
REMARK  5 active torsions:
REMARK  status: ('A' for Active; 'I' for Inactive)
REMARK    1  A    between atoms: S_2  and  C_4
REMARK    2  A    between atoms: S_2  and  N_18
REMARK    3  A    between atoms: C_7  and  C_8
REMARK    4  A    between atoms: C_10  and  C_11
REMARK    5  A    between atoms: C_21  and  C_22
REMARK                            x       y       z     vdW  Elec       q    Type
REMARK                         _______ _______ _______ _____ _____    ______ ____
ROOT
ATOM      1  O   UNL     1       4.798   6.149  15.972  0.00  0.00    +0.000 OA
ATOM      2  S   UNL     1       4.957   5.879  17.387  0.00  0.00    +0.000 S 
ATOM      3  O   UNL     1       6.135   6.295  18.112  0.00  0.00    +0.000 OA
ENDROOT
BRANCH   2   4
ATOM      4  N   UNL     1       4.709   4.187  17.642  0.00  0.00    +0.000 NA
ATOM      5  C   UNL     1       5.064   3.760  19.023  0.00  0.00    +0.000 C 
ATOM      6  C   UNL     1       4.804   2.277  19.260  0.00  0.00    +0.000 C 
ATOM      7  C   UNL     1       3.387   1.854  18.870  0.00  0.00    +0.000 C 
ATOM      8  C   UNL     1       3.149   2.241  17.409  0.00  0.00    +0.000 C 
ATOM      9  C   UNL     1       3.381   3.724  17.147  0.00  0.00    +0.000 C 
BRANCH   7  10
ATOM     10  C   UNL     1       2.320   2.370  19.804  0.00  0.00    +0.000 A 
ATOM     11  C   UNL     1       2.415   2.596  21.199  0.00  0.00    +0.000 A 
ATOM     12  C   UNL     1       1.179   3.059  21.577  0.00  0.00    +0.000 A 
ATOM     13  N   UNL     1       0.423   3.073  20.445  0.00  0.00    +0.000 N 
ATOM     14  N   UNL     1       1.095   2.672  19.358  0.00  0.00    +0.000 NA
ATOM     15  H   UNL     1      -0.549   3.344  20.337  0.00  0.00    +0.000 HD
ENDBRANCH   7  10
ENDBRANCH   2   4
BRANCH   2  16
ATOM     16  C   UNL     1       3.590   6.773  18.164  0.00  0.00    +0.000 A 
ATOM     17  C   UNL     1       2.842   6.473  19.297  0.00  0.00    +0.000 A 
ATOM     18  C   UNL     1       1.974   7.563  19.540  0.00  0.00    +0.000 A 
ATOM     19  C   UNL     1       2.208   8.482  18.538  0.00  0.00    +0.000 A 
ATOM     20  O   UNL     1       3.144   7.986  17.678  0.00  0.00    +0.000 OA
BRANCH  19  21
ATOM     21  C   UNL     1       1.581   9.832  18.421  0.00  0.00    +0.000 A 
ATOM     22  C   UNL     1       0.220  10.128  18.656  0.00  0.00    +0.000 A 
ATOM     23  C   UNL     1       0.093  11.474  18.387  0.00  0.00    +0.000 A 
ATOM     24  N   UNL     1       1.336  11.898  18.024  0.00  0.00    +0.000 N 
ATOM     25  N   UNL     1       2.253  10.916  18.009  0.00  0.00    +0.000 NA
ATOM     26  H   UNL     1       1.631  12.836  17.759  0.00  0.00    +0.000 HD
BRANCH  23  27
ATOM     27  C   UNL     1      -1.035  12.414  18.430  0.00  0.00    +0.000 C 
ATOM     28  F   UNL     1      -1.606  12.487  19.655  0.00  0.00    +0.000 F 
ATOM     29  F   UNL     1      -0.650  13.667  18.085  0.00  0.00    +0.000 F 
ATOM     30  F   UNL     1      -2.005  12.050  17.555  0.00  0.00    +0.000 F 
ENDBRANCH  23  27
ENDBRANCH  19  21
ENDBRANCH   2  16
TORSDOF 5
ENDMDL
