MODEL 1
REMARK VINA RESULT:      -6.6      0.000      0.000
REMARK  Name = 
REMARK  6 active torsions:
REMARK  status: ('A' for Active; 'I' for Inactive)
REMARK    1  A    between atoms: C_4  and  C_5
REMARK    2  A    between atoms: C_5  and  C_6
REMARK    3  A    between atoms: C_6  and  C_7
REMARK    4  A    between atoms: C_7  and  N_8
REMARK    5  A    between atoms: N_8  and  C_9
REMARK    6  A    between atoms: N_8  and  C_15
REMARK                            x       y       z     vdW  Elec       q    Type
REMARK                         _______ _______ _______ _____ _____    ______ ____
ROOT
ATOM      1  N   UNL     1       4.571   5.370  17.560  0.00  0.00    +0.000 N 
ENDROOT
BRANCH   1   2
ATOM      2  C   UNL     1       4.249   4.032  17.863  0.00  0.00    +0.000 A 
ATOM      3  C   UNL     1       4.812   3.394  18.986  0.00  0.00    +0.000 A 
ATOM      4  C   UNL     1       4.402   2.115  19.389  0.00  0.00    +0.000 A 
ATOM      5  C   UNL     1       3.444   1.428  18.653  0.00  0.00    +0.000 A 
ATOM      6  C   UNL     1       2.896   2.020  17.523  0.00  0.00    +0.000 A 
ATOM      7  C   UNL     1       3.289   3.307  17.137  0.00  0.00    +0.000 A 
ENDBRANCH   1   2
BRANCH   1   8
ATOM      8  C   UNL     1       5.441   5.774  16.453  0.00  0.00    +0.000 C 
ATOM      9  C   UNL     1       6.815   6.323  16.933  0.00  0.00    +0.000 C 
ATOM     10  N   UNL     1       7.451   5.645  15.782  0.00  0.00    +0.000 NA
ATOM     11  C   UNL     1       6.324   4.682  15.783  0.00  0.00    +0.000 C 
ATOM     12  H   UNL     1       8.351   5.217  15.994  0.00  0.00    +0.000 HD
ENDBRANCH   1   8
BRANCH   1  13
ATOM     13  C   UNL     1       4.178   6.423  18.524  0.00  0.00    +0.000 C 
BRANCH  13  14
ATOM     14  C   UNL     1       2.664   6.666  18.531  0.00  0.00    +0.000 C 
BRANCH  14  15
ATOM     15  C   UNL     1       2.099   6.587  19.958  0.00  0.00    +0.000 C 
BRANCH  15  19
ATOM     16  C   UNL     1       1.273   2.547  21.238  0.00  0.00    +0.000 A 
ATOM     17  C   UNL     1       0.624   3.073  20.124  0.00  0.00    +0.000 A 
ATOM     18  C   UNL     1       0.904   4.375  19.700  0.00  0.00    +0.000 A 
ATOM     19  C   UNL     1       1.836   5.163  20.388  0.00  0.00    +0.000 A 
ATOM     20  C   UNL     1       2.491   4.619  21.502  0.00  0.00    +0.000 A 
ATOM     21  C   UNL     1       2.209   3.319  21.926  0.00  0.00    +0.000 A 
ENDBRANCH  15  19
ENDBRANCH  14  15
ENDBRANCH  13  14
ENDBRANCH   1  13
TORSDOF 6
ENDMDL
MODEL 2
REMARK VINA RESULT:      -6.5      1.460      3.550
REMARK  Name = 
REMARK  6 active torsions:
REMARK  status: ('A' for Active; 'I' for Inactive)
REMARK    1  A    between atoms: C_4  and  C_5
REMARK    2  A    between atoms: C_5  and  C_6
REMARK    3  A    between atoms: C_6  and  C_7
REMARK    4  A    between atoms: C_7  and  N_8
REMARK    5  A    between atoms: N_8  and  C_9
REMARK    6  A    between atoms: N_8  and  C_15
REMARK                            x       y       z     vdW  Elec       q    Type
REMARK                         _______ _______ _______ _____ _____    ______ ____
ROOT
ATOM      1  N   UNL     1       4.745   4.802  17.960  0.00  0.00    +0.000 N 
ENDROOT
BRANCH   1   2
ATOM      2  C   UNL     1       3.944   5.906  18.312  0.00  0.00    +0.000 A 
ATOM      3  C   UNL     1       3.814   7.006  17.442  0.00  0.00    +0.000 A 
ATOM      4  C   UNL     1       2.916   8.051  17.705  0.00  0.00    +0.000 A 
ATOM      5  C   UNL     1       2.154   8.037  18.866  0.00  0.00    +0.000 A 
ATOM      6  C   UNL     1       2.286   6.980  19.759  0.00  0.00    +0.000 A 
ATOM      7  C   UNL     1       3.165   5.927  19.482  0.00  0.00    +0.000 A 
ENDBRANCH   1   2
BRANCH   1   8
ATOM      8  C   UNL     1       6.011   4.463  18.614  0.00  0.00    +0.000 C 
ATOM      9  C   UNL     1       7.229   4.537  17.650  0.00  0.00    +0.000 C 
ATOM     10  N   UNL     1       8.032   5.097  18.759  0.00  0.00    +0.000 NA
ATOM     11  C   UNL     1       6.773   5.598  19.360  0.00  0.00    +0.000 C 
ATOM     12  H   UNL     1       8.672   5.840  18.479  0.00  0.00    +0.000 HD
ENDBRANCH   1   8
BRANCH   1  13
ATOM     13  C   UNL     1       4.402   4.049  16.732  0.00  0.00    +0.000 C 
BRANCH  13  14
ATOM     14  C   UNL     1       2.978   3.482  16.778  0.00  0.00    +0.000 C 
BRANCH  14  15
ATOM     15  C   UNL     1       2.923   2.199  17.621  0.00  0.00    +0.000 C 
BRANCH  15  19
ATOM     16  C   UNL     1       1.564   3.047  21.631  0.00  0.00    +0.000 A 
ATOM     17  C   UNL     1       0.698   3.207  20.552  0.00  0.00    +0.000 A 
ATOM     18  C   UNL     1       1.133   2.916  19.256  0.00  0.00    +0.000 A 
ATOM     19  C   UNL     1       2.439   2.463  19.028  0.00  0.00    +0.000 A 
ATOM     20  C   UNL     1       3.299   2.297  20.123  0.00  0.00    +0.000 A 
ATOM     21  C   UNL     1       2.864   2.589  21.417  0.00  0.00    +0.000 A 
ENDBRANCH  15  19
ENDBRANCH  14  15
ENDBRANCH  13  14
ENDBRANCH   1  13
TORSDOF 6
ENDMDL
MODEL 3
REMARK VINA RESULT:      -6.5      0.504      1.185
REMARK  Name = 
REMARK  6 active torsions:
REMARK  status: ('A' for Active; 'I' for Inactive)
REMARK    1  A    between atoms: C_4  and  C_5
REMARK    2  A    between atoms: C_5  and  C_6
REMARK    3  A    between atoms: C_6  and  C_7
REMARK    4  A    between atoms: C_7  and  N_8
REMARK    5  A    between atoms: N_8  and  C_9
REMARK    6  A    between atoms: N_8  and  C_15
REMARK                            x       y       z     vdW  Elec       q    Type
REMARK                         _______ _______ _______ _____ _____    ______ ____
ROOT
ATOM      1  N   UNL     1       4.720   5.329  17.478  0.00  0.00    +0.000 N 
ENDROOT
BRANCH   1   2
ATOM      2  C   UNL     1       4.241   4.078  17.916  0.00  0.00    +0.000 A 
ATOM      3  C   UNL     1       3.269   3.381  17.172  0.00  0.00    +0.000 A 
ATOM      4  C   UNL     1       2.878   2.077  17.509  0.00  0.00    +0.000 A 
ATOM      5  C   UNL     1       3.426   1.454  18.623  0.00  0.00    +0.000 A 
ATOM      6  C   UNL     1       4.363   2.130  19.394  0.00  0.00    +0.000 A 
ATOM      7  C   UNL     1       4.768   3.422  19.041  0.00  0.00    +0.000 A 
ENDBRANCH   1   2
BRANCH   1   8
ATOM      8  C   UNL     1       5.965   5.515  16.729  0.00  0.00    +0.000 C 
ATOM      9  C   UNL     1       7.225   5.080  17.532  0.00  0.00    +0.000 C 
ATOM     10  N   UNL     1       7.798   4.543  16.279  0.00  0.00    +0.000 NA
ATOM     11  C   UNL     1       6.417   4.376  15.770  0.00  0.00    +0.000 C 
ATOM     12  H   UNL     1       8.299   3.663  16.392  0.00  0.00    +0.000 HD
ENDBRANCH   1   8
BRANCH   1  13
ATOM     13  C   UNL     1       4.042   6.551  17.967  0.00  0.00    +0.000 C 
BRANCH  13  14
ATOM     14  C   UNL     1       2.537   6.337  18.168  0.00  0.00    +0.000 C 
BRANCH  14  15
ATOM     15  C   UNL     1       2.159   6.432  19.655  0.00  0.00    +0.000 C 
BRANCH  15  19
ATOM     16  C   UNL     1       1.254   2.598  21.422  0.00  0.00    +0.000 A 
ATOM     17  C   UNL     1       0.566   3.024  20.288  0.00  0.00    +0.000 A 
ATOM     18  C   UNL     1       0.871   4.258  19.706  0.00  0.00    +0.000 A 
ATOM     19  C   UNL     1       1.867   5.077  20.255  0.00  0.00    +0.000 A 
ATOM     20  C   UNL     1       2.559   4.634  21.391  0.00  0.00    +0.000 A 
ATOM     21  C   UNL     1       2.252   3.401  21.972  0.00  0.00    +0.000 A 
ENDBRANCH  15  19
ENDBRANCH  14  15
ENDBRANCH  13  14
ENDBRANCH   1  13
TORSDOF 6
ENDMDL
MODEL 4
REMARK VINA RESULT:      -6.4      1.038      3.484
REMARK  Name = 
REMARK  6 active torsions:
REMARK  status: ('A' for Active; 'I' for Inactive)
REMARK    1  A    between atoms: C_4  and  C_5
REMARK    2  A    between atoms: C_5  and  C_6
REMARK    3  A    between atoms: C_6  and  C_7
REMARK    4  A    between atoms: C_7  and  N_8
REMARK    5  A    between atoms: N_8  and  C_9
REMARK    6  A    between atoms: N_8  and  C_15
REMARK                            x       y       z     vdW  Elec       q    Type
REMARK                         _______ _______ _______ _____ _____    ______ ____
ROOT
ATOM      1  N   UNL     1       5.074   5.372  17.600  0.00  0.00    +0.000 N 
ENDROOT
BRANCH   1   2
ATOM      2  C   UNL     1       4.103   6.225  18.164  0.00  0.00    +0.000 A 
ATOM      3  C   UNL     1       3.629   7.343  17.451  0.00  0.00    +0.000 A 
ATOM      4  C   UNL     1       2.567   8.124  17.929  0.00  0.00    +0.000 A 
ATOM      5  C   UNL     1       1.978   7.825  19.151  0.00  0.00    +0.000 A 
ATOM      6  C   UNL     1       2.448   6.747  19.890  0.00  0.00    +0.000 A 
ATOM      7  C   UNL     1       3.492   5.954  19.400  0.00  0.00    +0.000 A 
ENDBRANCH   1   2
BRANCH   1   8
ATOM      8  C   UNL     1       6.130   5.819  16.689  0.00  0.00    +0.000 C 
ATOM      9  C   UNL     1       7.267   4.771  16.520  0.00  0.00    +0.000 C 
ATOM     10  N   UNL     1       7.348   5.138  15.090  0.00  0.00    +0.000 NA
ATOM     11  C   UNL     1       5.933   5.572  15.165  0.00  0.00    +0.000 C 
ATOM     12  H   UNL     1       7.498   4.348  14.463  0.00  0.00    +0.000 HD
ENDBRANCH   1   8
BRANCH   1  13
ATOM     13  C   UNL     1       4.908   3.910  17.770  0.00  0.00    +0.000 C 
BRANCH  13  14
ATOM     14  C   UNL     1       3.721   3.365  16.967  0.00  0.00    +0.000 C 
BRANCH  14  15
ATOM     15  C   UNL     1       3.074   2.168  17.681  0.00  0.00    +0.000 C 
BRANCH  15  19
ATOM     16  C   UNL     1       1.365   3.180  21.515  0.00  0.00    +0.000 A 
ATOM     17  C   UNL     1       2.651   2.648  21.442  0.00  0.00    +0.000 A 
ATOM     18  C   UNL     1       3.210   2.337  20.200  0.00  0.00    +0.000 A 
ATOM     19  C   UNL     1       2.488   2.554  19.019  0.00  0.00    +0.000 A 
ATOM     20  C   UNL     1       1.198   3.098  19.104  0.00  0.00    +0.000 A 
ATOM     21  C   UNL     1       0.640   3.407  20.346  0.00  0.00    +0.000 A 
ENDBRANCH  15  19
ENDBRANCH  14  15
ENDBRANCH  13  14
ENDBRANCH   1  13
TORSDOF 6
ENDMDL
MODEL 5
REMARK VINA RESULT:      -6.4      1.039      3.299
REMARK  Name = 
REMARK  6 active torsions:
REMARK  status: ('A' for Active; 'I' for Inactive)
REMARK    1  A    between atoms: C_4  and  C_5
REMARK    2  A    between atoms: C_5  and  C_6
REMARK    3  A    between atoms: C_6  and  C_7
REMARK    4  A    between atoms: C_7  and  N_8
REMARK    5  A    between atoms: N_8  and  C_9
REMARK    6  A    between atoms: N_8  and  C_15
REMARK                            x       y       z     vdW  Elec       q    Type
REMARK                         _______ _______ _______ _____ _____    ______ ____
ROOT
ATOM      1  N   UNL     1       4.797   5.375  17.150  0.00  0.00    +0.000 N 
ENDROOT
BRANCH   1   2
ATOM      2  C   UNL     1       3.935   6.196  17.904  0.00  0.00    +0.000 A 
ATOM      3  C   UNL     1       3.431   7.396  17.364  0.00  0.00    +0.000 A 
ATOM      4  C   UNL     1       2.464   8.157  18.038  0.00  0.00    +0.000 A 
ATOM      5  C   UNL     1       2.008   7.754  19.286  0.00  0.00    +0.000 A 
ATOM      6  C   UNL     1       2.513   6.593  19.857  0.00  0.00    +0.000 A 
ATOM      7  C   UNL     1       3.459   5.822  19.172  0.00  0.00    +0.000 A 
ENDBRANCH   1   2
BRANCH   1   8
ATOM      8  C   UNL     1       5.683   5.867  16.091  0.00  0.00    +0.000 C 
ATOM      9  C   UNL     1       7.184   5.832  16.494  0.00  0.00    +0.000 C 
ATOM     10  N   UNL     1       7.512   5.423  15.111  0.00  0.00    +0.000 NA
ATOM     11  C   UNL     1       6.146   4.858  15.001  0.00  0.00    +0.000 C 
ATOM     12  H   UNL     1       8.248   4.721  15.046  0.00  0.00    +0.000 HD
ENDBRANCH   1   8
BRANCH   1  13
ATOM     13  C   UNL     1       4.665   3.907  17.286  0.00  0.00    +0.000 C 
BRANCH  13  14
ATOM     14  C   UNL     1       3.274   3.410  16.877  0.00  0.00    +0.000 C 
BRANCH  14  15
ATOM     15  C   UNL     1       2.889   2.142  17.656  0.00  0.00    +0.000 C 
BRANCH  15  19
ATOM     16  C   UNL     1       1.470   3.141  21.610  0.00  0.00    +0.000 A 
ATOM     17  C   UNL     1       0.635   3.302  20.507  0.00  0.00    +0.000 A 
ATOM     18  C   UNL     1       1.088   2.962  19.229  0.00  0.00    +0.000 A 
ATOM     19  C   UNL     1       2.383   2.459  19.044  0.00  0.00    +0.000 A 
ATOM     20  C   UNL     1       3.212   2.292  20.163  0.00  0.00    +0.000 A 
ATOM     21  C   UNL     1       2.757   2.633  21.438  0.00  0.00    +0.000 A 
ENDBRANCH  15  19
ENDBRANCH  14  15
ENDBRANCH  13  14
ENDBRANCH   1  13
TORSDOF 6
ENDMDL
MODEL 6
REMARK VINA RESULT:      -6.4      0.990      3.280
REMARK  Name = 
REMARK  6 active torsions:
REMARK  status: ('A' for Active; 'I' for Inactive)
REMARK    1  A    between atoms: C_4  and  C_5
REMARK    2  A    between atoms: C_5  and  C_6
REMARK    3  A    between atoms: C_6  and  C_7
REMARK    4  A    between atoms: C_7  and  N_8
REMARK    5  A    between atoms: N_8  and  C_9
REMARK    6  A    between atoms: N_8  and  C_15
REMARK                            x       y       z     vdW  Elec       q    Type
REMARK                         _______ _______ _______ _____ _____    ______ ____
ROOT
ATOM      1  N   UNL     1       4.799   5.647  17.515  0.00  0.00    +0.000 N 
ENDROOT
BRANCH   1   2
ATOM      2  C   UNL     1       3.751   6.370  18.120  0.00  0.00    +0.000 A 
ATOM      3  C   UNL     1       3.246   5.985  19.378  0.00  0.00    +0.000 A 
ATOM      4  C   UNL     1       2.303   6.765  20.063  0.00  0.00    +0.000 A 
ATOM      5  C   UNL     1       1.817   7.932  19.487  0.00  0.00    +0.000 A 
ATOM      6  C   UNL     1       2.273   8.318  18.233  0.00  0.00    +0.000 A 
ATOM      7  C   UNL     1       3.232   7.550  17.563  0.00  0.00    +0.000 A 
ENDBRANCH   1   2
BRANCH   1   8
ATOM      8  C   UNL     1       5.673   6.187  16.471  0.00  0.00    +0.000 C 
ATOM      9  C   UNL     1       7.177   5.888  16.727  0.00  0.00    +0.000 C 
ATOM     10  N   UNL     1       7.349   5.675  15.273  0.00  0.00    +0.000 NA
ATOM     11  C   UNL     1       5.912   5.321  15.200  0.00  0.00    +0.000 C 
ATOM     12  H   UNL     1       7.970   4.903  15.034  0.00  0.00    +0.000 HD
ENDBRANCH   1   8
BRANCH   1  13
ATOM     13  C   UNL     1       4.906   4.197  17.797  0.00  0.00    +0.000 C 
BRANCH  13  14
ATOM     14  C   UNL     1       3.836   3.383  17.060  0.00  0.00    +0.000 C 
BRANCH  14  15
ATOM     15  C   UNL     1       3.458   2.122  17.853  0.00  0.00    +0.000 C 
BRANCH  15  19
ATOM     16  C   UNL     1       1.294   3.157  21.444  0.00  0.00    +0.000 A 
ATOM     17  C   UNL     1       0.665   3.233  20.203  0.00  0.00    +0.000 A 
ATOM     18  C   UNL     1       1.361   2.881  19.043  0.00  0.00    +0.000 A 
ATOM     19  C   UNL     1       2.693   2.452  19.114  0.00  0.00    +0.000 A 
ATOM     20  C   UNL     1       3.313   2.371  20.368  0.00  0.00    +0.000 A 
ATOM     21  C   UNL     1       2.617   2.724  21.527  0.00  0.00    +0.000 A 
ENDBRANCH  15  19
ENDBRANCH  14  15
ENDBRANCH  13  14
ENDBRANCH   1  13
TORSDOF 6
ENDMDL
MODEL 7
REMARK VINA RESULT:      -6.2      1.078      3.521
REMARK  Name = 
REMARK  6 active torsions:
REMARK  status: ('A' for Active; 'I' for Inactive)
REMARK    1  A    between atoms: C_4  and  C_5
REMARK    2  A    between atoms: C_5  and  C_6
REMARK    3  A    between atoms: C_6  and  C_7
REMARK    4  A    between atoms: C_7  and  N_8
REMARK    5  A    between atoms: N_8  and  C_9
REMARK    6  A    between atoms: N_8  and  C_15
REMARK                            x       y       z     vdW  Elec       q    Type
REMARK                         _______ _______ _______ _____ _____    ______ ____
ROOT
ATOM      1  N   UNL     1       4.662   5.821  17.695  0.00  0.00    +0.000 N 
ENDROOT
BRANCH   1   2
ATOM      2  C   UNL     1       3.598   6.566  18.242  0.00  0.00    +0.000 A 
ATOM      3  C   UNL     1       3.025   6.201  19.476  0.00  0.00    +0.000 A 
ATOM      4  C   UNL     1       2.064   7.004  20.108  0.00  0.00    +0.000 A 
ATOM      5  C   UNL     1       1.626   8.173  19.499  0.00  0.00    +0.000 A 
ATOM      6  C   UNL     1       2.149   8.540  18.266  0.00  0.00    +0.000 A 
ATOM      7  C   UNL     1       3.127   7.750  17.650  0.00  0.00    +0.000 A 
ENDBRANCH   1   2
BRANCH   1   8
ATOM      8  C   UNL     1       5.622   6.351  16.725  0.00  0.00    +0.000 C 
ATOM      9  C   UNL     1       6.723   7.231  17.382  0.00  0.00    +0.000 C 
ATOM     10  N   UNL     1       7.704   6.654  16.437  0.00  0.00    +0.000 NA
ATOM     11  C   UNL     1       6.836   5.457  16.336  0.00  0.00    +0.000 C 
ATOM     12  H   UNL     1       8.616   6.460  16.847  0.00  0.00    +0.000 HD
ENDBRANCH   1   8
BRANCH   1  13
ATOM     13  C   UNL     1       4.704   4.363  17.954  0.00  0.00    +0.000 C 
BRANCH  13  14
ATOM     14  C   UNL     1       3.761   3.583  17.030  0.00  0.00    +0.000 C 
BRANCH  14  15
ATOM     15  C   UNL     1       3.237   2.315  17.720  0.00  0.00    +0.000 C 
BRANCH  15  19
ATOM     16  C   UNL     1       1.300   3.097  21.499  0.00  0.00    +0.000 A 
ATOM     17  C   UNL     1       2.626   2.672  21.469  0.00  0.00    +0.000 A 
ATOM     18  C   UNL     1       3.258   2.436  20.245  0.00  0.00    +0.000 A 
ATOM     19  C   UNL     1       2.568   2.621  19.040  0.00  0.00    +0.000 A 
ATOM     20  C   UNL     1       1.236   3.057  19.082  0.00  0.00    +0.000 A 
ATOM     21  C   UNL     1       0.606   3.292  20.306  0.00  0.00    +0.000 A 
ENDBRANCH  15  19
ENDBRANCH  14  15
ENDBRANCH  13  14
ENDBRANCH   1  13
TORSDOF 6
ENDMDL
MODEL 8
REMARK VINA RESULT:      -6.2      1.496      4.098
REMARK  Name = 
REMARK  6 active torsions:
REMARK  status: ('A' for Active; 'I' for Inactive)
REMARK    1  A    between atoms: C_4  and  C_5
REMARK    2  A    between atoms: C_5  and  C_6
REMARK    3  A    between atoms: C_6  and  C_7
REMARK    4  A    between atoms: C_7  and  N_8
REMARK    5  A    between atoms: N_8  and  C_9
REMARK    6  A    between atoms: N_8  and  C_15
REMARK                            x       y       z     vdW  Elec       q    Type
REMARK                         _______ _______ _______ _____ _____    ______ ____
ROOT
ATOM      1  N   UNL     1       4.424   5.293  17.445  0.00  0.00    +0.000 N 
ENDROOT
BRANCH   1   2
ATOM      2  C   UNL     1       5.700   5.781  17.789  0.00  0.00    +0.000 A 
ATOM      3  C   UNL     1       6.252   6.887  17.114  0.00  0.00    +0.000 A 
ATOM      4  C   UNL     1       7.455   7.478  17.529  0.00  0.00    +0.000 A 
ATOM      5  C   UNL     1       8.151   6.951  18.609  0.00  0.00    +0.000 A 
ATOM      6  C   UNL     1       7.647   5.841  19.273  0.00  0.00    +0.000 A 
ATOM      7  C   UNL     1       6.434   5.268  18.872  0.00  0.00    +0.000 A 
ENDBRANCH   1   2
BRANCH   1   8
ATOM      8  C   UNL     1       3.166   5.867  17.928  0.00  0.00    +0.000 C 
ATOM      9  C   UNL     1       3.124   6.015  19.476  0.00  0.00    +0.000 C 
ATOM     10  N   UNL     1       2.408   7.298  19.302  0.00  0.00    +0.000 NA
ATOM     11  C   UNL     1       3.039   7.418  17.966  0.00  0.00    +0.000 C 
ATOM     12  H   UNL     1       2.694   8.028  19.953  0.00  0.00    +0.000 HD
ENDBRANCH   1   8
BRANCH   1  13
ATOM     13  C   UNL     1       4.338   4.007  16.716  0.00  0.00    +0.000 C 
BRANCH  13  14
ATOM     14  C   UNL     1       2.934   3.394  16.785  0.00  0.00    +0.000 C 
BRANCH  14  15
ATOM     15  C   UNL     1       2.924   2.134  17.665  0.00  0.00    +0.000 C 
BRANCH  15  19
ATOM     16  C   UNL     1       1.587   3.059  21.665  0.00  0.00    +0.000 A 
ATOM     17  C   UNL     1       0.700   3.145  20.595  0.00  0.00    +0.000 A 
ATOM     18  C   UNL     1       1.128   2.829  19.303  0.00  0.00    +0.000 A 
ATOM     19  C   UNL     1       2.450   2.425  19.070  0.00  0.00    +0.000 A 
ATOM     20  C   UNL     1       3.332   2.333  20.156  0.00  0.00    +0.000 A 
ATOM     21  C   UNL     1       2.902   2.650  21.446  0.00  0.00    +0.000 A 
ENDBRANCH  15  19
ENDBRANCH  14  15
ENDBRANCH  13  14
ENDBRANCH   1  13
TORSDOF 6
ENDMDL
MODEL 9
REMARK VINA RESULT:      -6.2      1.471      3.677
REMARK  Name = 
REMARK  6 active torsions:
REMARK  status: ('A' for Active; 'I' for Inactive)
REMARK    1  A    between atoms: C_4  and  C_5
REMARK    2  A    between atoms: C_5  and  C_6
REMARK    3  A    between atoms: C_6  and  C_7
REMARK    4  A    between atoms: C_7  and  N_8
REMARK    5  A    between atoms: N_8  and  C_9
REMARK    6  A    between atoms: N_8  and  C_15
REMARK                            x       y       z     vdW  Elec       q    Type
REMARK                         _______ _______ _______ _____ _____    ______ ____
ROOT
ATOM      1  N   UNL     1       4.903   5.738  17.598  0.00  0.00    +0.000 N 
ENDROOT
BRANCH   1   2
ATOM      2  C   UNL     1       3.910   6.584  18.130  0.00  0.00    +0.000 A 
ATOM      3  C   UNL     1       3.444   7.694  17.397  0.00  0.00    +0.000 A 
ATOM      4  C   UNL     1       2.362   8.468  17.842  0.00  0.00    +0.000 A 
ATOM      5  C   UNL     1       1.745   8.171  19.050  0.00  0.00    +0.000 A 
ATOM      6  C   UNL     1       2.205   7.102  19.809  0.00  0.00    +0.000 A 
ATOM      7  C   UNL     1       3.269   6.317  19.351  0.00  0.00    +0.000 A 
ENDBRANCH   1   2
BRANCH   1   8
ATOM      8  C   UNL     1       6.336   5.882  17.867  0.00  0.00    +0.000 C 
ATOM      9  C   UNL     1       6.745   5.344  19.268  0.00  0.00    +0.000 C 
ATOM     10  N   UNL     1       7.994   4.825  18.668  0.00  0.00    +0.000 NA
ATOM     11  C   UNL     1       7.288   4.757  17.366  0.00  0.00    +0.000 C 
ATOM     12  H   UNL     1       8.280   3.914  19.022  0.00  0.00    +0.000 HD
ENDBRANCH   1   8
BRANCH   1  13
ATOM     13  C   UNL     1       4.511   4.769  16.548  0.00  0.00    +0.000 C 
BRANCH  13  14
ATOM     14  C   UNL     1       4.277   3.364  17.116  0.00  0.00    +0.000 C 
BRANCH  14  15
ATOM     15  C   UNL     1       2.777   3.089  17.307  0.00  0.00    +0.000 C 
BRANCH  15  19
ATOM     16  C   UNL     1       1.622   2.998  21.467  0.00  0.00    +0.000 A 
ATOM     17  C   UNL     1       2.919   2.652  21.095  0.00  0.00    +0.000 A 
ATOM     18  C   UNL     1       3.297   2.698  19.750  0.00  0.00    +0.000 A 
ATOM     19  C   UNL     1       2.381   3.089  18.765  0.00  0.00    +0.000 A 
ATOM     20  C   UNL     1       1.081   3.445  19.152  0.00  0.00    +0.000 A 
ATOM     21  C   UNL     1       0.703   3.397  20.496  0.00  0.00    +0.000 A 
ENDBRANCH  15  19
ENDBRANCH  14  15
ENDBRANCH  13  14
ENDBRANCH   1  13
TORSDOF 6
ENDMDL
