MODEL 1
REMARK VINA RESULT:      -7.7      0.000      0.000
REMARK  Name = 
REMARK  8 active torsions:
REMARK  status: ('A' for Active; 'I' for Inactive)
REMARK    1  A    between atoms: C_1  and  C_2
REMARK    2  A    between atoms: C_2  and  O_3
REMARK    3  A    between atoms: O_3  and  C_4
REMARK    4  A    between atoms: C_7  and  C_8
REMARK    5  A    between atoms: N_10  and  C_11
REMARK    6  A    between atoms: C_17  and  N_18
REMARK    7  A    between atoms: C_24  and  O_25
REMARK    8  A    between atoms: O_25  and  C_26
REMARK                            x       y       z     vdW  Elec       q    Type
REMARK                         _______ _______ _______ _____ _____    ______ ____
ROOT
ATOM      1  C   UNL     1       2.171   7.754  18.802  0.00  0.00    +0.000 C 
ATOM      2  O   UNL     1       2.102   8.111  17.633  0.00  0.00    +0.000 OA
ATOM      3  N   UNL     1       2.726   6.573  19.264  0.00  0.00    +0.000 N 
ATOM      4  H   UNL     1       2.486   6.266  20.213  0.00  0.00    +0.000 HD
ENDROOT
BRANCH   3   5
ATOM      5  C   UNL     1       3.426   5.615  18.479  0.00  0.00    +0.000 A 
ATOM      6  C   UNL     1       4.146   6.029  17.341  0.00  0.00    +0.000 A 
ATOM      7  C   UNL     1       4.835   5.119  16.545  0.00  0.00    +0.000 A 
ATOM      8 CL   UNL     1       5.651   5.661  15.132  0.00  0.00    +0.000 Cl
ATOM      9  C   UNL     1       4.863   3.776  16.886  0.00  0.00    +0.000 A 
ATOM     10  C   UNL     1       4.181   3.339  18.020  0.00  0.00    +0.000 A 
ATOM     11  C   UNL     1       3.441   4.239  18.817  0.00  0.00    +0.000 A 
BRANCH  11  12
ATOM     12  N   UNL     1       2.680   3.710  19.902  0.00  0.00    +0.000 N 
ATOM     13  C   UNL     1       3.118   2.972  20.981  0.00  0.00    +0.000 A 
ATOM     14  N   UNL     1       2.105   2.561  21.708  0.00  0.00    +0.000 NA
ATOM     15  C   UNL     1       1.038   3.091  21.058  0.00  0.00    +0.000 A 
ATOM     16  N   UNL     1       1.324   3.832  19.983  0.00  0.00    +0.000 NA
ENDBRANCH  11  12
ENDBRANCH   3   5
BRANCH   1  20
ATOM     17  C   UNL     1       0.430  10.259  21.817  0.00  0.00    +0.000 A 
ATOM     18  C   UNL     1       0.891   8.968  22.113  0.00  0.00    +0.000 A 
ATOM     19  C   UNL     1       1.459   8.172  21.123  0.00  0.00    +0.000 A 
ATOM     20  C   UNL     1       1.543   8.641  19.810  0.00  0.00    +0.000 A 
ATOM     21  C   UNL     1       0.982   9.876  19.484  0.00  0.00    +0.000 A 
ATOM     22  C   UNL     1       0.419  10.695  20.479  0.00  0.00    +0.000 A 
BRANCH  22  23
ATOM     23  O   UNL     1      -0.067  11.864  19.958  0.00  0.00    +0.000 OA
ATOM     24  C   UNL     1       0.769  13.009  19.927  0.00  0.00    +0.000 C 
ENDBRANCH  22  23
BRANCH  17  25
ATOM     25  O   UNL     1      -0.009  11.092  22.815  0.00  0.00    +0.000 OA
BRANCH  25  27
ATOM     26  C   UNL     1      -1.982  12.422  23.143  0.00  0.00    +0.000 C 
ATOM     27  C   UNL     1      -1.413  11.018  23.089  0.00  0.00    +0.000 C 
ENDBRANCH  25  27
ENDBRANCH  17  25
ENDBRANCH   1  20
TORSDOF 6
ENDMDL
MODEL 2
REMARK VINA RESULT:      -7.6      0.969      1.126
REMARK  Name = 
REMARK  8 active torsions:
REMARK  status: ('A' for Active; 'I' for Inactive)
REMARK    1  A    between atoms: C_1  and  C_2
REMARK    2  A    between atoms: C_2  and  O_3
REMARK    3  A    between atoms: O_3  and  C_4
REMARK    4  A    between atoms: C_7  and  C_8
REMARK    5  A    between atoms: N_10  and  C_11
REMARK    6  A    between atoms: C_17  and  N_18
REMARK    7  A    between atoms: C_24  and  O_25
REMARK    8  A    between atoms: O_25  and  C_26
REMARK                            x       y       z     vdW  Elec       q    Type
REMARK                         _______ _______ _______ _____ _____    ______ ____
ROOT
ATOM      1  C   UNL     1       2.259   7.603  18.605  0.00  0.00    +0.000 C 
ATOM      2  O   UNL     1       1.987   7.857  17.438  0.00  0.00    +0.000 OA
ATOM      3  N   UNL     1       3.030   6.544  19.052  0.00  0.00    +0.000 N 
ATOM      4  H   UNL     1       2.962   6.282  20.042  0.00  0.00    +0.000 HD
ENDROOT
BRANCH   3   5
ATOM      5  C   UNL     1       3.746   5.627  18.234  0.00  0.00    +0.000 A 
ATOM      6  C   UNL     1       4.838   6.075  17.464  0.00  0.00    +0.000 A 
ATOM      7  C   UNL     1       5.556   5.208  16.646  0.00  0.00    +0.000 A 
ATOM      8 CL   UNL     1       6.844   5.810  15.679  0.00  0.00    +0.000 Cl
ATOM      9  C   UNL     1       5.235   3.861  16.605  0.00  0.00    +0.000 A 
ATOM     10  C   UNL     1       4.175   3.382  17.373  0.00  0.00    +0.000 A 
ATOM     11  C   UNL     1       3.407   4.252  18.178  0.00  0.00    +0.000 A 
BRANCH  11  12
ATOM     12  N   UNL     1       2.271   3.717  18.857  0.00  0.00    +0.000 N 
ATOM     13  C   UNL     1       1.318   2.842  18.381  0.00  0.00    +0.000 A 
ATOM     14  N   UNL     1       0.358   2.673  19.261  0.00  0.00    +0.000 NA
ATOM     15  C   UNL     1       0.766   3.450  20.297  0.00  0.00    +0.000 A 
ATOM     16  N   UNL     1       1.936   4.072  20.130  0.00  0.00    +0.000 NA
ENDBRANCH  11  12
ENDBRANCH   3   5
BRANCH   1  20
ATOM     17  C   UNL     1       0.582  10.067  21.689  0.00  0.00    +0.000 A 
ATOM     18  C   UNL     1       1.036   8.766  21.955  0.00  0.00    +0.000 A 
ATOM     19  C   UNL     1       1.583   7.985  20.943  0.00  0.00    +0.000 A 
ATOM     20  C   UNL     1       1.653   8.477  19.637  0.00  0.00    +0.000 A 
ATOM     21  C   UNL     1       1.098   9.723  19.342  0.00  0.00    +0.000 A 
ATOM     22  C   UNL     1       0.557  10.527  20.360  0.00  0.00    +0.000 A 
BRANCH  22  23
ATOM     23  O   UNL     1       0.074  11.710  19.868  0.00  0.00    +0.000 OA
ATOM     24  C   UNL     1      -1.202  11.734  19.250  0.00  0.00    +0.000 C 
ENDBRANCH  22  23
BRANCH  17  25
ATOM     25  O   UNL     1       0.165  10.885  22.709  0.00  0.00    +0.000 OA
BRANCH  25  27
ATOM     26  C   UNL     1      -2.015  11.863  22.955  0.00  0.00    +0.000 C 
ATOM     27  C   UNL     1      -1.164  10.630  23.181  0.00  0.00    +0.000 C 
ENDBRANCH  25  27
ENDBRANCH  17  25
ENDBRANCH   1  20
TORSDOF 6
ENDMDL
MODEL 3
REMARK VINA RESULT:      -7.2      2.495      4.023
REMARK  Name = 
REMARK  8 active torsions:
REMARK  status: ('A' for Active; 'I' for Inactive)
REMARK    1  A    between atoms: C_1  and  C_2
REMARK    2  A    between atoms: C_2  and  O_3
REMARK    3  A    between atoms: O_3  and  C_4
REMARK    4  A    between atoms: C_7  and  C_8
REMARK    5  A    between atoms: N_10  and  C_11
REMARK    6  A    between atoms: C_17  and  N_18
REMARK    7  A    between atoms: C_24  and  O_25
REMARK    8  A    between atoms: O_25  and  C_26
REMARK                            x       y       z     vdW  Elec       q    Type
REMARK                         _______ _______ _______ _____ _____    ______ ____
ROOT
ATOM      1  C   UNL     1       1.958   7.069  19.579  0.00  0.00    +0.000 C 
ATOM      2  O   UNL     1       2.015   6.524  20.675  0.00  0.00    +0.000 OA
ATOM      3  N   UNL     1       2.230   6.478  18.357  0.00  0.00    +0.000 N 
ATOM      4  H   UNL     1       2.411   7.091  17.555  0.00  0.00    +0.000 HD
ENDROOT
BRANCH   3   5
ATOM      5  C   UNL     1       2.505   5.100  18.138  0.00  0.00    +0.000 A 
ATOM      6  C   UNL     1       1.545   4.128  18.482  0.00  0.00    +0.000 A 
ATOM      7  C   UNL     1       1.782   2.770  18.289  0.00  0.00    +0.000 A 
ATOM      8 CL   UNL     1       0.606   1.615  18.779  0.00  0.00    +0.000 Cl
ATOM      9  C   UNL     1       2.966   2.345  17.708  0.00  0.00    +0.000 A 
ATOM     10  C   UNL     1       3.926   3.284  17.334  0.00  0.00    +0.000 A 
ATOM     11  C   UNL     1       3.722   4.664  17.559  0.00  0.00    +0.000 A 
BRANCH  11  12
ATOM     12  N   UNL     1       4.787   5.562  17.251  0.00  0.00    +0.000 N 
ATOM     13  C   UNL     1       5.243   5.962  16.013  0.00  0.00    +0.000 A 
ATOM     14  N   UNL     1       6.320   6.704  16.129  0.00  0.00    +0.000 NA
ATOM     15  C   UNL     1       6.493   6.767  17.474  0.00  0.00    +0.000 A 
ATOM     16  N   UNL     1       5.573   6.132  18.207  0.00  0.00    +0.000 NA
ENDBRANCH  11  12
ENDBRANCH   3   5
BRANCH   1  20
ATOM     17  C   UNL     1       0.985  11.243  19.414  0.00  0.00    +0.000 A 
ATOM     18  C   UNL     1       1.494  10.564  18.297  0.00  0.00    +0.000 A 
ATOM     19  C   UNL     1       1.797   9.208  18.368  0.00  0.00    +0.000 A 
ATOM     20  C   UNL     1       1.632   8.515  19.569  0.00  0.00    +0.000 A 
ATOM     21  C   UNL     1       1.238   9.209  20.714  0.00  0.00    +0.000 A 
ATOM     22  C   UNL     1       0.914  10.575  20.650  0.00  0.00    +0.000 A 
BRANCH  22  23
ATOM     23  O   UNL     1       0.544  11.066  21.874  0.00  0.00    +0.000 OA
ATOM     24  C   UNL     1      -0.604  10.535  22.514  0.00  0.00    +0.000 C 
ENDBRANCH  22  23
BRANCH  17  25
ATOM     25  O   UNL     1       0.562  12.545  19.309  0.00  0.00    +0.000 OA
BRANCH  25  27
ATOM     26  C   UNL     1      -1.829  12.342  19.207  0.00  0.00    +0.000 C 
ATOM     27  C   UNL     1      -0.573  12.744  18.459  0.00  0.00    +0.000 C 
ENDBRANCH  25  27
ENDBRANCH  17  25
ENDBRANCH   1  20
TORSDOF 6
ENDMDL
MODEL 4
REMARK VINA RESULT:      -7.1      1.080      1.151
REMARK  Name = 
REMARK  8 active torsions:
REMARK  status: ('A' for Active; 'I' for Inactive)
REMARK    1  A    between atoms: C_1  and  C_2
REMARK    2  A    between atoms: C_2  and  O_3
REMARK    3  A    between atoms: O_3  and  C_4
REMARK    4  A    between atoms: C_7  and  C_8
REMARK    5  A    between atoms: N_10  and  C_11
REMARK    6  A    between atoms: C_17  and  N_18
REMARK    7  A    between atoms: C_24  and  O_25
REMARK    8  A    between atoms: O_25  and  C_26
REMARK                            x       y       z     vdW  Elec       q    Type
REMARK                         _______ _______ _______ _____ _____    ______ ____
ROOT
ATOM      1  C   UNL     1       2.417   7.967  18.163  0.00  0.00    +0.000 C 
ATOM      2  O   UNL     1       2.948   8.460  17.177  0.00  0.00    +0.000 OA
ATOM      3  N   UNL     1       2.539   6.654  18.587  0.00  0.00    +0.000 N 
ATOM      4  H   UNL     1       1.846   6.296  19.253  0.00  0.00    +0.000 HD
ENDROOT
BRANCH   3   5
ATOM      5  C   UNL     1       3.400   5.671  18.025  0.00  0.00    +0.000 A 
ATOM      6  C   UNL     1       4.248   6.010  16.952  0.00  0.00    +0.000 A 
ATOM      7  C   UNL     1       5.097   5.073  16.371  0.00  0.00    +0.000 A 
ATOM      8 CL   UNL     1       6.070   5.514  15.024  0.00  0.00    +0.000 Cl
ATOM      9  C   UNL     1       5.159   3.783  16.874  0.00  0.00    +0.000 A 
ATOM     10  C   UNL     1       4.351   3.423  17.951  0.00  0.00    +0.000 A 
ATOM     11  C   UNL     1       3.451   4.348  18.527  0.00  0.00    +0.000 A 
BRANCH  11  12
ATOM     12  N   UNL     1       2.578   3.886  19.557  0.00  0.00    +0.000 N 
ATOM     13  C   UNL     1       2.896   3.203  20.712  0.00  0.00    +0.000 A 
ATOM     14  N   UNL     1       1.810   2.843  21.355  0.00  0.00    +0.000 NA
ATOM     15  C   UNL     1       0.820   3.348  20.574  0.00  0.00    +0.000 A 
ATOM     16  N   UNL     1       1.224   4.027  19.496  0.00  0.00    +0.000 NA
ENDBRANCH  11  12
ENDBRANCH   3   5
BRANCH   1  20
ATOM     17  C   UNL     1      -0.149  10.467  20.521  0.00  0.00    +0.000 A 
ATOM     18  C   UNL     1       0.504   9.356  21.076  0.00  0.00    +0.000 A 
ATOM     19  C   UNL     1       1.338   8.561  20.297  0.00  0.00    +0.000 A 
ATOM     20  C   UNL     1       1.505   8.841  18.939  0.00  0.00    +0.000 A 
ATOM     21  C   UNL     1       0.769   9.872  18.354  0.00  0.00    +0.000 A 
ATOM     22  C   UNL     1      -0.065  10.692  19.135  0.00  0.00    +0.000 A 
BRANCH  22  23
ATOM     23  O   UNL     1      -0.689  11.646  18.378  0.00  0.00    +0.000 OA
ATOM     24  C   UNL     1      -1.915  11.331  17.738  0.00  0.00    +0.000 C 
ENDBRANCH  22  23
BRANCH  17  25
ATOM     25  O   UNL     1      -0.865  11.327  21.315  0.00  0.00    +0.000 OA
BRANCH  25  27
ATOM     26  C   UNL     1      -2.108  11.667  23.343  0.00  0.00    +0.000 C 
ATOM     27  C   UNL     1      -0.937  10.954  22.697  0.00  0.00    +0.000 C 
ENDBRANCH  25  27
ENDBRANCH  17  25
ENDBRANCH   1  20
TORSDOF 6
ENDMDL
MODEL 5
REMARK VINA RESULT:      -7.1      2.833      4.125
REMARK  Name = 
REMARK  8 active torsions:
REMARK  status: ('A' for Active; 'I' for Inactive)
REMARK    1  A    between atoms: C_1  and  C_2
REMARK    2  A    between atoms: C_2  and  O_3
REMARK    3  A    between atoms: O_3  and  C_4
REMARK    4  A    between atoms: C_7  and  C_8
REMARK    5  A    between atoms: N_10  and  C_11
REMARK    6  A    between atoms: C_17  and  N_18
REMARK    7  A    between atoms: C_24  and  O_25
REMARK    8  A    between atoms: O_25  and  C_26
REMARK                            x       y       z     vdW  Elec       q    Type
REMARK                         _______ _______ _______ _____ _____    ______ ____
ROOT
ATOM      1  C   UNL     1       3.722   5.851  17.927  0.00  0.00    +0.000 C 
ATOM      2  O   UNL     1       3.820   4.726  18.401  0.00  0.00    +0.000 OA
ATOM      3  N   UNL     1       4.402   6.335  16.822  0.00  0.00    +0.000 N 
ATOM      4  H   UNL     1       4.443   7.351  16.688  0.00  0.00    +0.000 HD
ENDROOT
BRANCH   3   5
ATOM      5  C   UNL     1       5.247   5.578  15.964  0.00  0.00    +0.000 A 
ATOM      6  C   UNL     1       4.728   5.020  14.779  0.00  0.00    +0.000 A 
ATOM      7  C   UNL     1       5.523   4.267  13.920  0.00  0.00    +0.000 A 
ATOM      8 CL   UNL     1       4.833   3.554  12.515  0.00  0.00    +0.000 Cl
ATOM      9  C   UNL     1       6.869   4.087  14.194  0.00  0.00    +0.000 A 
ATOM     10  C   UNL     1       7.419   4.648  15.346  0.00  0.00    +0.000 A 
ATOM     11  C   UNL     1       6.620   5.379  16.253  0.00  0.00    +0.000 A 
BRANCH  11  12
ATOM     12  N   UNL     1       7.220   5.836  17.464  0.00  0.00    +0.000 N 
ATOM     13  C   UNL     1       7.712   7.089  17.761  0.00  0.00    +0.000 A 
ATOM     14  N   UNL     1       8.299   7.095  18.935  0.00  0.00    +0.000 NA
ATOM     15  C   UNL     1       8.129   5.816  19.358  0.00  0.00    +0.000 A 
ATOM     16  N   UNL     1       7.447   5.019  18.531  0.00  0.00    +0.000 NA
ENDBRANCH  11  12
ENDBRANCH   3   5
BRANCH   1  20
ATOM     17  C   UNL     1       1.212   8.552  20.119  0.00  0.00    +0.000 A 
ATOM     18  C   UNL     1       1.557   7.292  20.631  0.00  0.00    +0.000 A 
ATOM     19  C   UNL     1       2.378   6.432  19.908  0.00  0.00    +0.000 A 
ATOM     20  C   UNL     1       2.839   6.803  18.643  0.00  0.00    +0.000 A 
ATOM     21  C   UNL     1       2.406   8.002  18.077  0.00  0.00    +0.000 A 
ATOM     22  C   UNL     1       1.589   8.885  18.805  0.00  0.00    +0.000 A 
BRANCH  22  23
ATOM     23  O   UNL     1       1.283  10.006  18.080  0.00  0.00    +0.000 OA
ATOM     24  C   UNL     1       1.641  11.280  18.589  0.00  0.00    +0.000 C 
ENDBRANCH  22  23
BRANCH  17  25
ATOM     25  O   UNL     1       0.513   9.451  20.884  0.00  0.00    +0.000 OA
BRANCH  25  27
ATOM     26  C   UNL     1      -0.399   9.705  23.092  0.00  0.00    +0.000 C 
ATOM     27  C   UNL     1       0.853   9.451  22.276  0.00  0.00    +0.000 C 
ENDBRANCH  25  27
ENDBRANCH  17  25
ENDBRANCH   1  20
TORSDOF 6
ENDMDL
MODEL 6
REMARK VINA RESULT:      -7.1      1.426      1.676
REMARK  Name = 
REMARK  8 active torsions:
REMARK  status: ('A' for Active; 'I' for Inactive)
REMARK    1  A    between atoms: C_1  and  C_2
REMARK    2  A    between atoms: C_2  and  O_3
REMARK    3  A    between atoms: O_3  and  C_4
REMARK    4  A    between atoms: C_7  and  C_8
REMARK    5  A    between atoms: N_10  and  C_11
REMARK    6  A    between atoms: C_17  and  N_18
REMARK    7  A    between atoms: C_24  and  O_25
REMARK    8  A    between atoms: O_25  and  C_26
REMARK                            x       y       z     vdW  Elec       q    Type
REMARK                         _______ _______ _______ _____ _____    ______ ____
ROOT
ATOM      1  C   UNL     1       2.341   8.122  18.274  0.00  0.00    +0.000 C 
ATOM      2  O   UNL     1       2.659   8.485  17.149  0.00  0.00    +0.000 OA
ATOM      3  N   UNL     1       2.781   6.978  18.919  0.00  0.00    +0.000 N 
ATOM      4  H   UNL     1       2.247   6.645  19.728  0.00  0.00    +0.000 HD
ENDROOT
BRANCH   3   5
ATOM      5  C   UNL     1       3.776   6.080  18.442  0.00  0.00    +0.000 A 
ATOM      6  C   UNL     1       4.945   6.583  17.836  0.00  0.00    +0.000 A 
ATOM      7  C   UNL     1       5.936   5.735  17.350  0.00  0.00    +0.000 A 
ATOM      8 CL   UNL     1       7.317   6.391  16.564  0.00  0.00    +0.000 Cl
ATOM      9  C   UNL     1       5.811   4.363  17.495  0.00  0.00    +0.000 A 
ATOM     10  C   UNL     1       4.678   3.835  18.112  0.00  0.00    +0.000 A 
ATOM     11  C   UNL     1       3.641   4.676  18.574  0.00  0.00    +0.000 A 
BRANCH  11  12
ATOM     12  N   UNL     1       2.463   4.068  19.100  0.00  0.00    +0.000 N 
ATOM     13  C   UNL     1       1.673   3.090  18.534  0.00  0.00    +0.000 A 
ATOM     14  N   UNL     1       0.605   2.870  19.264  0.00  0.00    +0.000 NA
ATOM     15  C   UNL     1       0.777   3.724  20.306  0.00  0.00    +0.000 A 
ATOM     16  N   UNL     1       1.903   4.444  20.285  0.00  0.00    +0.000 NA
ENDBRANCH  11  12
ENDBRANCH   3   5
BRANCH   1  20
ATOM     17  C   UNL     1      -0.475  10.518  20.447  0.00  0.00    +0.000 A 
ATOM     18  C   UNL     1       0.350   9.587  21.096  0.00  0.00    +0.000 A 
ATOM     19  C   UNL     1       1.263   8.824  20.375  0.00  0.00    +0.000 A 
ATOM     20  C   UNL     1       1.340   8.951  18.986  0.00  0.00    +0.000 A 
ATOM     21  C   UNL     1       0.443   9.788  18.322  0.00  0.00    +0.000 A 
ATOM     22  C   UNL     1      -0.472  10.576  19.041  0.00  0.00    +0.000 A 
BRANCH  22  23
ATOM     23  O   UNL     1      -1.254  11.332  18.209  0.00  0.00    +0.000 OA
ATOM     24  C   UNL     1      -2.062  10.685  17.241  0.00  0.00    +0.000 C 
ENDBRANCH  22  23
BRANCH  17  25
ATOM     25  O   UNL     1      -1.280  11.363  21.169  0.00  0.00    +0.000 OA
BRANCH  25  27
ATOM     26  C   UNL     1      -1.980  12.337  23.251  0.00  0.00    +0.000 C 
ATOM     27  C   UNL     1      -1.135  11.265  22.592  0.00  0.00    +0.000 C 
ENDBRANCH  25  27
ENDBRANCH  17  25
ENDBRANCH   1  20
TORSDOF 6
ENDMDL
MODEL 7
REMARK VINA RESULT:      -7.1      2.561      4.250
REMARK  Name = 
REMARK  8 active torsions:
REMARK  status: ('A' for Active; 'I' for Inactive)
REMARK    1  A    between atoms: C_1  and  C_2
REMARK    2  A    between atoms: C_2  and  O_3
REMARK    3  A    between atoms: O_3  and  C_4
REMARK    4  A    between atoms: C_7  and  C_8
REMARK    5  A    between atoms: N_10  and  C_11
REMARK    6  A    between atoms: C_17  and  N_18
REMARK    7  A    between atoms: C_24  and  O_25
REMARK    8  A    between atoms: O_25  and  C_26
REMARK                            x       y       z     vdW  Elec       q    Type
REMARK                         _______ _______ _______ _____ _____    ______ ____
ROOT
ATOM      1  C   UNL     1       2.016   7.182  19.351  0.00  0.00    +0.000 C 
ATOM      2  O   UNL     1       1.966   6.678  20.465  0.00  0.00    +0.000 OA
ATOM      3  N   UNL     1       2.345   6.532  18.173  0.00  0.00    +0.000 N 
ATOM      4  H   UNL     1       2.615   7.104  17.366  0.00  0.00    +0.000 HD
ENDROOT
BRANCH   3   5
ATOM      5  C   UNL     1       2.567   5.135  18.024  0.00  0.00    +0.000 A 
ATOM      6  C   UNL     1       1.578   4.219  18.432  0.00  0.00    +0.000 A 
ATOM      7  C   UNL     1       1.763   2.845  18.308  0.00  0.00    +0.000 A 
ATOM      8 CL   UNL     1       0.554   1.761  18.875  0.00  0.00    +0.000 Cl
ATOM      9  C   UNL     1       2.921   2.347  17.733  0.00  0.00    +0.000 A 
ATOM     10  C   UNL     1       3.908   3.229  17.297  0.00  0.00    +0.000 A 
ATOM     11  C   UNL     1       3.758   4.625  17.452  0.00  0.00    +0.000 A 
BRANCH  11  12
ATOM     12  N   UNL     1       4.850   5.466  17.081  0.00  0.00    +0.000 N 
ATOM     13  C   UNL     1       5.540   5.503  15.888  0.00  0.00    +0.000 A 
ATOM     14  N   UNL     1       6.560   6.326  15.964  0.00  0.00    +0.000 NA
ATOM     15  C   UNL     1       6.457   6.810  17.229  0.00  0.00    +0.000 A 
ATOM     16  N   UNL     1       5.419   6.359  17.938  0.00  0.00    +0.000 NA
ENDBRANCH  11  12
ENDBRANCH   3   5
BRANCH   1  20
ATOM     17  C   UNL     1       1.263  11.388  18.967  0.00  0.00    +0.000 A 
ATOM     18  C   UNL     1       1.799  10.639  17.909  0.00  0.00    +0.000 A 
ATOM     19  C   UNL     1       2.030   9.274  18.050  0.00  0.00    +0.000 A 
ATOM     20  C   UNL     1       1.763   8.640  19.266  0.00  0.00    +0.000 A 
ATOM     21  C   UNL     1       1.341   9.399  20.358  0.00  0.00    +0.000 A 
ATOM     22  C   UNL     1       1.090  10.775  20.223  0.00  0.00    +0.000 A 
BRANCH  22  23
ATOM     23  O   UNL     1       0.677  11.333  21.403  0.00  0.00    +0.000 OA
ATOM     24  C   UNL     1      -0.707  11.361  21.709  0.00  0.00    +0.000 C 
ENDBRANCH  22  23
BRANCH  17  25
ATOM     25  O   UNL     1       0.913  12.702  18.789  0.00  0.00    +0.000 OA
BRANCH  25  27
ATOM     26  C   UNL     1       2.909  13.929  19.317  0.00  0.00    +0.000 C 
ATOM     27  C   UNL     1       1.938  13.528  18.224  0.00  0.00    +0.000 C 
ENDBRANCH  25  27
ENDBRANCH  17  25
ENDBRANCH   1  20
TORSDOF 6
ENDMDL
MODEL 8
REMARK VINA RESULT:      -7.0      3.672      7.734
REMARK  Name = 
REMARK  8 active torsions:
REMARK  status: ('A' for Active; 'I' for Inactive)
REMARK    1  A    between atoms: C_1  and  C_2
REMARK    2  A    between atoms: C_2  and  O_3
REMARK    3  A    between atoms: O_3  and  C_4
REMARK    4  A    between atoms: C_7  and  C_8
REMARK    5  A    between atoms: N_10  and  C_11
REMARK    6  A    between atoms: C_17  and  N_18
REMARK    7  A    between atoms: C_24  and  O_25
REMARK    8  A    between atoms: O_25  and  C_26
REMARK                            x       y       z     vdW  Elec       q    Type
REMARK                         _______ _______ _______ _____ _____    ______ ____
ROOT
ATOM      1  C   UNL     1       1.558   9.083  17.891  0.00  0.00    +0.000 C 
ATOM      2  O   UNL     1       2.054  10.137  17.513  0.00  0.00    +0.000 OA
ATOM      3  N   UNL     1       0.218   8.860  18.159  0.00  0.00    +0.000 N 
ATOM      4  H   UNL     1      -0.032   8.037  18.718  0.00  0.00    +0.000 HD
ENDROOT
BRANCH   3   5
ATOM      5  C   UNL     1      -0.844   9.778  17.929  0.00  0.00    +0.000 A 
ATOM      6  C   UNL     1      -1.543   9.752  16.706  0.00  0.00    +0.000 A 
ATOM      7  C   UNL     1      -2.582  10.640  16.442  0.00  0.00    +0.000 A 
ATOM      8 CL   UNL     1      -3.367  10.613  14.912  0.00  0.00    +0.000 Cl
ATOM      9  C   UNL     1      -2.984  11.549  17.407  0.00  0.00    +0.000 A 
ATOM     10  C   UNL     1      -2.329  11.582  18.637  0.00  0.00    +0.000 A 
ATOM     11  C   UNL     1      -1.245  10.719  18.909  0.00  0.00    +0.000 A 
BRANCH  11  12
ATOM     12  N   UNL     1      -0.551  10.876  20.146  0.00  0.00    +0.000 N 
ATOM     13  C   UNL     1       0.051  12.007  20.657  0.00  0.00    +0.000 A 
ATOM     14  N   UNL     1       0.694  11.732  21.767  0.00  0.00    +0.000 NA
ATOM     15  C   UNL     1       0.447  10.407  21.934  0.00  0.00    +0.000 A 
ATOM     16  N   UNL     1      -0.335   9.844  21.009  0.00  0.00    +0.000 NA
ENDBRANCH  11  12
ENDBRANCH   3   5
BRANCH   1  20
ATOM     17  C   UNL     1       4.154   5.766  18.698  0.00  0.00    +0.000 A 
ATOM     18  C   UNL     1       3.090   6.089  19.552  0.00  0.00    +0.000 A 
ATOM     19  C   UNL     1       2.253   7.164  19.270  0.00  0.00    +0.000 A 
ATOM     20  C   UNL     1       2.490   7.960  18.147  0.00  0.00    +0.000 A 
ATOM     21  C   UNL     1       3.614   7.717  17.357  0.00  0.00    +0.000 A 
ATOM     22  C   UNL     1       4.457   6.623  17.624  0.00  0.00    +0.000 A 
BRANCH  22  23
ATOM     23  O   UNL     1       5.494   6.553  16.733  0.00  0.00    +0.000 OA
ATOM     24  C   UNL     1       5.352   5.762  15.565  0.00  0.00    +0.000 C 
ENDBRANCH  22  23
BRANCH  17  25
ATOM     25  O   UNL     1       4.897   4.630  18.902  0.00  0.00    +0.000 OA
BRANCH  25  27
ATOM     26  C   UNL     1       3.741   2.914  17.682  0.00  0.00    +0.000 C 
ATOM     27  C   UNL     1       4.131   3.428  19.053  0.00  0.00    +0.000 C 
ENDBRANCH  25  27
ENDBRANCH  17  25
ENDBRANCH   1  20
TORSDOF 6
ENDMDL
MODEL 9
REMARK VINA RESULT:      -7.0      1.592      1.804
REMARK  Name = 
REMARK  8 active torsions:
REMARK  status: ('A' for Active; 'I' for Inactive)
REMARK    1  A    between atoms: C_1  and  C_2
REMARK    2  A    between atoms: C_2  and  O_3
REMARK    3  A    between atoms: O_3  and  C_4
REMARK    4  A    between atoms: C_7  and  C_8
REMARK    5  A    between atoms: N_10  and  C_11
REMARK    6  A    between atoms: C_17  and  N_18
REMARK    7  A    between atoms: C_24  and  O_25
REMARK    8  A    between atoms: O_25  and  C_26
REMARK                            x       y       z     vdW  Elec       q    Type
REMARK                         _______ _______ _______ _____ _____    ______ ____
ROOT
ATOM      1  C   UNL     1       3.089   6.469  19.168  0.00  0.00    +0.000 C 
ATOM      2  O   UNL     1       3.723   5.866  20.024  0.00  0.00    +0.000 OA
ATOM      3  N   UNL     1       3.218   6.321  17.798  0.00  0.00    +0.000 N 
ATOM      4  H   UNL     1       2.839   7.059  17.195  0.00  0.00    +0.000 HD
ENDROOT
BRANCH   3   5
ATOM      5  C   UNL     1       4.024   5.355  17.135  0.00  0.00    +0.000 A 
ATOM      6  C   UNL     1       5.078   5.772  16.299  0.00  0.00    +0.000 A 
ATOM      7  C   UNL     1       5.883   4.856  15.627  0.00  0.00    +0.000 A 
ATOM      8 CL   UNL     1       7.119   5.412  14.570  0.00  0.00    +0.000 Cl
ATOM      9  C   UNL     1       5.687   3.496  15.805  0.00  0.00    +0.000 A 
ATOM     10  C   UNL     1       4.668   3.050  16.646  0.00  0.00    +0.000 A 
ATOM     11  C   UNL     1       3.814   3.964  17.303  0.00  0.00    +0.000 A 
BRANCH  11  12
ATOM     12  N   UNL     1       2.726   3.441  18.064  0.00  0.00    +0.000 N 
ATOM     13  C   UNL     1       2.766   2.610  19.164  0.00  0.00    +0.000 A 
ATOM     14  N   UNL     1       1.556   2.247  19.519  0.00  0.00    +0.000 NA
ATOM     15  C   UNL     1       0.774   2.899  18.620  0.00  0.00    +0.000 A 
ATOM     16  N   UNL     1       1.422   3.671  17.743  0.00  0.00    +0.000 NA
ENDBRANCH  11  12
ENDBRANCH   3   5
BRANCH   1  20
ATOM     17  C   UNL     1       0.362   9.415  20.680  0.00  0.00    +0.000 A 
ATOM     18  C   UNL     1       0.569   8.197  21.346  0.00  0.00    +0.000 A 
ATOM     19  C   UNL     1       1.463   7.257  20.844  0.00  0.00    +0.000 A 
ATOM     20  C   UNL     1       2.139   7.502  19.646  0.00  0.00    +0.000 A 
ATOM     21  C   UNL     1       1.851   8.657  18.918  0.00  0.00    +0.000 A 
ATOM     22  C   UNL     1       0.961   9.621  19.424  0.00  0.00    +0.000 A 
BRANCH  22  23
ATOM     23  O   UNL     1       0.821  10.680  18.567  0.00  0.00    +0.000 OA
ATOM     24  C   UNL     1       1.952  11.480  18.264  0.00  0.00    +0.000 C 
ENDBRANCH  22  23
BRANCH  17  25
ATOM     25  O   UNL     1      -0.417  10.396  21.241  0.00  0.00    +0.000 OA
BRANCH  25  27
ATOM     26  C   UNL     1      -1.540  11.378  23.124  0.00  0.00    +0.000 C 
ATOM     27  C   UNL     1      -0.599  10.285  22.658  0.00  0.00    +0.000 C 
ENDBRANCH  25  27
ENDBRANCH  17  25
ENDBRANCH   1  20
TORSDOF 6
ENDMDL
