MODEL 1
REMARK VINA RESULT:      -7.2      0.000      0.000
REMARK  Name = 
REMARK  4 active torsions:
REMARK  status: ('A' for Active; 'I' for Inactive)
REMARK    1  A    between atoms: C_1  and  S_2
REMARK    2  A    between atoms: S_2  and  N_5
REMARK    3  A    between atoms: N_13  and  C_14
REMARK    4  A    between atoms: C_14  and  C_15
REMARK                            x       y       z     vdW  Elec       q    Type
REMARK                         _______ _______ _______ _____ _____    ______ ____
ROOT
ATOM      1  N   UNL     1       3.673   4.114  19.099  0.00  0.00    +0.000 NA
ATOM      2  C   UNL     1       2.351   4.830  19.081  0.00  0.00    +0.000 C 
ATOM      3  C   UNL     1       2.236   6.083  18.193  0.00  0.00    +0.000 C 
ATOM      4  O   UNL     1       3.247   7.046  18.469  0.00  0.00    +0.000 OA
ATOM      5  C   UNL     1       4.431   6.949  17.670  0.00  0.00    +0.000 C 
ATOM      6  C   UNL     1       5.037   5.520  17.532  0.00  0.00    +0.000 C 
ATOM      7  C   UNL     1       4.283   4.768  16.402  0.00  0.00    +0.000 C 
ATOM      8  C   UNL     1       4.984   3.675  15.613  0.00  0.00    +0.000 C 
ATOM      9  N   UNL     1       6.395   3.835  15.320  0.00  0.00    +0.000 NA
ATOM     10  C   UNL     1       7.138   4.404  16.444  0.00  0.00    +0.000 C 
ATOM     11  C   UNL     1       6.530   5.653  17.106  0.00  0.00    +0.000 C 
ATOM     12  C   UNL     1       4.913   4.900  18.949  0.00  0.00    +0.000 C 
ENDROOT
BRANCH   1  14
ATOM     13  C   UNL     1       3.061   1.440  19.158  0.00  0.00    +0.000 C 
ATOM     14  S   UNL     1       3.757   2.760  20.147  0.00  0.00    +0.000 S 
ATOM     15  O   UNL     1       2.888   2.980  21.276  0.00  0.00    +0.000 OA
ATOM     16  O   UNL     1       5.154   2.450  20.339  0.00  0.00    +0.000 OA
ENDBRANCH   1  14
BRANCH   9  17
ATOM     17  C   UNL     1       6.714   4.389  14.001  0.00  0.00    +0.000 C 
BRANCH  17  18
ATOM     18  C   UNL     1       6.025   3.669  12.867  0.00  0.00    +0.000 A 
ATOM     19  C   UNL     1       4.789   3.898  12.276  0.00  0.00    +0.000 A 
ATOM     20  C   UNL     1       4.603   2.926  11.260  0.00  0.00    +0.000 A 
ATOM     21  C   UNL     1       5.717   2.123  11.254  0.00  0.00    +0.000 A 
ATOM     22  N   UNL     1       6.572   2.572  12.232  0.00  0.00    +0.000 N 
ATOM     23  H   UNL     1       7.447   2.136  12.498  0.00  0.00    +0.000 HD
ENDBRANCH  17  18
ENDBRANCH   9  17
TORSDOF 3
ENDMDL
MODEL 2
REMARK VINA RESULT:      -6.7      2.900      6.444
REMARK  Name = 
REMARK  4 active torsions:
REMARK  status: ('A' for Active; 'I' for Inactive)
REMARK    1  A    between atoms: C_1  and  S_2
REMARK    2  A    between atoms: S_2  and  N_5
REMARK    3  A    between atoms: N_13  and  C_14
REMARK    4  A    between atoms: C_14  and  C_15
REMARK                            x       y       z     vdW  Elec       q    Type
REMARK                         _______ _______ _______ _____ _____    ______ ____
ROOT
ATOM      1  N   UNL     1       6.033   5.056  16.527  0.00  0.00    +0.000 NA
ATOM      2  C   UNL     1       7.242   4.758  17.371  0.00  0.00    +0.000 C 
ATOM      3  C   UNL     1       7.016   4.539  18.879  0.00  0.00    +0.000 C 
ATOM      4  O   UNL     1       6.315   5.617  19.491  0.00  0.00    +0.000 OA
ATOM      5  C   UNL     1       4.892   5.473  19.558  0.00  0.00    +0.000 C 
ATOM      6  C   UNL     1       4.196   5.026  18.235  0.00  0.00    +0.000 C 
ATOM      7  C   UNL     1       4.289   3.481  18.124  0.00  0.00    +0.000 C 
ATOM      8  C   UNL     1       3.231   2.706  17.357  0.00  0.00    +0.000 C 
ATOM      9  N   UNL     1       1.859   3.173  17.416  0.00  0.00    +0.000 NA
ATOM     10  C   UNL     1       1.761   4.631  17.367  0.00  0.00    +0.000 C 
ATOM     11  C   UNL     1       2.689   5.413  18.314  0.00  0.00    +0.000 C 
ATOM     12  C   UNL     1       4.921   5.824  17.120  0.00  0.00    +0.000 C 
ENDROOT
BRANCH   1  14
ATOM     13  C   UNL     1       5.848   3.814  14.088  0.00  0.00    +0.000 C 
ATOM     14  S   UNL     1       6.354   5.344  14.868  0.00  0.00    +0.000 S 
ATOM     15  O   UNL     1       7.775   5.495  14.679  0.00  0.00    +0.000 OA
ATOM     16  O   UNL     1       5.437   6.367  14.424  0.00  0.00    +0.000 OA
ENDBRANCH   1  14
BRANCH   9  17
ATOM     17  C   UNL     1       1.003   2.510  18.405  0.00  0.00    +0.000 C 
BRANCH  17  18
ATOM     18  C   UNL     1       1.475   2.698  19.827  0.00  0.00    +0.000 A 
ATOM     19  C   UNL     1       1.099   3.631  20.783  0.00  0.00    +0.000 A 
ATOM     20  C   UNL     1       1.858   3.387  21.956  0.00  0.00    +0.000 A 
ATOM     21  C   UNL     1       2.682   2.321  21.694  0.00  0.00    +0.000 A 
ATOM     22  N   UNL     1       2.452   1.911  20.403  0.00  0.00    +0.000 N 
ATOM     23  H   UNL     1       2.959   1.181  19.914  0.00  0.00    +0.000 HD
ENDBRANCH  17  18
ENDBRANCH   9  17
TORSDOF 3
ENDMDL
MODEL 3
REMARK VINA RESULT:      -6.6      1.218      1.514
REMARK  Name = 
REMARK  4 active torsions:
REMARK  status: ('A' for Active; 'I' for Inactive)
REMARK    1  A    between atoms: C_1  and  S_2
REMARK    2  A    between atoms: S_2  and  N_5
REMARK    3  A    between atoms: N_13  and  C_14
REMARK    4  A    between atoms: C_14  and  C_15
REMARK                            x       y       z     vdW  Elec       q    Type
REMARK                         _______ _______ _______ _____ _____    ______ ____
ROOT
ATOM      1  N   UNL     1       3.378   3.885  19.141  0.00  0.00    +0.000 NA
ATOM      2  C   UNL     1       2.018   4.481  18.905  0.00  0.00    +0.000 C 
ATOM      3  C   UNL     1       1.955   5.830  18.165  0.00  0.00    +0.000 C 
ATOM      4  O   UNL     1       2.766   6.829  18.773  0.00  0.00    +0.000 OA
ATOM      5  C   UNL     1       4.098   6.945  18.259  0.00  0.00    +0.000 C 
ATOM      6  C   UNL     1       4.879   5.604  18.100  0.00  0.00    +0.000 C 
ATOM      7  C   UNL     1       4.476   4.954  16.749  0.00  0.00    +0.000 C 
ATOM      8  C   UNL     1       5.450   4.044  16.020  0.00  0.00    +0.000 C 
ATOM      9  N   UNL     1       6.864   4.362  16.078  0.00  0.00    +0.000 NA
ATOM     10  C   UNL     1       7.277   4.832  17.400  0.00  0.00    +0.000 C 
ATOM     11  C   UNL     1       6.402   5.922  18.045  0.00  0.00    +0.000 C 
ATOM     12  C   UNL     1       4.523   4.788  19.370  0.00  0.00    +0.000 C 
ENDROOT
BRANCH   1  14
ATOM     13  C   UNL     1       2.467   2.818  21.499  0.00  0.00    +0.000 C 
ATOM     14  S   UNL     1       3.387   2.412  20.018  0.00  0.00    +0.000 S 
ATOM     15  O   UNL     1       4.740   2.098  20.403  0.00  0.00    +0.000 OA
ATOM     16  O   UNL     1       2.592   1.463  19.274  0.00  0.00    +0.000 OA
ENDBRANCH   1  14
BRANCH   9  17
ATOM     17  C   UNL     1       7.394   5.117  14.939  0.00  0.00    +0.000 C 
BRANCH  17  18
ATOM     18  C   UNL     1       7.095   4.477  13.605  0.00  0.00    +0.000 A 
ATOM     19  C   UNL     1       7.495   4.838  12.325  0.00  0.00    +0.000 A 
ATOM     20  C   UNL     1       6.925   3.916  11.412  0.00  0.00    +0.000 A 
ATOM     21  C   UNL     1       6.187   3.019  12.143  0.00  0.00    +0.000 A 
ATOM     22  N   UNL     1       6.287   3.366  13.469  0.00  0.00    +0.000 N 
ATOM     23  H   UNL     1       5.799   2.919  14.236  0.00  0.00    +0.000 HD
ENDBRANCH  17  18
ENDBRANCH   9  17
TORSDOF 3
ENDMDL
MODEL 4
REMARK VINA RESULT:      -6.5      3.837      7.878
REMARK  Name = 
REMARK  4 active torsions:
REMARK  status: ('A' for Active; 'I' for Inactive)
REMARK    1  A    between atoms: C_1  and  S_2
REMARK    2  A    between atoms: S_2  and  N_5
REMARK    3  A    between atoms: N_13  and  C_14
REMARK    4  A    between atoms: C_14  and  C_15
REMARK                            x       y       z     vdW  Elec       q    Type
REMARK                         _______ _______ _______ _____ _____    ______ ____
ROOT
ATOM      1  N   UNL     1       4.663   4.889  18.236  0.00  0.00    +0.000 NA
ATOM      2  C   UNL     1       4.297   3.933  17.134  0.00  0.00    +0.000 C 
ATOM      3  C   UNL     1       2.808   3.569  16.978  0.00  0.00    +0.000 C 
ATOM      4  O   UNL     1       2.233   3.080  18.185  0.00  0.00    +0.000 OA
ATOM      5  C   UNL     1       1.602   4.062  19.013  0.00  0.00    +0.000 C 
ATOM      6  C   UNL     1       2.425   5.361  19.267  0.00  0.00    +0.000 C 
ATOM      7  C   UNL     1       2.216   6.323  18.067  0.00  0.00    +0.000 C 
ATOM      8  C   UNL     1       2.331   7.826  18.264  0.00  0.00    +0.000 C 
ATOM      9  N   UNL     1       1.861   8.394  19.513  0.00  0.00    +0.000 NA
ATOM     10  C   UNL     1       2.194   7.559  20.667  0.00  0.00    +0.000 C 
ATOM     11  C   UNL     1       1.870   6.059  20.544  0.00  0.00    +0.000 C 
ATOM     12  C   UNL     1       3.880   4.869  19.487  0.00  0.00    +0.000 C 
ENDROOT
BRANCH   1  14
ATOM     13  C   UNL     1       6.508   6.833  17.652  0.00  0.00    +0.000 C 
ATOM     14  S   UNL     1       6.338   5.213  18.395  0.00  0.00    +0.000 S 
ATOM     15  O   UNL     1       7.082   4.273  17.594  0.00  0.00    +0.000 OA
ATOM     16  O   UNL     1       6.615   5.364  19.804  0.00  0.00    +0.000 OA
ENDBRANCH   1  14
BRANCH   9  17
ATOM     17  C   UNL     1       0.501   8.939  19.493  0.00  0.00    +0.000 C 
BRANCH  17  18
ATOM     18  C   UNL     1       0.074   9.534  20.814  0.00  0.00    +0.000 A 
ATOM     19  C   UNL     1      -0.378   8.919  21.973  0.00  0.00    +0.000 A 
ATOM     20  C   UNL     1      -0.666   9.932  22.923  0.00  0.00    +0.000 A 
ATOM     21  C   UNL     1      -0.394  11.138  22.328  0.00  0.00    +0.000 A 
ATOM     22  N   UNL     1       0.048  10.894  21.050  0.00  0.00    +0.000 N 
ATOM     23  H   UNL     1       0.267  11.599  20.355  0.00  0.00    +0.000 HD
ENDBRANCH  17  18
ENDBRANCH   9  17
TORSDOF 3
ENDMDL
MODEL 5
REMARK VINA RESULT:      -6.5      4.003      7.497
REMARK  Name = 
REMARK  4 active torsions:
REMARK  status: ('A' for Active; 'I' for Inactive)
REMARK    1  A    between atoms: C_1  and  S_2
REMARK    2  A    between atoms: S_2  and  N_5
REMARK    3  A    between atoms: N_13  and  C_14
REMARK    4  A    between atoms: C_14  and  C_15
REMARK                            x       y       z     vdW  Elec       q    Type
REMARK                         _______ _______ _______ _____ _____    ______ ____
ROOT
ATOM      1  N   UNL     1       4.896   5.237  18.318  0.00  0.00    +0.000 NA
ATOM      2  C   UNL     1       4.656   4.141  17.318  0.00  0.00    +0.000 C 
ATOM      3  C   UNL     1       3.201   3.685  17.102  0.00  0.00    +0.000 C 
ATOM      4  O   UNL     1       2.556   3.314  18.315  0.00  0.00    +0.000 OA
ATOM      5  C   UNL     1       1.822   4.354  18.971  0.00  0.00    +0.000 C 
ATOM      6  C   UNL     1       2.569   5.714  19.123  0.00  0.00    +0.000 C 
ATOM      7  C   UNL     1       2.412   6.516  17.803  0.00  0.00    +0.000 C 
ATOM      8  C   UNL     1       2.448   8.034  17.824  0.00  0.00    +0.000 C 
ATOM      9  N   UNL     1       1.860   8.721  18.958  0.00  0.00    +0.000 NA
ATOM     10  C   UNL     1       2.138   8.047  20.225  0.00  0.00    +0.000 C 
ATOM     11  C   UNL     1       1.887   6.528  20.263  0.00  0.00    +0.000 C 
ATOM     12  C   UNL     1       4.021   5.326  19.504  0.00  0.00    +0.000 C 
ENDROOT
BRANCH   1  14
ATOM     13  C   UNL     1       7.410   4.522  17.486  0.00  0.00    +0.000 C 
ATOM     14  S   UNL     1       6.539   5.663  18.556  0.00  0.00    +0.000 S 
ATOM     15  O   UNL     1       6.912   5.373  19.917  0.00  0.00    +0.000 OA
ATOM     16  O   UNL     1       6.726   6.985  18.004  0.00  0.00    +0.000 OA
ENDBRANCH   1  14
BRANCH   9  17
ATOM     17  C   UNL     1       0.484   9.191  18.775  0.00  0.00    +0.000 C 
BRANCH  17  18
ATOM     18  C   UNL     1       0.320  10.674  19.006  0.00  0.00    +0.000 A 
ATOM     19  C   UNL     1       0.641  11.452  20.110  0.00  0.00    +0.000 A 
ATOM     20  C   UNL     1       0.268  12.790  19.826  0.00  0.00    +0.000 A 
ATOM     21  C   UNL     1      -0.276  12.804  18.566  0.00  0.00    +0.000 A 
ATOM     22  N   UNL     1      -0.249  11.520  18.076  0.00  0.00    +0.000 N 
ATOM     23  H   UNL     1      -0.639  11.216  17.191  0.00  0.00    +0.000 HD
ENDBRANCH  17  18
ENDBRANCH   9  17
TORSDOF 3
ENDMDL
MODEL 6
REMARK VINA RESULT:      -6.4      0.912      1.013
REMARK  Name = 
REMARK  4 active torsions:
REMARK  status: ('A' for Active; 'I' for Inactive)
REMARK    1  A    between atoms: C_1  and  S_2
REMARK    2  A    between atoms: S_2  and  N_5
REMARK    3  A    between atoms: N_13  and  C_14
REMARK    4  A    between atoms: C_14  and  C_15
REMARK                            x       y       z     vdW  Elec       q    Type
REMARK                         _______ _______ _______ _____ _____    ______ ____
ROOT
ATOM      1  N   UNL     1       3.116   4.165  19.256  0.00  0.00    +0.000 NA
ATOM      2  C   UNL     1       1.834   4.932  19.081  0.00  0.00    +0.000 C 
ATOM      3  C   UNL     1       1.884   6.207  18.218  0.00  0.00    +0.000 C 
ATOM      4  O   UNL     1       2.882   7.125  18.652  0.00  0.00    +0.000 OA
ATOM      5  C   UNL     1       4.158   7.000  18.016  0.00  0.00    +0.000 C 
ATOM      6  C   UNL     1       4.727   5.551  17.923  0.00  0.00    +0.000 C 
ATOM      7  C   UNL     1       4.107   4.853  16.684  0.00  0.00    +0.000 C 
ATOM      8  C   UNL     1       4.868   3.751  15.967  0.00  0.00    +0.000 C 
ATOM      9  N   UNL     1       6.311   3.863  15.870  0.00  0.00    +0.000 NA
ATOM     10  C   UNL     1       6.915   4.379  17.098  0.00  0.00    +0.000 C 
ATOM     11  C   UNL     1       6.267   5.637  17.705  0.00  0.00    +0.000 C 
ATOM     12  C   UNL     1       4.392   4.907  19.294  0.00  0.00    +0.000 C 
ENDROOT
BRANCH   1  14
ATOM     13  C   UNL     1       4.675   2.132  20.236  0.00  0.00    +0.000 C 
ATOM     14  S   UNL     1       3.010   2.787  20.270  0.00  0.00    +0.000 S 
ATOM     15  O   UNL     1       2.134   1.817  19.663  0.00  0.00    +0.000 OA
ATOM     16  O   UNL     1       2.771   3.259  21.614  0.00  0.00    +0.000 OA
ENDBRANCH   1  14
BRANCH   9  17
ATOM     17  C   UNL     1       6.824   4.432  14.621  0.00  0.00    +0.000 C 
BRANCH  17  18
ATOM     18  C   UNL     1       6.191   3.835  13.387  0.00  0.00    +0.000 A 
ATOM     19  C   UNL     1       4.931   4.030  12.839  0.00  0.00    +0.000 A 
ATOM     20  C   UNL     1       4.826   3.216  11.682  0.00  0.00    +0.000 A 
ATOM     21  C   UNL     1       6.012   2.540  11.549  0.00  0.00    +0.000 A 
ATOM     22  N   UNL     1       6.834   2.912  12.586  0.00  0.00    +0.000 N 
ATOM     23  H   UNL     1       7.752   2.529  12.780  0.00  0.00    +0.000 HD
ENDBRANCH  17  18
ENDBRANCH   9  17
TORSDOF 3
ENDMDL
MODEL 7
REMARK VINA RESULT:      -6.4      3.805      7.335
REMARK  Name = 
REMARK  4 active torsions:
REMARK  status: ('A' for Active; 'I' for Inactive)
REMARK    1  A    between atoms: C_1  and  S_2
REMARK    2  A    between atoms: S_2  and  N_5
REMARK    3  A    between atoms: N_13  and  C_14
REMARK    4  A    between atoms: C_14  and  C_15
REMARK                            x       y       z     vdW  Elec       q    Type
REMARK                         _______ _______ _______ _____ _____    ______ ____
ROOT
ATOM      1  N   UNL     1       5.379   4.940  18.156  0.00  0.00    +0.000 NA
ATOM      2  C   UNL     1       5.245   3.984  17.002  0.00  0.00    +0.000 C 
ATOM      3  C   UNL     1       3.821   3.579  16.580  0.00  0.00    +0.000 C 
ATOM      4  O   UNL     1       3.053   3.063  17.662  0.00  0.00    +0.000 OA
ATOM      5  C   UNL     1       2.254   4.020  18.367  0.00  0.00    +0.000 C 
ATOM      6  C   UNL     1       2.980   5.339  18.770  0.00  0.00    +0.000 C 
ATOM      7  C   UNL     1       2.961   6.306  17.556  0.00  0.00    +0.000 C 
ATOM      8  C   UNL     1       2.994   7.809  17.776  0.00  0.00    +0.000 C 
ATOM      9  N   UNL     1       2.291   8.352  18.923  0.00  0.00    +0.000 NA
ATOM     10  C   UNL     1       2.435   7.516  20.115  0.00  0.00    +0.000 C 
ATOM     11  C   UNL     1       2.183   6.008  19.930  0.00  0.00    +0.000 C 
ATOM     12  C   UNL     1       4.385   4.887  19.246  0.00  0.00    +0.000 C 
ENDROOT
BRANCH   1  14
ATOM     13  C   UNL     1       7.266   6.909  17.859  0.00  0.00    +0.000 C 
ATOM     14  S   UNL     1       6.988   5.310  18.615  0.00  0.00    +0.000 S 
ATOM     15  O   UNL     1       7.886   4.363  18.003  0.00  0.00    +0.000 OA
ATOM     16  O   UNL     1       6.992   5.514  20.045  0.00  0.00    +0.000 OA
ENDBRANCH   1  14
BRANCH   9  17
ATOM     17  C   UNL     1       0.941   8.859  18.661  0.00  0.00    +0.000 C 
BRANCH  17  18
ATOM     18  C   UNL     1       0.739  10.286  19.110  0.00  0.00    +0.000 A 
ATOM     19  C   UNL     1       0.696  10.830  20.386  0.00  0.00    +0.000 A 
ATOM     20  C   UNL     1       0.462  12.222  20.261  0.00  0.00    +0.000 A 
ATOM     21  C   UNL     1       0.359  12.501  18.921  0.00  0.00    +0.000 A 
ATOM     22  N   UNL     1       0.521  11.326  18.228  0.00  0.00    +0.000 N 
ATOM     23  H   UNL     1       0.435  11.214  17.224  0.00  0.00    +0.000 HD
ENDBRANCH  17  18
ENDBRANCH   9  17
TORSDOF 3
ENDMDL
MODEL 8
REMARK VINA RESULT:      -6.4      3.848      7.925
REMARK  Name = 
REMARK  4 active torsions:
REMARK  status: ('A' for Active; 'I' for Inactive)
REMARK    1  A    between atoms: C_1  and  S_2
REMARK    2  A    between atoms: S_2  and  N_5
REMARK    3  A    between atoms: N_13  and  C_14
REMARK    4  A    between atoms: C_14  and  C_15
REMARK                            x       y       z     vdW  Elec       q    Type
REMARK                         _______ _______ _______ _____ _____    ______ ____
ROOT
ATOM      1  N   UNL     1       4.721   5.135  18.339  0.00  0.00    +0.000 NA
ATOM      2  C   UNL     1       4.424   4.181  17.215  0.00  0.00    +0.000 C 
ATOM      3  C   UNL     1       2.959   3.749  17.021  0.00  0.00    +0.000 C 
ATOM      4  O   UNL     1       2.383   3.214  18.208  0.00  0.00    +0.000 OA
ATOM      5  C   UNL     1       1.687   4.151  19.037  0.00  0.00    +0.000 C 
ATOM      6  C   UNL     1       2.442   5.484  19.329  0.00  0.00    +0.000 C 
ATOM      7  C   UNL     1       2.213   6.454  18.140  0.00  0.00    +0.000 C 
ATOM      8  C   UNL     1       2.251   7.957  18.362  0.00  0.00    +0.000 C 
ATOM      9  N   UNL     1       1.728   8.481  19.609  0.00  0.00    +0.000 NA
ATOM     10  C   UNL     1       2.076   7.645  20.757  0.00  0.00    +0.000 C 
ATOM     11  C   UNL     1       1.827   6.133  20.604  0.00  0.00    +0.000 C 
ATOM     12  C   UNL     1       3.914   5.058  19.573  0.00  0.00    +0.000 C 
ENDROOT
BRANCH   1  14
ATOM     13  C   UNL     1       7.193   4.486  17.343  0.00  0.00    +0.000 C 
ATOM     14  S   UNL     1       6.375   5.536  18.540  0.00  0.00    +0.000 S 
ATOM     15  O   UNL     1       6.805   5.134  19.855  0.00  0.00    +0.000 OA
ATOM     16  O   UNL     1       6.546   6.898  18.091  0.00  0.00    +0.000 OA
ENDBRANCH   1  14
BRANCH   9  17
ATOM     17  C   UNL     1       0.344   8.962  19.568  0.00  0.00    +0.000 C 
BRANCH  17  18
ATOM     18  C   UNL     1      -0.063   9.723  20.806  0.00  0.00    +0.000 A 
ATOM     19  C   UNL     1      -0.174  11.090  21.025  0.00  0.00    +0.000 A 
ATOM     20  C   UNL     1      -0.576  11.286  22.370  0.00  0.00    +0.000 A 
ATOM     21  C   UNL     1      -0.696  10.046  22.946  0.00  0.00    +0.000 A 
ATOM     22  N   UNL     1      -0.378   9.103  21.999  0.00  0.00    +0.000 N 
ATOM     23  H   UNL     1      -0.321   8.104  22.155  0.00  0.00    +0.000 HD
ENDBRANCH  17  18
ENDBRANCH   9  17
TORSDOF 3
ENDMDL
MODEL 9
REMARK VINA RESULT:      -6.3      3.845      7.718
REMARK  Name = 
REMARK  4 active torsions:
REMARK  status: ('A' for Active; 'I' for Inactive)
REMARK    1  A    between atoms: C_1  and  S_2
REMARK    2  A    between atoms: S_2  and  N_5
REMARK    3  A    between atoms: N_13  and  C_14
REMARK    4  A    between atoms: C_14  and  C_15
REMARK                            x       y       z     vdW  Elec       q    Type
REMARK                         _______ _______ _______ _____ _____    ______ ____
ROOT
ATOM      1  N   UNL     1       4.757   4.917  18.243  0.00  0.00    +0.000 NA
ATOM      2  C   UNL     1       4.414   3.870  17.220  0.00  0.00    +0.000 C 
ATOM      3  C   UNL     1       2.927   3.506  17.050  0.00  0.00    +0.000 C 
ATOM      4  O   UNL     1       2.310   3.132  18.277  0.00  0.00    +0.000 OA
ATOM      5  C   UNL     1       1.664   4.189  18.994  0.00  0.00    +0.000 C 
ATOM      6  C   UNL     1       2.494   5.499  19.157  0.00  0.00    +0.000 C 
ATOM      7  C   UNL     1       2.333   6.352  17.871  0.00  0.00    +0.000 C 
ATOM      8  C   UNL     1       2.458   7.865  17.936  0.00  0.00    +0.000 C 
ATOM      9  N   UNL     1       1.957   8.546  19.114  0.00  0.00    +0.000 NA
ATOM     10  C   UNL     1       2.245   7.815  20.348  0.00  0.00    +0.000 C 
ATOM     11  C   UNL     1       1.908   6.312  20.349  0.00  0.00    +0.000 C 
ATOM     12  C   UNL     1       3.936   5.016  19.465  0.00  0.00    +0.000 C 
ENDROOT
BRANCH   1  14
ATOM     13  C   UNL     1       6.612   6.860  17.685  0.00  0.00    +0.000 C 
ATOM     14  S   UNL     1       6.430   5.240  18.425  0.00  0.00    +0.000 S 
ATOM     15  O   UNL     1       7.184   4.300  17.634  0.00  0.00    +0.000 OA
ATOM     16  O   UNL     1       6.688   5.391  19.838  0.00  0.00    +0.000 OA
ENDBRANCH   1  14
BRANCH   9  17
ATOM     17  C   UNL     1       0.604   9.099  19.003  0.00  0.00    +0.000 C 
BRANCH  17  18
ATOM     18  C   UNL     1       0.318  10.189  20.007  0.00  0.00    +0.000 A 
ATOM     19  C   UNL     1       0.763  11.503  20.059  0.00  0.00    +0.000 A 
ATOM     20  C   UNL     1       0.216  12.106  21.220  0.00  0.00    +0.000 A 
ATOM     21  C   UNL     1      -0.542  11.154  21.855  0.00  0.00    +0.000 A 
ATOM     22  N   UNL     1      -0.473   9.994  21.122  0.00  0.00    +0.000 N 
ATOM     23  H   UNL     1      -0.885   9.105  21.380  0.00  0.00    +0.000 HD
ENDBRANCH  17  18
ENDBRANCH   9  17
TORSDOF 3
ENDMDL
