MODEL 1
REMARK VINA RESULT:      -8.8      0.000      0.000
REMARK  Name = 
REMARK  4 active torsions:
REMARK  status: ('A' for Active; 'I' for Inactive)
REMARK    1  A    between atoms: C_2  and  C_3
REMARK    2  A    between atoms: C_13  and  C_14
REMARK    3  A    between atoms: C_14  and  C_15
REMARK    4  A    between atoms: C_18  and  C_19
REMARK                            x       y       z     vdW  Elec       q    Type
REMARK                         _______ _______ _______ _____ _____    ______ ____
ROOT
ATOM      1  C   UNL     1      -0.852  13.551  19.798  0.00  0.00    +0.000 C 
ATOM      2  C   UNL     1       0.152  14.321  18.928  0.00  0.00    +0.000 C 
ATOM      3  C   UNL     1       1.309  13.439  18.459  0.00  0.00    +0.000 C 
ATOM      4  C   UNL     1       2.005  12.771  19.638  0.00  0.00    +0.000 C 
ATOM      5  N   UNL     1       1.046  12.081  20.500  0.00  0.00    +0.000 N 
ATOM      6  C   UNL     1       1.070  10.694  20.555  0.00  0.00    +0.000 A 
ATOM      7  C   UNL     1       0.594  10.041  21.710  0.00  0.00    +0.000 A 
ATOM      8  C   UNL     1       0.647   8.651  21.846  0.00  0.00    +0.000 A 
ATOM      9  C   UNL     1       1.211   7.954  20.785  0.00  0.00    +0.000 A 
ATOM     10  N   UNL     1       1.467   6.623  20.609  0.00  0.00    +0.000 NA
ATOM     11  C   UNL     1       2.083   6.532  19.445  0.00  0.00    +0.000 A 
ATOM     12  N   UNL     1       2.145   7.760  18.830  0.00  0.00    +0.000 N 
ATOM     13  C   UNL     1       1.646   8.685  19.695  0.00  0.00    +0.000 A 
ATOM     14  N   UNL     1       1.614  10.013  19.519  0.00  0.00    +0.000 NA
ATOM     15  C   UNL     1      -0.142  12.810  20.939  0.00  0.00    +0.000 C 
ATOM     16  H   UNL     1       2.547   7.968  17.929  0.00  0.00    +0.000 HD
ENDROOT
BRANCH   1  18
ATOM     17  O   UNL     1      -1.378  12.199  17.860  0.00  0.00    +0.000 OA
ATOM     18  C   UNL     1      -1.731  12.609  18.967  0.00  0.00    +0.000 C 
ATOM     19  N   UNL     1      -2.963  12.259  19.495  0.00  0.00    +0.000 N 
ATOM     20  C   UNL     1      -3.809  11.293  18.811  0.00  0.00    +0.000 C 
ATOM     21  C   UNL     1      -5.195  11.907  18.888  0.00  0.00    +0.000 C 
ATOM     22  C   UNL     1      -5.184  12.575  20.255  0.00  0.00    +0.000 C 
ATOM     23  C   UNL     1      -3.757  13.100  20.381  0.00  0.00    +0.000 C 
ENDBRANCH   1  18
BRANCH  11  24
ATOM     24  C   UNL     1       2.662   5.218  18.879  0.00  0.00    +0.000 C 
ATOM     25  C   UNL     1       1.877   3.928  19.142  0.00  0.00    +0.000 C 
ATOM     26  C   UNL     1       1.836   4.522  17.788  0.00  0.00    +0.000 C 
BRANCH  24  27
ATOM     27  C   UNL     1       4.182   5.105  18.701  0.00  0.00    +0.000 A 
ATOM     28  C   UNL     1       4.990   4.121  19.213  0.00  0.00    +0.000 A 
ATOM     29  O   UNL     1       6.276   4.422  18.902  0.00  0.00    +0.000 OA
ATOM     30  C   UNL     1       6.183   5.584  18.184  0.00  0.00    +0.000 A 
ATOM     31  N   UNL     1       4.954   6.044  18.050  0.00  0.00    +0.000 NA
BRANCH  30  32
ATOM     32  C   UNL     1       7.397   6.288  17.603  0.00  0.00    +0.000 C 
ATOM     33  C   UNL     1       7.322   7.790  17.410  0.00  0.00    +0.000 C 
ATOM     34  C   UNL     1       8.173   7.235  18.500  0.00  0.00    +0.000 C 
ENDBRANCH  30  32
ENDBRANCH  24  27
ENDBRANCH  11  24
TORSDOF 4
ENDMDL
MODEL 2
REMARK VINA RESULT:      -8.5      1.287      1.567
REMARK  Name = 
REMARK  4 active torsions:
REMARK  status: ('A' for Active; 'I' for Inactive)
REMARK    1  A    between atoms: C_2  and  C_3
REMARK    2  A    between atoms: C_13  and  C_14
REMARK    3  A    between atoms: C_14  and  C_15
REMARK    4  A    between atoms: C_18  and  C_19
REMARK                            x       y       z     vdW  Elec       q    Type
REMARK                         _______ _______ _______ _____ _____    ______ ____
ROOT
ATOM      1  C   UNL     1      -1.329  13.023  19.337  0.00  0.00    +0.000 C 
ATOM      2  C   UNL     1      -0.269  13.806  18.550  0.00  0.00    +0.000 C 
ATOM      3  C   UNL     1       1.002  12.990  18.319  0.00  0.00    +0.000 C 
ATOM      4  C   UNL     1       1.569  12.469  19.633  0.00  0.00    +0.000 C 
ATOM      5  N   UNL     1       0.548  11.769  20.412  0.00  0.00    +0.000 N 
ATOM      6  C   UNL     1       0.663  10.396  20.586  0.00  0.00    +0.000 A 
ATOM      7  C   UNL     1       0.075   9.793  21.716  0.00  0.00    +0.000 A 
ATOM      8  C   UNL     1       0.206   8.425  21.974  0.00  0.00    +0.000 A 
ATOM      9  C   UNL     1       0.963   7.700  21.062  0.00  0.00    +0.000 A 
ATOM     10  N   UNL     1       1.335   6.386  21.035  0.00  0.00    +0.000 NA
ATOM     11  C   UNL     1       2.115   6.260  19.977  0.00  0.00    +0.000 A 
ATOM     12  N   UNL     1       2.176   7.440  19.275  0.00  0.00    +0.000 N 
ATOM     13  C   UNL     1       1.495   8.383  19.984  0.00  0.00    +0.000 A 
ATOM     14  N   UNL     1       1.395   9.688  19.694  0.00  0.00    +0.000 NA
ATOM     15  C   UNL     1      -0.738  12.428  20.622  0.00  0.00    +0.000 C 
ATOM     16  H   UNL     1       2.686   7.614  18.423  0.00  0.00    +0.000 HD
ENDROOT
BRANCH   1  18
ATOM     17  O   UNL     1      -1.443  11.431  17.518  0.00  0.00    +0.000 OA
ATOM     18  C   UNL     1      -2.013  11.954  18.476  0.00  0.00    +0.000 C 
ATOM     19  N   UNL     1      -3.318  11.619  18.798  0.00  0.00    +0.000 N 
ATOM     20  C   UNL     1      -3.997  10.545  18.090  0.00  0.00    +0.000 C 
ATOM     21  C   UNL     1      -5.382  11.107  17.822  0.00  0.00    +0.000 C 
ATOM     22  C   UNL     1      -5.650  11.932  19.072  0.00  0.00    +0.000 C 
ATOM     23  C   UNL     1      -4.285  12.526  19.403  0.00  0.00    +0.000 C 
ENDBRANCH   1  18
BRANCH  11  24
ATOM     24  C   UNL     1       2.859   4.960  19.607  0.00  0.00    +0.000 C 
ATOM     25  C   UNL     1       2.832   3.815  20.626  0.00  0.00    +0.000 C 
ATOM     26  C   UNL     1       1.992   3.708  19.412  0.00  0.00    +0.000 C 
BRANCH  24  27
ATOM     27  C   UNL     1       4.070   5.052  18.669  0.00  0.00    +0.000 A 
ATOM     28  C   UNL     1       5.391   5.016  19.040  0.00  0.00    +0.000 A 
ATOM     29  O   UNL     1       6.149   5.208  17.931  0.00  0.00    +0.000 OA
ATOM     30  C   UNL     1       5.236   5.333  16.919  0.00  0.00    +0.000 A 
ATOM     31  N   UNL     1       3.978   5.264  17.310  0.00  0.00    +0.000 NA
BRANCH  30  32
ATOM     32  C   UNL     1       5.641   5.544  15.470  0.00  0.00    +0.000 C 
ATOM     33  C   UNL     1       6.953   4.945  15.006  0.00  0.00    +0.000 C 
ATOM     34  C   UNL     1       5.671   4.337  14.552  0.00  0.00    +0.000 C 
ENDBRANCH  30  32
ENDBRANCH  24  27
ENDBRANCH  11  24
TORSDOF 4
ENDMDL
MODEL 3
REMARK VINA RESULT:      -8.1      2.407      4.267
REMARK  Name = 
REMARK  4 active torsions:
REMARK  status: ('A' for Active; 'I' for Inactive)
REMARK    1  A    between atoms: C_2  and  C_3
REMARK    2  A    between atoms: C_13  and  C_14
REMARK    3  A    between atoms: C_14  and  C_15
REMARK    4  A    between atoms: C_18  and  C_19
REMARK                            x       y       z     vdW  Elec       q    Type
REMARK                         _______ _______ _______ _____ _____    ______ ____
ROOT
ATOM      1  C   UNL     1       0.378  13.898  20.939  0.00  0.00    +0.000 C 
ATOM      2  C   UNL     1      -0.526  13.690  22.164  0.00  0.00    +0.000 C 
ATOM      3  C   UNL     1      -0.709  12.212  22.504  0.00  0.00    +0.000 C 
ATOM      4  C   UNL     1      -1.226  11.430  21.304  0.00  0.00    +0.000 C 
ATOM      5  N   UNL     1      -0.400  11.667  20.120  0.00  0.00    +0.000 N 
ATOM      6  C   UNL     1       0.375  10.627  19.624  0.00  0.00    +0.000 A 
ATOM      7  C   UNL     1       0.725  10.618  18.259  0.00  0.00    +0.000 A 
ATOM      8  C   UNL     1       1.454   9.568  17.691  0.00  0.00    +0.000 A 
ATOM      9  C   UNL     1       1.798   8.529  18.547  0.00  0.00    +0.000 A 
ATOM     10  N   UNL     1       2.445   7.347  18.323  0.00  0.00    +0.000 NA
ATOM     11  C   UNL     1       2.431   6.710  19.479  0.00  0.00    +0.000 A 
ATOM     12  N   UNL     1       1.871   7.495  20.459  0.00  0.00    +0.000 N 
ATOM     13  C   UNL     1       1.411   8.633  19.871  0.00  0.00    +0.000 A 
ATOM     14  N   UNL     1       0.716   9.617  20.459  0.00  0.00    +0.000 NA
ATOM     15  C   UNL     1      -0.094  13.047  19.752  0.00  0.00    +0.000 C 
ATOM     16  H   UNL     1       1.752   7.258  21.432  0.00  0.00    +0.000 HD
ENDROOT
BRANCH   1  18
ATOM     17  O   UNL     1       2.336  12.519  21.281  0.00  0.00    +0.000 OA
ATOM     18  C   UNL     1       1.856  13.652  21.265  0.00  0.00    +0.000 C 
ATOM     19  N   UNL     1       2.629  14.758  21.577  0.00  0.00    +0.000 N 
ATOM     20  C   UNL     1       4.060  14.615  21.800  0.00  0.00    +0.000 C 
ATOM     21  C   UNL     1       4.322  15.473  23.026  0.00  0.00    +0.000 C 
ATOM     22  C   UNL     1       3.357  16.633  22.828  0.00  0.00    +0.000 C 
ATOM     23  C   UNL     1       2.129  15.971  22.211  0.00  0.00    +0.000 C 
ENDBRANCH   1  18
BRANCH  11  24
ATOM     24  C   UNL     1       2.960   5.274  19.676  0.00  0.00    +0.000 C 
ATOM     25  C   UNL     1       2.657   4.586  21.012  0.00  0.00    +0.000 C 
ATOM     26  C   UNL     1       1.902   4.169  19.810  0.00  0.00    +0.000 C 
BRANCH  24  27
ATOM     27  C   UNL     1       4.233   4.855  18.930  0.00  0.00    +0.000 A 
ATOM     28  C   UNL     1       5.499   4.790  19.455  0.00  0.00    +0.000 A 
ATOM     29  O   UNL     1       6.356   4.457  18.457  0.00  0.00    +0.000 OA
ATOM     30  C   UNL     1       5.552   4.312  17.359  0.00  0.00    +0.000 A 
ATOM     31  N   UNL     1       4.275   4.556  17.585  0.00  0.00    +0.000 NA
BRANCH  30  32
ATOM     32  C   UNL     1       6.089   3.916  15.995  0.00  0.00    +0.000 C 
ATOM     33  C   UNL     1       5.460   4.551  14.772  0.00  0.00    +0.000 C 
ATOM     34  C   UNL     1       6.831   4.963  15.186  0.00  0.00    +0.000 C 
ENDBRANCH  30  32
ENDBRANCH  24  27
ENDBRANCH  11  24
TORSDOF 4
ENDMDL
MODEL 4
REMARK VINA RESULT:      -8.1      2.219      4.059
REMARK  Name = 
REMARK  4 active torsions:
REMARK  status: ('A' for Active; 'I' for Inactive)
REMARK    1  A    between atoms: C_2  and  C_3
REMARK    2  A    between atoms: C_13  and  C_14
REMARK    3  A    between atoms: C_14  and  C_15
REMARK    4  A    between atoms: C_18  and  C_19
REMARK                            x       y       z     vdW  Elec       q    Type
REMARK                         _______ _______ _______ _____ _____    ______ ____
ROOT
ATOM      1  C   UNL     1       0.212  14.051  21.038  0.00  0.00    +0.000 C 
ATOM      2  C   UNL     1      -0.658  13.871  22.291  0.00  0.00    +0.000 C 
ATOM      3  C   UNL     1      -0.829  12.402  22.671  0.00  0.00    +0.000 C 
ATOM      4  C   UNL     1      -1.377  11.591  21.504  0.00  0.00    +0.000 C 
ATOM      5  N   UNL     1      -0.584  11.800  20.293  0.00  0.00    +0.000 N 
ATOM      6  C   UNL     1       0.179  10.750  19.802  0.00  0.00    +0.000 A 
ATOM      7  C   UNL     1       0.492  10.709  18.428  0.00  0.00    +0.000 A 
ATOM      8  C   UNL     1       1.208   9.647  17.866  0.00  0.00    +0.000 A 
ATOM      9  C   UNL     1       1.576   8.629  18.736  0.00  0.00    +0.000 A 
ATOM     10  N   UNL     1       2.219   7.442  18.523  0.00  0.00    +0.000 NA
ATOM     11  C   UNL     1       2.237   6.833  19.694  0.00  0.00    +0.000 A 
ATOM     12  N   UNL     1       1.703   7.640  20.670  0.00  0.00    +0.000 N 
ATOM     13  C   UNL     1       1.225   8.764  20.067  0.00  0.00    +0.000 A 
ATOM     14  N   UNL     1       0.544   9.760  20.651  0.00  0.00    +0.000 NA
ATOM     15  C   UNL     1      -0.291  13.172  19.885  0.00  0.00    +0.000 C 
ATOM     16  H   UNL     1       1.610   7.427  21.651  0.00  0.00    +0.000 HD
ENDROOT
BRANCH   1  18
ATOM     17  O   UNL     1       2.187  12.685  21.332  0.00  0.00    +0.000 OA
ATOM     18  C   UNL     1       1.699  13.815  21.330  0.00  0.00    +0.000 C 
ATOM     19  N   UNL     1       2.471  14.925  21.627  0.00  0.00    +0.000 N 
ATOM     20  C   UNL     1       3.907  14.792  21.817  0.00  0.00    +0.000 C 
ATOM     21  C   UNL     1       4.192  15.648  23.039  0.00  0.00    +0.000 C 
ATOM     22  C   UNL     1       3.215  16.802  22.866  0.00  0.00    +0.000 C 
ATOM     23  C   UNL     1       1.978  16.133  22.276  0.00  0.00    +0.000 C 
ENDBRANCH   1  18
BRANCH  11  24
ATOM     24  C   UNL     1       2.774   5.402  19.911  0.00  0.00    +0.000 C 
ATOM     25  C   UNL     1       2.264   4.634  21.136  0.00  0.00    +0.000 C 
ATOM     26  C   UNL     1       1.749   4.265  19.799  0.00  0.00    +0.000 C 
BRANCH  24  27
ATOM     27  C   UNL     1       4.172   5.058  19.383  0.00  0.00    +0.000 A 
ATOM     28  C   UNL     1       4.812   3.849  19.503  0.00  0.00    +0.000 A 
ATOM     29  O   UNL     1       6.058   3.974  18.980  0.00  0.00    +0.000 OA
ATOM     30  C   UNL     1       6.108   5.270  18.540  0.00  0.00    +0.000 A 
ATOM     31  N   UNL     1       5.012   5.966  18.773  0.00  0.00    +0.000 NA
BRANCH  30  32
ATOM     32  C   UNL     1       7.329   5.856  17.854  0.00  0.00    +0.000 C 
ATOM     33  C   UNL     1       7.279   7.312  17.437  0.00  0.00    +0.000 C 
ATOM     34  C   UNL     1       8.128   6.912  18.594  0.00  0.00    +0.000 C 
ENDBRANCH  30  32
ENDBRANCH  24  27
ENDBRANCH  11  24
TORSDOF 4
ENDMDL
MODEL 5
REMARK VINA RESULT:      -8.1      0.959      1.065
REMARK  Name = 
REMARK  4 active torsions:
REMARK  status: ('A' for Active; 'I' for Inactive)
REMARK    1  A    between atoms: C_2  and  C_3
REMARK    2  A    between atoms: C_13  and  C_14
REMARK    3  A    between atoms: C_14  and  C_15
REMARK    4  A    between atoms: C_18  and  C_19
REMARK                            x       y       z     vdW  Elec       q    Type
REMARK                         _______ _______ _______ _____ _____    ______ ____
ROOT
ATOM      1  C   UNL     1      -1.536  12.497  19.895  0.00  0.00    +0.000 C 
ATOM      2  C   UNL     1      -0.644  13.508  19.160  0.00  0.00    +0.000 C 
ATOM      3  C   UNL     1       0.670  12.886  18.689  0.00  0.00    +0.000 C 
ATOM      4  C   UNL     1       1.418  12.237  19.846  0.00  0.00    +0.000 C 
ATOM      5  N   UNL     1       0.557  11.312  20.583  0.00  0.00    +0.000 N 
ATOM      6  C   UNL     1       0.823   9.951  20.518  0.00  0.00    +0.000 A 
ATOM      7  C   UNL     1       0.417   9.117  21.579  0.00  0.00    +0.000 A 
ATOM      8  C   UNL     1       0.708   7.750  21.595  0.00  0.00    +0.000 A 
ATOM      9  C   UNL     1       1.434   7.266  20.515  0.00  0.00    +0.000 A 
ATOM     10  N   UNL     1       1.929   6.023  20.239  0.00  0.00    +0.000 NA
ATOM     11  C   UNL     1       2.604   6.152  19.112  0.00  0.00    +0.000 A 
ATOM     12  N   UNL     1       2.477   7.426  18.612  0.00  0.00    +0.000 N 
ATOM     13  C   UNL     1       1.783   8.163  19.522  0.00  0.00    +0.000 A 
ATOM     14  N   UNL     1       1.526   9.478  19.461  0.00  0.00    +0.000 NA
ATOM     15  C   UNL     1      -0.759  11.781  21.009  0.00  0.00    +0.000 C 
ATOM     16  H   UNL     1       2.877   7.786  17.760  0.00  0.00    +0.000 HD
ENDROOT
BRANCH   1  18
ATOM     17  O   UNL     1      -1.533  10.819  18.151  0.00  0.00    +0.000 OA
ATOM     18  C   UNL     1      -2.196  11.503  18.931  0.00  0.00    +0.000 C 
ATOM     19  N   UNL     1      -3.579  11.427  18.947  0.00  0.00    +0.000 N 
ATOM     20  C   UNL     1      -4.270  10.439  18.133  0.00  0.00    +0.000 C 
ATOM     21  C   UNL     1      -5.428  11.213  17.529  0.00  0.00    +0.000 C 
ATOM     22  C   UNL     1      -5.811  12.163  18.655  0.00  0.00    +0.000 C 
ATOM     23  C   UNL     1      -4.469  12.532  19.279  0.00  0.00    +0.000 C 
ENDBRANCH   1  18
BRANCH  11  24
ATOM     24  C   UNL     1       3.431   5.017  18.470  0.00  0.00    +0.000 C 
ATOM     25  C   UNL     1       2.966   3.577  18.714  0.00  0.00    +0.000 C 
ATOM     26  C   UNL     1       2.727   4.188  17.387  0.00  0.00    +0.000 C 
BRANCH  24  27
ATOM     27  C   UNL     1       4.927   5.252  18.224  0.00  0.00    +0.000 A 
ATOM     28  C   UNL     1       5.931   4.328  18.376  0.00  0.00    +0.000 A 
ATOM     29  O   UNL     1       7.116   4.946  18.141  0.00  0.00    +0.000 OA
ATOM     30  C   UNL     1       6.767   6.234  17.833  0.00  0.00    +0.000 A 
ATOM     31  N   UNL     1       5.471   6.473  17.885  0.00  0.00    +0.000 NA
BRANCH  30  32
ATOM     32  C   UNL     1       7.790   7.297  17.474  0.00  0.00    +0.000 C 
ATOM     33  C   UNL     1       7.348   8.746  17.502  0.00  0.00    +0.000 C 
ATOM     34  C   UNL     1       8.259   8.239  18.567  0.00  0.00    +0.000 C 
ENDBRANCH  30  32
ENDBRANCH  24  27
ENDBRANCH  11  24
TORSDOF 4
ENDMDL
MODEL 6
REMARK VINA RESULT:      -7.9      1.575      1.816
REMARK  Name = 
REMARK  4 active torsions:
REMARK  status: ('A' for Active; 'I' for Inactive)
REMARK    1  A    between atoms: C_2  and  C_3
REMARK    2  A    between atoms: C_13  and  C_14
REMARK    3  A    between atoms: C_14  and  C_15
REMARK    4  A    between atoms: C_18  and  C_19
REMARK                            x       y       z     vdW  Elec       q    Type
REMARK                         _______ _______ _______ _____ _____    ______ ____
ROOT
ATOM      1  C   UNL     1      -0.947  13.515  19.814  0.00  0.00    +0.000 C 
ATOM      2  C   UNL     1      -0.068  14.370  18.888  0.00  0.00    +0.000 C 
ATOM      3  C   UNL     1       1.080  13.568  18.277  0.00  0.00    +0.000 C 
ATOM      4  C   UNL     1       1.916  12.893  19.355  0.00  0.00    +0.000 C 
ATOM      5  N   UNL     1       1.078  12.121  20.273  0.00  0.00    +0.000 N 
ATOM      6  C   UNL     1       1.175  10.736  20.265  0.00  0.00    +0.000 A 
ATOM      7  C   UNL     1       0.842  10.015  21.429  0.00  0.00    +0.000 A 
ATOM      8  C   UNL     1       0.975   8.625  21.499  0.00  0.00    +0.000 A 
ATOM      9  C   UNL     1       1.469   8.000  20.361  0.00  0.00    +0.000 A 
ATOM     10  N   UNL     1       1.772   6.692  20.104  0.00  0.00    +0.000 NA
ATOM     11  C   UNL     1       2.278   6.678  18.885  0.00  0.00    +0.000 A 
ATOM     12  N   UNL     1       2.221   7.930  18.321  0.00  0.00    +0.000 N 
ATOM     13  C   UNL     1       1.763   8.794  19.268  0.00  0.00    +0.000 A 
ATOM     14  N   UNL     1       1.650  10.125  19.153  0.00  0.00    +0.000 NA
ATOM     15  C   UNL     1      -0.097  12.769  20.851  0.00  0.00    +0.000 C 
ATOM     16  H   UNL     1       2.526   8.194  17.397  0.00  0.00    +0.000 HD
ENDROOT
BRANCH   1  18
ATOM     17  O   UNL     1      -1.504  12.070  17.954  0.00  0.00    +0.000 OA
ATOM     18  C   UNL     1      -1.855  12.561  19.028  0.00  0.00    +0.000 C 
ATOM     19  N   UNL     1      -3.107  12.297  19.557  0.00  0.00    +0.000 N 
ATOM     20  C   UNL     1      -3.984  11.326  18.919  0.00  0.00    +0.000 C 
ATOM     21  C   UNL     1      -5.344  12.002  18.936  0.00  0.00    +0.000 C 
ATOM     22  C   UNL     1      -5.322  12.752  20.260  0.00  0.00    +0.000 C 
ATOM     23  C   UNL     1      -3.877  13.223  20.376  0.00  0.00    +0.000 C 
ENDBRANCH   1  18
BRANCH  11  24
ATOM     24  C   UNL     1       2.864   5.419  18.211  0.00  0.00    +0.000 C 
ATOM     25  C   UNL     1       2.674   4.079  18.931  0.00  0.00    +0.000 C 
ATOM     26  C   UNL     1       1.852   4.368  17.734  0.00  0.00    +0.000 C 
BRANCH  24  27
ATOM     27  C   UNL     1       4.095   5.578  17.310  0.00  0.00    +0.000 A 
ATOM     28  C   UNL     1       4.681   6.761  16.935  0.00  0.00    +0.000 A 
ATOM     29  O   UNL     1       5.691   6.481  16.074  0.00  0.00    +0.000 OA
ATOM     30  C   UNL     1       5.683   5.115  15.982  0.00  0.00    +0.000 A 
ATOM     31  N   UNL     1       4.737   4.528  16.689  0.00  0.00    +0.000 NA
BRANCH  30  32
ATOM     32  C   UNL     1       6.675   4.345  15.128  0.00  0.00    +0.000 C 
ATOM     33  C   UNL     1       6.204   3.832  13.782  0.00  0.00    +0.000 C 
ATOM     34  C   UNL     1       7.151   4.981  13.835  0.00  0.00    +0.000 C 
ENDBRANCH  30  32
ENDBRANCH  24  27
ENDBRANCH  11  24
TORSDOF 4
ENDMDL
MODEL 7
REMARK VINA RESULT:      -7.7      2.331      4.048
REMARK  Name = 
REMARK  4 active torsions:
REMARK  status: ('A' for Active; 'I' for Inactive)
REMARK    1  A    between atoms: C_2  and  C_3
REMARK    2  A    between atoms: C_13  and  C_14
REMARK    3  A    between atoms: C_14  and  C_15
REMARK    4  A    between atoms: C_18  and  C_19
REMARK                            x       y       z     vdW  Elec       q    Type
REMARK                         _______ _______ _______ _____ _____    ______ ____
ROOT
ATOM      1  C   UNL     1      -0.172  14.444  21.062  0.00  0.00    +0.000 C 
ATOM      2  C   UNL     1      -0.793  14.241  22.452  0.00  0.00    +0.000 C 
ATOM      3  C   UNL     1      -0.794  12.774  22.878  0.00  0.00    +0.000 C 
ATOM      4  C   UNL     1      -1.482  11.898  21.838  0.00  0.00    +0.000 C 
ATOM      5  N   UNL     1      -0.931  12.127  20.503  0.00  0.00    +0.000 N 
ATOM      6  C   UNL     1      -0.196  11.116  19.899  0.00  0.00    +0.000 A 
ATOM      7  C   UNL     1      -0.128  11.059  18.492  0.00  0.00    +0.000 A 
ATOM      8  C   UNL     1       0.548  10.031  17.828  0.00  0.00    +0.000 A 
ATOM      9  C   UNL     1       1.133   9.062  18.633  0.00  0.00    +0.000 A 
ATOM     10  N   UNL     1       1.808   7.915  18.326  0.00  0.00    +0.000 NA
ATOM     11  C   UNL     1       2.073   7.339  19.484  0.00  0.00    +0.000 A 
ATOM     12  N   UNL     1       1.666   8.135  20.528  0.00  0.00    +0.000 N 
ATOM     13  C   UNL     1       1.014   9.209  20.003  0.00  0.00    +0.000 A 
ATOM     14  N   UNL     1       0.380  10.174  20.684  0.00  0.00    +0.000 NA
ATOM     15  C   UNL     1      -0.809  13.503  20.029  0.00  0.00    +0.000 C 
ATOM     16  H   UNL     1       1.762   7.942  21.512  0.00  0.00    +0.000 HD
ENDROOT
BRANCH   1  18
ATOM     17  O   UNL     1       1.962  14.005  22.115  0.00  0.00    +0.000 OA
ATOM     18  C   UNL     1       1.355  14.312  21.089  0.00  0.00    +0.000 C 
ATOM     19  N   UNL     1       2.036  14.586  19.914  0.00  0.00    +0.000 N 
ATOM     20  C   UNL     1       3.475  14.387  19.836  0.00  0.00    +0.000 C 
ATOM     21  C   UNL     1       3.973  15.623  19.106  0.00  0.00    +0.000 C 
ATOM     22  C   UNL     1       2.850  15.893  18.114  0.00  0.00    +0.000 C 
ATOM     23  C   UNL     1       1.592  15.527  18.895  0.00  0.00    +0.000 C 
ENDBRANCH   1  18
BRANCH  11  24
ATOM     24  C   UNL     1       2.737   5.952  19.623  0.00  0.00    +0.000 C 
ATOM     25  C   UNL     1       2.584   5.227  20.965  0.00  0.00    +0.000 C 
ATOM     26  C   UNL     1       1.789   4.758  19.808  0.00  0.00    +0.000 C 
BRANCH  24  27
ATOM     27  C   UNL     1       3.988   5.653  18.788  0.00  0.00    +0.000 A 
ATOM     28  C   UNL     1       5.221   5.291  19.271  0.00  0.00    +0.000 A 
ATOM     29  O   UNL     1       6.077   5.197  18.223  0.00  0.00    +0.000 OA
ATOM     30  C   UNL     1       5.304   5.491  17.132  0.00  0.00    +0.000 A 
ATOM     31  N   UNL     1       4.052   5.787  17.417  0.00  0.00    +0.000 NA
BRANCH  30  32
ATOM     32  C   UNL     1       5.851   5.486  15.715  0.00  0.00    +0.000 C 
ATOM     33  C   UNL     1       7.056   4.615  15.422  0.00  0.00    +0.000 C 
ATOM     34  C   UNL     1       5.719   4.212  14.901  0.00  0.00    +0.000 C 
ENDBRANCH  30  32
ENDBRANCH  24  27
ENDBRANCH  11  24
TORSDOF 4
ENDMDL
MODEL 8
REMARK VINA RESULT:      -7.6      2.053      2.504
REMARK  Name = 
REMARK  4 active torsions:
REMARK  status: ('A' for Active; 'I' for Inactive)
REMARK    1  A    between atoms: C_2  and  C_3
REMARK    2  A    between atoms: C_13  and  C_14
REMARK    3  A    between atoms: C_14  and  C_15
REMARK    4  A    between atoms: C_18  and  C_19
REMARK                            x       y       z     vdW  Elec       q    Type
REMARK                         _______ _______ _______ _____ _____    ______ ____
ROOT
ATOM      1  C   UNL     1      -0.990  11.695  19.200  0.00  0.00    +0.000 C 
ATOM      2  C   UNL     1       0.036  12.665  18.596  0.00  0.00    +0.000 C 
ATOM      3  C   UNL     1       1.396  12.005  18.372  0.00  0.00    +0.000 C 
ATOM      4  C   UNL     1       1.924  11.381  19.657  0.00  0.00    +0.000 C 
ATOM      5  N   UNL     1       0.930  10.497  20.266  0.00  0.00    +0.000 N 
ATOM      6  C   UNL     1       1.172   9.130  20.287  0.00  0.00    +0.000 A 
ATOM      7  C   UNL     1       0.574   8.339  21.289  0.00  0.00    +0.000 A 
ATOM      8  C   UNL     1       0.827   6.969  21.394  0.00  0.00    +0.000 A 
ATOM      9  C   UNL     1       1.713   6.436  20.467  0.00  0.00    +0.000 A 
ATOM     10  N   UNL     1       2.218   5.175  20.315  0.00  0.00    +0.000 NA
ATOM     11  C   UNL     1       3.075   5.255  19.315  0.00  0.00    +0.000 A 
ATOM     12  N   UNL     1       3.063   6.514  18.763  0.00  0.00    +0.000 N 
ATOM     13  C   UNL     1       2.244   7.294  19.521  0.00  0.00    +0.000 A 
ATOM     14  N   UNL     1       2.031   8.609  19.378  0.00  0.00    +0.000 NA
ATOM     15  C   UNL     1      -0.427  11.003  20.450  0.00  0.00    +0.000 C 
ATOM     16  H   UNL     1       3.609   6.838  17.980  0.00  0.00    +0.000 HD
ENDROOT
BRANCH   1  18
ATOM     17  O   UNL     1      -0.746   9.883  17.615  0.00  0.00    +0.000 OA
ATOM     18  C   UNL     1      -1.502  10.682  18.169  0.00  0.00    +0.000 C 
ATOM     19  N   UNL     1      -2.850  10.721  17.857  0.00  0.00    +0.000 N 
ATOM     20  C   UNL     1      -3.426   9.729  16.963  0.00  0.00    +0.000 C 
ATOM     21  C   UNL     1      -4.329  10.542  16.051  0.00  0.00    +0.000 C 
ATOM     22  C   UNL     1      -4.867  11.611  16.991  0.00  0.00    +0.000 C 
ATOM     23  C   UNL     1      -3.679  11.919  17.896  0.00  0.00    +0.000 C 
ENDBRANCH   1  18
BRANCH  11  24
ATOM     24  C   UNL     1       3.972   4.085  18.856  0.00  0.00    +0.000 C 
ATOM     25  C   UNL     1       4.283   2.988  19.880  0.00  0.00    +0.000 C 
ATOM     26  C   UNL     1       3.312   2.700  18.801  0.00  0.00    +0.000 C 
BRANCH  24  27
ATOM     27  C   UNL     1       5.006   4.346  17.753  0.00  0.00    +0.000 A 
ATOM     28  C   UNL     1       6.359   4.495  17.925  0.00  0.00    +0.000 A 
ATOM     29  O   UNL     1       6.911   4.792  16.722  0.00  0.00    +0.000 OA
ATOM     30  C   UNL     1       5.850   4.788  15.857  0.00  0.00    +0.000 A 
ATOM     31  N   UNL     1       4.686   4.544  16.426  0.00  0.00    +0.000 NA
BRANCH  30  32
ATOM     32  C   UNL     1       6.003   5.054  14.370  0.00  0.00    +0.000 C 
ATOM     33  C   UNL     1       7.373   4.856  13.750  0.00  0.00    +0.000 C 
ATOM     34  C   UNL     1       6.289   3.876  13.457  0.00  0.00    +0.000 C 
ENDBRANCH  30  32
ENDBRANCH  24  27
ENDBRANCH  11  24
TORSDOF 4
ENDMDL
MODEL 9
REMARK VINA RESULT:      -7.4      1.520      3.129
REMARK  Name = 
REMARK  4 active torsions:
REMARK  status: ('A' for Active; 'I' for Inactive)
REMARK    1  A    between atoms: C_2  and  C_3
REMARK    2  A    between atoms: C_13  and  C_14
REMARK    3  A    between atoms: C_14  and  C_15
REMARK    4  A    between atoms: C_18  and  C_19
REMARK                            x       y       z     vdW  Elec       q    Type
REMARK                         _______ _______ _______ _____ _____    ______ ____
ROOT
ATOM      1  C   UNL     1      -1.839  12.936  19.930  0.00  0.00    +0.000 C 
ATOM      2  C   UNL     1      -1.110  14.143  19.322  0.00  0.00    +0.000 C 
ATOM      3  C   UNL     1       0.257  13.769  18.753  0.00  0.00    +0.000 C 
ATOM      4  C   UNL     1       1.121  13.080  19.801  0.00  0.00    +0.000 C 
ATOM      5  N   UNL     1       0.412  11.962  20.422  0.00  0.00    +0.000 N 
ATOM      6  C   UNL     1       0.850  10.668  20.172  0.00  0.00    +0.000 A 
ATOM      7  C   UNL     1       0.591   9.657  21.119  0.00  0.00    +0.000 A 
ATOM      8  C   UNL     1       1.057   8.350  20.949  0.00  0.00    +0.000 A 
ATOM      9  C   UNL     1       1.805   8.112  19.803  0.00  0.00    +0.000 A 
ATOM     10  N   UNL     1       2.448   6.992  19.356  0.00  0.00    +0.000 NA
ATOM     11  C   UNL     1       3.063   7.354  18.246  0.00  0.00    +0.000 A 
ATOM     12  N   UNL     1       2.754   8.654  17.922  0.00  0.00    +0.000 N 
ATOM     13  C   UNL     1       2.001   9.169  18.933  0.00  0.00    +0.000 A 
ATOM     14  N   UNL     1       1.573  10.434  19.051  0.00  0.00    +0.000 NA
ATOM     15  C   UNL     1      -0.939  12.191  20.927  0.00  0.00    +0.000 C 
ATOM     16  H   UNL     1       3.076   9.172  17.119  0.00  0.00    +0.000 HD
ENDROOT
BRANCH   1  18
ATOM     17  O   UNL     1      -1.682  11.538  17.960  0.00  0.00    +0.000 OA
ATOM     18  C   UNL     1      -2.396  11.997  18.853  0.00  0.00    +0.000 C 
ATOM     19  N   UNL     1      -3.749  11.707  18.902  0.00  0.00    +0.000 N 
ATOM     20  C   UNL     1      -4.329  10.748  17.975  0.00  0.00    +0.000 C 
ATOM     21  C   UNL     1      -5.620  11.411  17.528  0.00  0.00    +0.000 C 
ATOM     22  C   UNL     1      -6.078  12.124  18.793  0.00  0.00    +0.000 C 
ATOM     23  C   UNL     1      -4.774  12.604  19.420  0.00  0.00    +0.000 C 
ENDBRANCH   1  18
BRANCH  11  24
ATOM     24  C   UNL     1       4.009   6.434  17.447  0.00  0.00    +0.000 C 
ATOM     25  C   UNL     1       4.590   6.982  16.138  0.00  0.00    +0.000 C 
ATOM     26  C   UNL     1       5.468   6.894  17.326  0.00  0.00    +0.000 C 
BRANCH  24  27
ATOM     27  C   UNL     1       3.824   4.915  17.565  0.00  0.00    +0.000 A 
ATOM     28  C   UNL     1       4.541   3.954  16.897  0.00  0.00    +0.000 A 
ATOM     29  O   UNL     1       4.022   2.741  17.212  0.00  0.00    +0.000 OA
ATOM     30  C   UNL     1       3.009   3.027  18.087  0.00  0.00    +0.000 A 
ATOM     31  N   UNL     1       2.838   4.314  18.319  0.00  0.00    +0.000 NA
BRANCH  30  32
ATOM     32  C   UNL     1       2.149   1.951  18.727  0.00  0.00    +0.000 C 
ATOM     33  C   UNL     1       1.544   2.241  20.086  0.00  0.00    +0.000 C 
ATOM     34  C   UNL     1       0.664   2.220  18.883  0.00  0.00    +0.000 C 
ENDBRANCH  30  32
ENDBRANCH  24  27
ENDBRANCH  11  24
TORSDOF 4
ENDMDL
