MODEL 1
REMARK VINA RESULT:      -5.0      0.000      0.000
REMARK  Name = 
REMARK  1 active torsions:
REMARK  status: ('A' for Active; 'I' for Inactive)
REMARK    1  A    between atoms: O_1  and  C_2
REMARK                            x       y       z     vdW  Elec       q    Type
REMARK                         _______ _______ _______ _____ _____    ______ ____
ROOT
ATOM      1  C   UNL     1       7.349   5.719  19.424  0.00  0.00    +0.000 A 
ATOM      2  C   UNL     1       7.885   6.586  18.479  0.00  0.00    +0.000 A 
ATOM      3  C   UNL     1       7.159   6.873  17.322  0.00  0.00    +0.000 A 
ATOM      4  C   UNL     1       5.900   6.291  17.118  0.00  0.00    +0.000 A 
ATOM      5 CL   UNL     1       5.050   6.705  15.672  0.00  0.00    +0.000 Cl
ATOM      6  C   UNL     1       5.376   5.411  18.073  0.00  0.00    +0.000 A 
ATOM      7 CL   UNL     1       3.831   4.659  17.890  0.00  0.00    +0.000 Cl
ATOM      8  C   UNL     1       6.108   5.122  19.227  0.00  0.00    +0.000 A 
ENDROOT
BRANCH   1   9
ATOM      9  O   UNL     1       8.016   5.427  20.577  0.00  0.00    +0.000 OA
ATOM     10  H   UNL     1       7.471   5.695  21.336  0.00  0.00    +0.000 HD
ENDBRANCH   1   9
TORSDOF 1
ENDMDL
MODEL 2
REMARK VINA RESULT:      -4.7      3.985      4.720
REMARK  Name = 
REMARK  1 active torsions:
REMARK  status: ('A' for Active; 'I' for Inactive)
REMARK    1  A    between atoms: O_1  and  C_2
REMARK                            x       y       z     vdW  Elec       q    Type
REMARK                         _______ _______ _______ _____ _____    ______ ____
ROOT
ATOM      1  C   UNL     1       4.826   3.589  18.540  0.00  0.00    +0.000 A 
ATOM      2  C   UNL     1       4.065   3.462  17.384  0.00  0.00    +0.000 A 
ATOM      3  C   UNL     1       2.725   3.082  17.483  0.00  0.00    +0.000 A 
ATOM      4  C   UNL     1       2.155   2.832  18.739  0.00  0.00    +0.000 A 
ATOM      5 CL   UNL     1       0.488   2.383  18.786  0.00  0.00    +0.000 Cl
ATOM      6  C   UNL     1       2.935   2.953  19.895  0.00  0.00    +0.000 A 
ATOM      7 CL   UNL     1       2.299   2.663  21.475  0.00  0.00    +0.000 Cl
ATOM      8  C   UNL     1       4.277   3.328  19.792  0.00  0.00    +0.000 A 
ENDROOT
BRANCH   1   9
ATOM      9  O   UNL     1       6.131   3.977  18.491  0.00  0.00    +0.000 OA
ATOM     10  H   UNL     1       6.581   3.490  17.780  0.00  0.00    +0.000 HD
ENDBRANCH   1   9
TORSDOF 1
ENDMDL
MODEL 3
REMARK VINA RESULT:      -4.7      3.818      4.737
REMARK  Name = 
REMARK  1 active torsions:
REMARK  status: ('A' for Active; 'I' for Inactive)
REMARK    1  A    between atoms: O_1  and  C_2
REMARK                            x       y       z     vdW  Elec       q    Type
REMARK                         _______ _______ _______ _____ _____    ______ ____
ROOT
ATOM      1  C   UNL     1       3.535   2.010  18.332  0.00  0.00    +0.000 A 
ATOM      2  C   UNL     1       2.305   2.381  17.802  0.00  0.00    +0.000 A 
ATOM      3  C   UNL     1       1.960   3.732  17.751  0.00  0.00    +0.000 A 
ATOM      4  C   UNL     1       2.848   4.704  18.229  0.00  0.00    +0.000 A 
ATOM      5 CL   UNL     1       2.363   6.359  18.117  0.00  0.00    +0.000 Cl
ATOM      6  C   UNL     1       4.080   4.317  18.770  0.00  0.00    +0.000 A 
ATOM      7 CL   UNL     1       5.226   5.460  19.377  0.00  0.00    +0.000 Cl
ATOM      8  C   UNL     1       4.420   2.963  18.826  0.00  0.00    +0.000 A 
ENDROOT
BRANCH   1   9
ATOM      9  O   UNL     1       3.920   0.703  18.384  0.00  0.00    +0.000 OA
ATOM     10  H   UNL     1       3.162   0.158  18.655  0.00  0.00    +0.000 HD
ENDBRANCH   1   9
TORSDOF 1
ENDMDL
MODEL 4
REMARK VINA RESULT:      -4.6      4.115      4.717
REMARK  Name = 
REMARK  1 active torsions:
REMARK  status: ('A' for Active; 'I' for Inactive)
REMARK    1  A    between atoms: O_1  and  C_2
REMARK                            x       y       z     vdW  Elec       q    Type
REMARK                         _______ _______ _______ _____ _____    ______ ____
ROOT
ATOM      1  C   UNL     1       3.522   2.031  18.316  0.00  0.00    +0.000 A 
ATOM      2  C   UNL     1       4.069   2.921  17.399  0.00  0.00    +0.000 A 
ATOM      3  C   UNL     1       3.643   4.251  17.398  0.00  0.00    +0.000 A 
ATOM      4  C   UNL     1       2.675   4.682  18.314  0.00  0.00    +0.000 A 
ATOM      5 CL   UNL     1       2.211   6.345  18.267  0.00  0.00    +0.000 Cl
ATOM      6  C   UNL     1       2.125   3.772  19.226  0.00  0.00    +0.000 A 
ATOM      7 CL   UNL     1       0.929   4.233  20.386  0.00  0.00    +0.000 Cl
ATOM      8  C   UNL     1       2.548   2.441  19.221  0.00  0.00    +0.000 A 
ENDROOT
BRANCH   1   9
ATOM      9  O   UNL     1       3.922   0.729  18.365  0.00  0.00    +0.000 OA
ATOM     10  H   UNL     1       3.158   0.154  18.186  0.00  0.00    +0.000 HD
ENDBRANCH   1   9
TORSDOF 1
ENDMDL
MODEL 5
REMARK VINA RESULT:      -4.6      4.670      5.181
REMARK  Name = 
REMARK  1 active torsions:
REMARK  status: ('A' for Active; 'I' for Inactive)
REMARK    1  A    between atoms: O_1  and  C_2
REMARK                            x       y       z     vdW  Elec       q    Type
REMARK                         _______ _______ _______ _____ _____    ______ ____
ROOT
ATOM      1  C   UNL     1       2.207   6.333  19.849  0.00  0.00    +0.000 A 
ATOM      2  C   UNL     1       2.525   6.126  18.511  0.00  0.00    +0.000 A 
ATOM      3  C   UNL     1       2.445   4.837  17.980  0.00  0.00    +0.000 A 
ATOM      4  C   UNL     1       2.047   3.765  18.789  0.00  0.00    +0.000 A 
ATOM      5 CL   UNL     1       1.953   2.202  18.059  0.00  0.00    +0.000 Cl
ATOM      6  C   UNL     1       1.739   3.986  20.137  0.00  0.00    +0.000 A 
ATOM      7 CL   UNL     1       1.239   2.712  21.193  0.00  0.00    +0.000 Cl
ATOM      8  C   UNL     1       1.826   5.275  20.668  0.00  0.00    +0.000 A 
ENDROOT
BRANCH   1   9
ATOM      9  O   UNL     1       2.253   7.577  20.404  0.00  0.00    +0.000 OA
ATOM     10  H   UNL     1       2.947   8.097  19.965  0.00  0.00    +0.000 HD
ENDBRANCH   1   9
TORSDOF 1
ENDMDL
MODEL 6
REMARK VINA RESULT:      -4.6      1.401      1.410
REMARK  Name = 
REMARK  1 active torsions:
REMARK  status: ('A' for Active; 'I' for Inactive)
REMARK    1  A    between atoms: O_1  and  C_2
REMARK                            x       y       z     vdW  Elec       q    Type
REMARK                         _______ _______ _______ _____ _____    ______ ____
ROOT
ATOM      1  C   UNL     1       7.140   5.249  19.242  0.00  0.00    +0.000 A 
ATOM      2  C   UNL     1       7.884   4.903  18.120  0.00  0.00    +0.000 A 
ATOM      3  C   UNL     1       7.226   4.617  16.923  0.00  0.00    +0.000 A 
ATOM      4  C   UNL     1       5.828   4.678  16.854  0.00  0.00    +0.000 A 
ATOM      5 CL   UNL     1       5.084   4.329  15.335  0.00  0.00    +0.000 Cl
ATOM      6  C   UNL     1       5.089   5.017  17.995  0.00  0.00    +0.000 A 
ATOM      7 CL   UNL     1       3.364   5.115  17.984  0.00  0.00    +0.000 Cl
ATOM      8  C   UNL     1       5.750   5.298  19.193  0.00  0.00    +0.000 A 
ENDROOT
BRANCH   1   9
ATOM      9  O   UNL     1       7.741   5.555  20.426  0.00  0.00    +0.000 OA
ATOM     10  H   UNL     1       8.677   5.762  20.264  0.00  0.00    +0.000 HD
ENDBRANCH   1   9
TORSDOF 1
ENDMDL
MODEL 7
REMARK VINA RESULT:      -4.6      4.547      5.269
REMARK  Name = 
REMARK  1 active torsions:
REMARK  status: ('A' for Active; 'I' for Inactive)
REMARK    1  A    between atoms: O_1  and  C_2
REMARK                            x       y       z     vdW  Elec       q    Type
REMARK                         _______ _______ _______ _____ _____    ______ ____
ROOT
ATOM      1  C   UNL     1       1.385   3.210  19.473  0.00  0.00    +0.000 A 
ATOM      2  C   UNL     1       1.960   2.150  18.781  0.00  0.00    +0.000 A 
ATOM      3  C   UNL     1       2.931   2.411  17.813  0.00  0.00    +0.000 A 
ATOM      4  C   UNL     1       3.322   3.729  17.543  0.00  0.00    +0.000 A 
ATOM      5 CL   UNL     1       4.542   3.975  16.345  0.00  0.00    +0.000 Cl
ATOM      6  C   UNL     1       2.727   4.788  18.241  0.00  0.00    +0.000 A 
ATOM      7 CL   UNL     1       3.161   6.438  17.963  0.00  0.00    +0.000 Cl
ATOM      8  C   UNL     1       1.752   4.525  19.205  0.00  0.00    +0.000 A 
ENDROOT
BRANCH   1   9
ATOM      9  O   UNL     1       0.448   3.000  20.440  0.00  0.00    +0.000 OA
ATOM     10  H   UNL     1       0.409   3.779  21.020  0.00  0.00    +0.000 HD
ENDBRANCH   1   9
TORSDOF 1
ENDMDL
MODEL 8
REMARK VINA RESULT:      -4.5      3.333      4.021
REMARK  Name = 
REMARK  1 active torsions:
REMARK  status: ('A' for Active; 'I' for Inactive)
REMARK    1  A    between atoms: O_1  and  C_2
REMARK                            x       y       z     vdW  Elec       q    Type
REMARK                         _______ _______ _______ _____ _____    ______ ____
ROOT
ATOM      1  C   UNL     1       4.478   2.948  19.624  0.00  0.00    +0.000 A 
ATOM      2  C   UNL     1       5.160   4.082  19.199  0.00  0.00    +0.000 A 
ATOM      3  C   UNL     1       4.497   5.310  19.170  0.00  0.00    +0.000 A 
ATOM      4  C   UNL     1       3.156   5.396  19.567  0.00  0.00    +0.000 A 
ATOM      5 CL   UNL     1       2.405   6.951  19.522  0.00  0.00    +0.000 Cl
ATOM      6  C   UNL     1       2.477   4.244  19.983  0.00  0.00    +0.000 A 
ATOM      7 CL   UNL     1       0.825   4.276  20.489  0.00  0.00    +0.000 Cl
ATOM      8  C   UNL     1       3.141   3.016  20.006  0.00  0.00    +0.000 A 
ENDROOT
BRANCH   1   9
ATOM      9  O   UNL     1       5.091   1.732  19.687  0.00  0.00    +0.000 OA
ATOM     10  H   UNL     1       5.388   1.572  20.599  0.00  0.00    +0.000 HD
ENDBRANCH   1   9
TORSDOF 1
ENDMDL
MODEL 9
REMARK VINA RESULT:      -4.5      3.113      4.365
REMARK  Name = 
REMARK  1 active torsions:
REMARK  status: ('A' for Active; 'I' for Inactive)
REMARK    1  A    between atoms: O_1  and  C_2
REMARK                            x       y       z     vdW  Elec       q    Type
REMARK                         _______ _______ _______ _____ _____    ______ ____
ROOT
ATOM      1  C   UNL     1       5.132   4.073  19.088  0.00  0.00    +0.000 A 
ATOM      2  C   UNL     1       4.473   2.901  19.441  0.00  0.00    +0.000 A 
ATOM      3  C   UNL     1       3.149   2.965  19.880  0.00  0.00    +0.000 A 
ATOM      4  C   UNL     1       2.493   4.200  19.963  0.00  0.00    +0.000 A 
ATOM      5 CL   UNL     1       0.850   4.201  20.497  0.00  0.00    +0.000 Cl
ATOM      6  C   UNL     1       3.172   5.375  19.614  0.00  0.00    +0.000 A 
ATOM      7 CL   UNL     1       2.425   6.932  19.688  0.00  0.00    +0.000 Cl
ATOM      8  C   UNL     1       4.498   5.308  19.180  0.00  0.00    +0.000 A 
ENDROOT
BRANCH   1   9
ATOM      9  O   UNL     1       6.417   4.055  18.635  0.00  0.00    +0.000 OA
ATOM     10  H   UNL     1       6.415   3.910  17.674  0.00  0.00    +0.000 HD
ENDBRANCH   1   9
TORSDOF 1
ENDMDL
