MODEL 1
REMARK VINA RESULT:      -7.4      0.000      0.000
REMARK  Name = 
REMARK  9 active torsions:
REMARK  status: ('A' for Active; 'I' for Inactive)
REMARK    1  A    between atoms: C_1  and  C_2
REMARK    2  A    between atoms: C_2  and  C_3
REMARK    3  A    between atoms: C_2  and  C_4
REMARK    4  A    between atoms: C_4  and  C_5
REMARK    5  A    between atoms: C_5  and  C_6
REMARK    6  A    between atoms: C_5  and  C_7
REMARK    7  A    between atoms: N_11  and  C_12
REMARK    8  A    between atoms: C_12  and  N_13
REMARK    9  A    between atoms: N_16  and  C_17
REMARK                            x       y       z     vdW  Elec       q    Type
REMARK                         _______ _______ _______ _____ _____    ______ ____
ROOT
ATOM      1  C   UNL     1       2.689   3.287  19.180  0.00  0.00    +0.000 C 
ATOM      2  N   UNL     1       2.237   4.648  18.913  0.00  0.00    +0.000 N 
ATOM      3  C   UNL     1       3.204   5.559  19.294  0.00  0.00    +0.000 C 
ATOM      4  O   UNL     1       2.931   6.682  19.683  0.00  0.00    +0.000 OA
ATOM      5  N   UNL     1       4.401   4.934  19.222  0.00  0.00    +0.000 N 
ATOM      6  C   UNL     1       4.178   3.609  19.481  0.00  0.00    +0.000 C 
ATOM      7  O   UNL     1       5.024   2.795  19.846  0.00  0.00    +0.000 OA
ATOM      8  H   UNL     1       1.278   4.940  19.054  0.00  0.00    +0.000 HD
ENDROOT
BRANCH   1  10
ATOM      9  C   UNL     1       2.633   3.176  16.592  0.00  0.00    +0.000 C 
ATOM     10  C   UNL     1       2.613   2.379  17.903  0.00  0.00    +0.000 C 
ATOM     11  C   UNL     1       3.695   1.287  17.815  0.00  0.00    +0.000 C 
ENDBRANCH   1  10
BRANCH   1  12
ATOM     12  C   UNL     1       1.845   2.742  20.381  0.00  0.00    +0.000 C 
ATOM     13  C   UNL     1       2.584   2.682  21.718  0.00  0.00    +0.000 C 
ATOM     14  C   UNL     1       0.489   3.439  20.587  0.00  0.00    +0.000 C 
ENDBRANCH   1  12
BRANCH   5  15
ATOM     15  C   UNL     1       5.698   5.596  19.248  0.00  0.00    +0.000 C 
BRANCH  15  16
ATOM     16  N   UNL     1       5.799   6.606  18.190  0.00  0.00    +0.000 NA
ATOM     17  C   UNL     1       7.124   6.685  17.558  0.00  0.00    +0.000 C 
ATOM     18  C   UNL     1       7.450   5.595  16.512  0.00  0.00    +0.000 C 
ATOM     19  N   UNL     1       6.361   5.380  15.543  0.00  0.00    +0.000 N 
ATOM     20  C   UNL     1       4.977   5.457  16.040  0.00  0.00    +0.000 C 
ATOM     21  C   UNL     1       4.791   6.540  17.122  0.00  0.00    +0.000 C 
BRANCH  19  22
ATOM     22  C   UNL     1       6.640   4.776  14.315  0.00  0.00    +0.000 A 
ATOM     23  C   UNL     1       7.661   5.236  13.462  0.00  0.00    +0.000 A 
ATOM     24  C   UNL     1       7.827   4.743  12.159  0.00  0.00    +0.000 A 
ATOM     25  C   UNL     1       6.981   3.756  11.674  0.00  0.00    +0.000 A 
ATOM     26  C   UNL     1       6.003   3.235  12.509  0.00  0.00    +0.000 A 
ATOM     27  C   UNL     1       5.849   3.731  13.811  0.00  0.00    +0.000 A 
ENDBRANCH  19  22
ENDBRANCH  15  16
ENDBRANCH   5  15
TORSDOF 5
ENDMDL
MODEL 2
REMARK VINA RESULT:      -7.3      5.991      9.504
REMARK  Name = 
REMARK  9 active torsions:
REMARK  status: ('A' for Active; 'I' for Inactive)
REMARK    1  A    between atoms: C_1  and  C_2
REMARK    2  A    between atoms: C_2  and  C_3
REMARK    3  A    between atoms: C_2  and  C_4
REMARK    4  A    between atoms: C_4  and  C_5
REMARK    5  A    between atoms: C_5  and  C_6
REMARK    6  A    between atoms: C_5  and  C_7
REMARK    7  A    between atoms: N_11  and  C_12
REMARK    8  A    between atoms: C_12  and  N_13
REMARK    9  A    between atoms: N_16  and  C_17
REMARK                            x       y       z     vdW  Elec       q    Type
REMARK                         _______ _______ _______ _____ _____    ______ ____
ROOT
ATOM      1  C   UNL     1       3.046   5.746  18.723  0.00  0.00    +0.000 C 
ATOM      2  N   UNL     1       3.283   6.912  17.878  0.00  0.00    +0.000 N 
ATOM      3  C   UNL     1       2.480   7.964  18.276  0.00  0.00    +0.000 C 
ATOM      4  O   UNL     1       2.074   8.811  17.498  0.00  0.00    +0.000 OA
ATOM      5  N   UNL     1       2.208   7.794  19.590  0.00  0.00    +0.000 N 
ATOM      6  C   UNL     1       2.208   6.446  19.828  0.00  0.00    +0.000 C 
ATOM      7  O   UNL     1       1.675   5.884  20.782  0.00  0.00    +0.000 OA
ATOM      8  H   UNL     1       3.449   6.837  16.883  0.00  0.00    +0.000 HD
ENDROOT
BRANCH   1  10
ATOM      9  C   UNL     1       4.339   3.688  19.622  0.00  0.00    +0.000 C 
ATOM     10  C   UNL     1       4.372   5.200  19.360  0.00  0.00    +0.000 C 
ATOM     11  C   UNL     1       5.654   5.521  18.570  0.00  0.00    +0.000 C 
ENDBRANCH   1  10
BRANCH   1  12
ATOM     12  C   UNL     1       2.290   4.686  17.853  0.00  0.00    +0.000 C 
ATOM     13  C   UNL     1       3.180   3.851  16.932  0.00  0.00    +0.000 C 
ATOM     14  C   UNL     1       1.360   3.747  18.641  0.00  0.00    +0.000 C 
ENDBRANCH   1  12
BRANCH   5  15
ATOM     15  C   UNL     1       1.650   8.809  20.471  0.00  0.00    +0.000 C 
BRANCH  15  16
ATOM     16  N   UNL     1       0.187   8.843  20.382  0.00  0.00    +0.000 NA
ATOM     17  C   UNL     1      -0.499   8.612  21.661  0.00  0.00    +0.000 C 
ATOM     18  C   UNL     1      -0.559   9.812  22.633  0.00  0.00    +0.000 C 
ATOM     19  N   UNL     1      -0.967  11.067  21.977  0.00  0.00    +0.000 N 
ATOM     20  C   UNL     1      -0.476  11.317  20.611  0.00  0.00    +0.000 C 
ATOM     21  C   UNL     1      -0.405  10.035  19.758  0.00  0.00    +0.000 C 
BRANCH  19  22
ATOM     22  C   UNL     1      -1.481  12.112  22.748  0.00  0.00    +0.000 A 
ATOM     23  C   UNL     1      -2.746  12.047  23.362  0.00  0.00    +0.000 A 
ATOM     24  C   UNL     1      -3.333  13.156  23.988  0.00  0.00    +0.000 A 
ATOM     25  C   UNL     1      -2.661  14.369  24.032  0.00  0.00    +0.000 A 
ATOM     26  C   UNL     1      -1.385  14.454  23.492  0.00  0.00    +0.000 A 
ATOM     27  C   UNL     1      -0.805  13.337  22.873  0.00  0.00    +0.000 A 
ENDBRANCH  19  22
ENDBRANCH  15  16
ENDBRANCH   5  15
TORSDOF 5
ENDMDL
MODEL 3
REMARK VINA RESULT:      -7.3      7.018      9.023
REMARK  Name = 
REMARK  9 active torsions:
REMARK  status: ('A' for Active; 'I' for Inactive)
REMARK    1  A    between atoms: C_1  and  C_2
REMARK    2  A    between atoms: C_2  and  C_3
REMARK    3  A    between atoms: C_2  and  C_4
REMARK    4  A    between atoms: C_4  and  C_5
REMARK    5  A    between atoms: C_5  and  C_6
REMARK    6  A    between atoms: C_5  and  C_7
REMARK    7  A    between atoms: N_11  and  C_12
REMARK    8  A    between atoms: C_12  and  N_13
REMARK    9  A    between atoms: N_16  and  C_17
REMARK                            x       y       z     vdW  Elec       q    Type
REMARK                         _______ _______ _______ _____ _____    ______ ____
ROOT
ATOM      1  C   UNL     1      -2.016  13.133  21.205  0.00  0.00    +0.000 C 
ATOM      2  N   UNL     1      -2.290  13.152  19.772  0.00  0.00    +0.000 N 
ATOM      3  C   UNL     1      -1.454  12.271  19.112  0.00  0.00    +0.000 C 
ATOM      4  O   UNL     1      -1.086  12.451  17.963  0.00  0.00    +0.000 OA
ATOM      5  N   UNL     1      -1.107  11.304  19.992  0.00  0.00    +0.000 N 
ATOM      6  C   UNL     1      -1.107  11.874  21.236  0.00  0.00    +0.000 C 
ATOM      7  O   UNL     1      -0.525  11.440  22.227  0.00  0.00    +0.000 OA
ATOM      8  H   UNL     1      -2.516  14.002  19.272  0.00  0.00    +0.000 HD
ENDROOT
BRANCH   1  10
ATOM      9  C   UNL     1      -3.385  13.679  23.337  0.00  0.00    +0.000 C 
ATOM     10  C   UNL     1      -3.308  12.849  22.049  0.00  0.00    +0.000 C 
ATOM     11  C   UNL     1      -4.635  13.022  21.288  0.00  0.00    +0.000 C 
ENDBRANCH   1  10
BRANCH   1  12
ATOM     12  C   UNL     1      -1.325  14.492  21.565  0.00  0.00    +0.000 C 
ATOM     13  C   UNL     1       0.173  14.400  21.851  0.00  0.00    +0.000 C 
ATOM     14  C   UNL     1      -1.577  15.631  20.562  0.00  0.00    +0.000 C 
ENDBRANCH   1  12
BRANCH   5  15
ATOM     15  C   UNL     1      -0.487  10.034  19.642  0.00  0.00    +0.000 C 
BRANCH  15  16
ATOM     16  N   UNL     1       0.972  10.105  19.764  0.00  0.00    +0.000 NA
ATOM     17  C   UNL     1       1.552   9.093  20.659  0.00  0.00    +0.000 C 
ATOM     18  C   UNL     1       1.698   7.668  20.079  0.00  0.00    +0.000 C 
ATOM     19  N   UNL     1       2.289   7.652  18.729  0.00  0.00    +0.000 N 
ATOM     20  C   UNL     1       1.910   8.732  17.802  0.00  0.00    +0.000 C 
ATOM     21  C   UNL     1       1.736  10.091  18.509  0.00  0.00    +0.000 C 
BRANCH  19  22
ATOM     22  C   UNL     1       2.879   6.480  18.249  0.00  0.00    +0.000 A 
ATOM     23  C   UNL     1       4.163   6.462  17.675  0.00  0.00    +0.000 A 
ATOM     24  C   UNL     1       4.684   5.325  17.039  0.00  0.00    +0.000 A 
ATOM     25  C   UNL     1       3.934   4.159  16.972  0.00  0.00    +0.000 A 
ATOM     26  C   UNL     1       2.688   4.121  17.582  0.00  0.00    +0.000 A 
ATOM     27  C   UNL     1       2.179   5.262  18.220  0.00  0.00    +0.000 A 
ENDBRANCH  19  22
ENDBRANCH  15  16
ENDBRANCH   5  15
TORSDOF 5
ENDMDL
MODEL 4
REMARK VINA RESULT:      -7.1      7.392      9.424
REMARK  Name = 
REMARK  9 active torsions:
REMARK  status: ('A' for Active; 'I' for Inactive)
REMARK    1  A    between atoms: C_1  and  C_2
REMARK    2  A    between atoms: C_2  and  C_3
REMARK    3  A    between atoms: C_2  and  C_4
REMARK    4  A    between atoms: C_4  and  C_5
REMARK    5  A    between atoms: C_5  and  C_6
REMARK    6  A    between atoms: C_5  and  C_7
REMARK    7  A    between atoms: N_11  and  C_12
REMARK    8  A    between atoms: C_12  and  N_13
REMARK    9  A    between atoms: N_16  and  C_17
REMARK                            x       y       z     vdW  Elec       q    Type
REMARK                         _______ _______ _______ _____ _____    ______ ____
ROOT
ATOM      1  C   UNL     1      -1.213  14.227  21.022  0.00  0.00    +0.000 C 
ATOM      2  N   UNL     1      -0.812  13.631  22.292  0.00  0.00    +0.000 N 
ATOM      3  C   UNL     1      -0.317  12.357  22.090  0.00  0.00    +0.000 C 
ATOM      4  O   UNL     1      -0.414  11.475  22.927  0.00  0.00    +0.000 OA
ATOM      5  N   UNL     1       0.173  12.306  20.831  0.00  0.00    +0.000 N 
ATOM      6  C   UNL     1      -0.567  13.177  20.077  0.00  0.00    +0.000 C 
ATOM      7  O   UNL     1      -0.667  13.163  18.853  0.00  0.00    +0.000 OA
ATOM      8  H   UNL     1      -1.335  13.770  23.147  0.00  0.00    +0.000 HD
ENDROOT
BRANCH   1  10
ATOM      9  C   UNL     1      -1.377  16.568  19.924  0.00  0.00    +0.000 C 
ATOM     10  C   UNL     1      -0.529  15.618  20.780  0.00  0.00    +0.000 C 
ATOM     11  C   UNL     1      -0.110  16.368  22.058  0.00  0.00    +0.000 C 
ENDBRANCH   1  10
BRANCH   1  12
ATOM     12  C   UNL     1      -2.778  14.292  21.012  0.00  0.00    +0.000 C 
ATOM     13  C   UNL     1      -3.475  13.051  20.455  0.00  0.00    +0.000 C 
ATOM     14  C   UNL     1      -3.418  14.666  22.360  0.00  0.00    +0.000 C 
ENDBRANCH   1  12
BRANCH   5  15
ATOM     15  C   UNL     1       1.042  11.261  20.309  0.00  0.00    +0.000 C 
BRANCH  15  16
ATOM     16  N   UNL     1       0.264  10.105  19.850  0.00  0.00    +0.000 NA
ATOM     17  C   UNL     1       0.381   9.833  18.411  0.00  0.00    +0.000 C 
ATOM     18  C   UNL     1       1.669   9.113  17.952  0.00  0.00    +0.000 C 
ATOM     19  N   UNL     1       2.010   7.949  18.789  0.00  0.00    +0.000 N 
ATOM     20  C   UNL     1       1.762   8.051  20.237  0.00  0.00    +0.000 C 
ATOM     21  C   UNL     1       0.481   8.842  20.570  0.00  0.00    +0.000 C 
BRANCH  19  22
ATOM     22  C   UNL     1       2.855   6.959  18.282  0.00  0.00    +0.000 A 
ATOM     23  C   UNL     1       3.977   7.258  17.487  0.00  0.00    +0.000 A 
ATOM     24  C   UNL     1       4.722   6.263  16.838  0.00  0.00    +0.000 A 
ATOM     25  C   UNL     1       4.373   4.927  16.979  0.00  0.00    +0.000 A 
ATOM     26  C   UNL     1       3.310   4.590  17.805  0.00  0.00    +0.000 A 
ATOM     27  C   UNL     1       2.576   5.593  18.454  0.00  0.00    +0.000 A 
ENDBRANCH  19  22
ENDBRANCH  15  16
ENDBRANCH   5  15
TORSDOF 5
ENDMDL
MODEL 5
REMARK VINA RESULT:      -7.1      7.055      9.117
REMARK  Name = 
REMARK  9 active torsions:
REMARK  status: ('A' for Active; 'I' for Inactive)
REMARK    1  A    between atoms: C_1  and  C_2
REMARK    2  A    between atoms: C_2  and  C_3
REMARK    3  A    between atoms: C_2  and  C_4
REMARK    4  A    between atoms: C_4  and  C_5
REMARK    5  A    between atoms: C_5  and  C_6
REMARK    6  A    between atoms: C_5  and  C_7
REMARK    7  A    between atoms: N_11  and  C_12
REMARK    8  A    between atoms: C_12  and  N_13
REMARK    9  A    between atoms: N_16  and  C_17
REMARK                            x       y       z     vdW  Elec       q    Type
REMARK                         _______ _______ _______ _____ _____    ______ ____
ROOT
ATOM      1  C   UNL     1      -2.031  13.398  21.043  0.00  0.00    +0.000 C 
ATOM      2  N   UNL     1      -2.582  13.024  19.745  0.00  0.00    +0.000 N 
ATOM      3  C   UNL     1      -1.816  12.030  19.167  0.00  0.00    +0.000 C 
ATOM      4  O   UNL     1      -1.699  11.910  17.959  0.00  0.00    +0.000 OA
ATOM      5  N   UNL     1      -1.217  11.344  20.167  0.00  0.00    +0.000 N 
ATOM      6  C   UNL     1      -1.024  12.225  21.197  0.00  0.00    +0.000 C 
ATOM      7  O   UNL     1      -0.222  12.091  22.118  0.00  0.00    +0.000 OA
ATOM      8  H   UNL     1      -2.977  13.703  19.106  0.00  0.00    +0.000 HD
ENDROOT
BRANCH   1  10
ATOM      9  C   UNL     1      -4.540  13.216  21.664  0.00  0.00    +0.000 C 
ATOM     10  C   UNL     1      -3.100  13.303  22.187  0.00  0.00    +0.000 C 
ATOM     11  C   UNL     1      -2.883  12.153  23.188  0.00  0.00    +0.000 C 
ENDBRANCH   1  10
BRANCH   1  12
ATOM     12  C   UNL     1      -1.407  14.826  20.891  0.00  0.00    +0.000 C 
ATOM     13  C   UNL     1      -1.278  15.619  22.191  0.00  0.00    +0.000 C 
ATOM     14  C   UNL     1      -0.065  14.869  20.140  0.00  0.00    +0.000 C 
ENDBRANCH   1  12
BRANCH   5  15
ATOM     15  C   UNL     1      -0.567  10.050  20.027  0.00  0.00    +0.000 C 
BRANCH  15  16
ATOM     16  N   UNL     1       0.894  10.186  20.042  0.00  0.00    +0.000 NA
ATOM     17  C   UNL     1       1.589   9.135  20.799  0.00  0.00    +0.000 C 
ATOM     18  C   UNL     1       1.750   7.772  20.089  0.00  0.00    +0.000 C 
ATOM     19  N   UNL     1       2.230   7.896  18.702  0.00  0.00    +0.000 N 
ATOM     20  C   UNL     1       1.729   9.028  17.903  0.00  0.00    +0.000 C 
ATOM     21  C   UNL     1       1.553  10.314  18.735  0.00  0.00    +0.000 C 
BRANCH  19  22
ATOM     22  C   UNL     1       2.831   6.800  18.079  0.00  0.00    +0.000 A 
ATOM     23  C   UNL     1       2.282   5.506  18.133  0.00  0.00    +0.000 A 
ATOM     24  C   UNL     1       2.969   4.379  17.658  0.00  0.00    +0.000 A 
ATOM     25  C   UNL     1       4.231   4.518  17.097  0.00  0.00    +0.000 A 
ATOM     26  C   UNL     1       4.778   5.787  16.970  0.00  0.00    +0.000 A 
ATOM     27  C   UNL     1       4.079   6.907  17.443  0.00  0.00    +0.000 A 
ENDBRANCH  19  22
ENDBRANCH  15  16
ENDBRANCH   5  15
TORSDOF 5
ENDMDL
MODEL 6
REMARK VINA RESULT:      -7.0      2.536      6.617
REMARK  Name = 
REMARK  9 active torsions:
REMARK  status: ('A' for Active; 'I' for Inactive)
REMARK    1  A    between atoms: C_1  and  C_2
REMARK    2  A    between atoms: C_2  and  C_3
REMARK    3  A    between atoms: C_2  and  C_4
REMARK    4  A    between atoms: C_4  and  C_5
REMARK    5  A    between atoms: C_5  and  C_6
REMARK    6  A    between atoms: C_5  and  C_7
REMARK    7  A    between atoms: N_11  and  C_12
REMARK    8  A    between atoms: C_12  and  N_13
REMARK    9  A    between atoms: N_16  and  C_17
REMARK                            x       y       z     vdW  Elec       q    Type
REMARK                         _______ _______ _______ _____ _____    ______ ____
ROOT
ATOM      1  C   UNL     1       5.704   5.227  17.393  0.00  0.00    +0.000 C 
ATOM      2  N   UNL     1       4.788   4.361  16.657  0.00  0.00    +0.000 N 
ATOM      3  C   UNL     1       4.331   3.343  17.472  0.00  0.00    +0.000 C 
ATOM      4  O   UNL     1       4.025   2.244  17.040  0.00  0.00    +0.000 OA
ATOM      5  N   UNL     1       4.384   3.788  18.748  0.00  0.00    +0.000 N 
ATOM      6  C   UNL     1       5.421   4.679  18.818  0.00  0.00    +0.000 C 
ATOM      7  O   UNL     1       6.001   5.027  19.844  0.00  0.00    +0.000 OA
ATOM      8  H   UNL     1       4.934   4.116  15.686  0.00  0.00    +0.000 HD
ENDROOT
BRANCH   1  10
ATOM      9  C   UNL     1       6.451   7.707  17.438  0.00  0.00    +0.000 C 
ATOM     10  C   UNL     1       5.270   6.733  17.331  0.00  0.00    +0.000 C 
ATOM     11  C   UNL     1       4.439   7.121  16.094  0.00  0.00    +0.000 C 
ENDBRANCH   1  10
BRANCH   1  12
ATOM     12  C   UNL     1       7.143   4.969  16.829  0.00  0.00    +0.000 C 
ATOM     13  C   UNL     1       8.107   4.290  17.801  0.00  0.00    +0.000 C 
ATOM     14  C   UNL     1       7.186   4.232  15.479  0.00  0.00    +0.000 C 
ENDBRANCH   1  12
BRANCH   5  15
ATOM     15  C   UNL     1       3.729   3.159  19.885  0.00  0.00    +0.000 C 
BRANCH  15  16
ATOM     16  N   UNL     1       2.307   3.515  19.941  0.00  0.00    +0.000 NA
ATOM     17  C   UNL     1       1.942   4.359  21.087  0.00  0.00    +0.000 C 
ATOM     18  C   UNL     1       2.284   5.862  20.968  0.00  0.00    +0.000 C 
ATOM     19  N   UNL     1       1.889   6.444  19.673  0.00  0.00    +0.000 N 
ATOM     20  C   UNL     1       2.047   5.609  18.470  0.00  0.00    +0.000 C 
ATOM     21  C   UNL     1       1.735   4.122  18.730  0.00  0.00    +0.000 C 
BRANCH  19  22
ATOM     22  C   UNL     1       1.724   7.826  19.560  0.00  0.00    +0.000 A 
ATOM     23  C   UNL     1       1.232   8.617  20.615  0.00  0.00    +0.000 A 
ATOM     24  C   UNL     1       0.904   9.971  20.447  0.00  0.00    +0.000 A 
ATOM     25  C   UNL     1       1.077  10.582  19.213  0.00  0.00    +0.000 A 
ATOM     26  C   UNL     1       1.619   9.849  18.167  0.00  0.00    +0.000 A 
ATOM     27  C   UNL     1       1.948   8.498  18.347  0.00  0.00    +0.000 A 
ENDBRANCH  19  22
ENDBRANCH  15  16
ENDBRANCH   5  15
TORSDOF 5
ENDMDL
MODEL 7
REMARK VINA RESULT:      -6.9      7.197      9.202
REMARK  Name = 
REMARK  9 active torsions:
REMARK  status: ('A' for Active; 'I' for Inactive)
REMARK    1  A    between atoms: C_1  and  C_2
REMARK    2  A    between atoms: C_2  and  C_3
REMARK    3  A    between atoms: C_2  and  C_4
REMARK    4  A    between atoms: C_4  and  C_5
REMARK    5  A    between atoms: C_5  and  C_6
REMARK    6  A    between atoms: C_5  and  C_7
REMARK    7  A    between atoms: N_11  and  C_12
REMARK    8  A    between atoms: C_12  and  N_13
REMARK    9  A    between atoms: N_16  and  C_17
REMARK                            x       y       z     vdW  Elec       q    Type
REMARK                         _______ _______ _______ _____ _____    ______ ____
ROOT
ATOM      1  C   UNL     1      -1.877  13.296  22.033  0.00  0.00    +0.000 C 
ATOM      2  N   UNL     1      -1.285  12.553  23.141  0.00  0.00    +0.000 N 
ATOM      3  C   UNL     1      -0.622  11.436  22.669  0.00  0.00    +0.000 C 
ATOM      4  O   UNL     1      -0.513  10.412  23.323  0.00  0.00    +0.000 OA
ATOM      5  N   UNL     1      -0.237  11.698  21.399  0.00  0.00    +0.000 N 
ATOM      6  C   UNL     1      -1.161  12.558  20.870  0.00  0.00    +0.000 C 
ATOM      7  O   UNL     1      -1.361  12.752  19.673  0.00  0.00    +0.000 OA
ATOM      8  H   UNL     1      -1.749  12.444  24.033  0.00  0.00    +0.000 HD
ENDROOT
BRANCH   1  10
ATOM      9  C   UNL     1      -1.314  15.400  23.437  0.00  0.00    +0.000 C 
ATOM     10  C   UNL     1      -1.436  14.801  22.030  0.00  0.00    +0.000 C 
ATOM     11  C   UNL     1      -0.129  15.094  21.270  0.00  0.00    +0.000 C 
ENDBRANCH   1  10
BRANCH   1  12
ATOM     12  C   UNL     1      -3.429  13.103  22.121  0.00  0.00    +0.000 C 
ATOM     13  C   UNL     1      -3.974  12.857  23.527  0.00  0.00    +0.000 C 
ATOM     14  C   UNL     1      -4.257  14.212  21.447  0.00  0.00    +0.000 C 
ENDBRANCH   1  12
BRANCH   5  15
ATOM     15  C   UNL     1       0.733  10.924  20.638  0.00  0.00    +0.000 C 
BRANCH  15  16
ATOM     16  N   UNL     1       0.099   9.774  19.985  0.00  0.00    +0.000 NA
ATOM     17  C   UNL     1       0.347   9.691  18.538  0.00  0.00    +0.000 C 
ATOM     18  C   UNL     1       1.726   9.139  18.111  0.00  0.00    +0.000 C 
ATOM     19  N   UNL     1       2.106   7.912  18.833  0.00  0.00    +0.000 N 
ATOM     20  C   UNL     1       1.742   7.815  20.257  0.00  0.00    +0.000 C 
ATOM     21  C   UNL     1       0.374   8.454  20.569  0.00  0.00    +0.000 C 
BRANCH  19  22
ATOM     22  C   UNL     1       3.071   7.062  18.289  0.00  0.00    +0.000 A 
ATOM     23  C   UNL     1       3.999   7.494  17.323  0.00  0.00    +0.000 A 
ATOM     24  C   UNL     1       4.852   6.605  16.652  0.00  0.00    +0.000 A 
ATOM     25  C   UNL     1       4.812   5.248  16.943  0.00  0.00    +0.000 A 
ATOM     26  C   UNL     1       3.954   4.795  17.936  0.00  0.00    +0.000 A 
ATOM     27  C   UNL     1       3.110   5.694  18.603  0.00  0.00    +0.000 A 
ENDBRANCH  19  22
ENDBRANCH  15  16
ENDBRANCH   5  15
TORSDOF 5
ENDMDL
MODEL 8
REMARK VINA RESULT:      -6.9      8.590     10.660
REMARK  Name = 
REMARK  9 active torsions:
REMARK  status: ('A' for Active; 'I' for Inactive)
REMARK    1  A    between atoms: C_1  and  C_2
REMARK    2  A    between atoms: C_2  and  C_3
REMARK    3  A    between atoms: C_2  and  C_4
REMARK    4  A    between atoms: C_4  and  C_5
REMARK    5  A    between atoms: C_5  and  C_6
REMARK    6  A    between atoms: C_5  and  C_7
REMARK    7  A    between atoms: N_11  and  C_12
REMARK    8  A    between atoms: C_12  and  N_13
REMARK    9  A    between atoms: N_16  and  C_17
REMARK                            x       y       z     vdW  Elec       q    Type
REMARK                         _______ _______ _______ _____ _____    ______ ____
ROOT
ATOM      1  C   UNL     1      -2.760  13.869  23.111  0.00  0.00    +0.000 C 
ATOM      2  N   UNL     1      -2.946  14.754  21.966  0.00  0.00    +0.000 N 
ATOM      3  C   UNL     1      -1.792  14.806  21.208  0.00  0.00    +0.000 C 
ATOM      4  O   UNL     1      -1.473  15.793  20.565  0.00  0.00    +0.000 OA
ATOM      5  N   UNL     1      -1.124  13.646  21.402  0.00  0.00    +0.000 N 
ATOM      6  C   UNL     1      -1.419  13.222  22.669  0.00  0.00    +0.000 C 
ATOM      7  O   UNL     1      -0.760  12.424  23.332  0.00  0.00    +0.000 OA
ATOM      8  H   UNL     1      -3.474  15.616  22.024  0.00  0.00    +0.000 HD
ENDROOT
BRANCH   1  10
ATOM      9  C   UNL     1      -4.324  12.452  24.614  0.00  0.00    +0.000 C 
ATOM     10  C   UNL     1      -3.863  12.756  23.183  0.00  0.00    +0.000 C 
ATOM     11  C   UNL     1      -5.113  13.023  22.324  0.00  0.00    +0.000 C 
ENDBRANCH   1  10
BRANCH   1  12
ATOM     12  C   UNL     1      -2.701  14.770  24.391  0.00  0.00    +0.000 C 
ATOM     13  C   UNL     1      -1.312  15.303  24.745  0.00  0.00    +0.000 C 
ATOM     14  C   UNL     1      -3.706  15.935  24.409  0.00  0.00    +0.000 C 
ENDBRANCH   1  12
BRANCH   5  15
ATOM     15  C   UNL     1      -0.025  13.161  20.581  0.00  0.00    +0.000 C 
BRANCH  15  16
ATOM     16  N   UNL     1      -0.515  12.336  19.472  0.00  0.00    +0.000 NA
ATOM     17  C   UNL     1       0.465  12.131  18.395  0.00  0.00    +0.000 C 
ATOM     18  C   UNL     1       1.562  11.075  18.660  0.00  0.00    +0.000 C 
ATOM     19  N   UNL     1       1.030   9.813  19.205  0.00  0.00    +0.000 N 
ATOM     20  C   UNL     1      -0.083   9.897  20.165  0.00  0.00    +0.000 C 
ATOM     21  C   UNL     1      -1.078  11.027  19.828  0.00  0.00    +0.000 C 
BRANCH  19  22
ATOM     22  C   UNL     1       1.783   8.642  19.094  0.00  0.00    +0.000 A 
ATOM     23  C   UNL     1       2.520   8.324  17.938  0.00  0.00    +0.000 A 
ATOM     24  C   UNL     1       3.134   7.076  17.760  0.00  0.00    +0.000 A 
ATOM     25  C   UNL     1       3.040   6.106  18.749  0.00  0.00    +0.000 A 
ATOM     26  C   UNL     1       2.375   6.407  19.929  0.00  0.00    +0.000 A 
ATOM     27  C   UNL     1       1.770   7.660  20.099  0.00  0.00    +0.000 A 
ENDBRANCH  19  22
ENDBRANCH  15  16
ENDBRANCH   5  15
TORSDOF 5
ENDMDL
MODEL 9
REMARK VINA RESULT:      -6.9      5.829      9.100
REMARK  Name = 
REMARK  9 active torsions:
REMARK  status: ('A' for Active; 'I' for Inactive)
REMARK    1  A    between atoms: C_1  and  C_2
REMARK    2  A    between atoms: C_2  and  C_3
REMARK    3  A    between atoms: C_2  and  C_4
REMARK    4  A    between atoms: C_4  and  C_5
REMARK    5  A    between atoms: C_5  and  C_6
REMARK    6  A    between atoms: C_5  and  C_7
REMARK    7  A    between atoms: N_11  and  C_12
REMARK    8  A    between atoms: C_12  and  N_13
REMARK    9  A    between atoms: N_16  and  C_17
REMARK                            x       y       z     vdW  Elec       q    Type
REMARK                         _______ _______ _______ _____ _____    ______ ____
ROOT
ATOM      1  C   UNL     1       2.812   5.206  18.956  0.00  0.00    +0.000 C 
ATOM      2  N   UNL     1       3.195   6.289  18.056  0.00  0.00    +0.000 N 
ATOM      3  C   UNL     1       2.533   7.453  18.399  0.00  0.00    +0.000 C 
ATOM      4  O   UNL     1       2.238   8.306  17.578  0.00  0.00    +0.000 OA
ATOM      5  N   UNL     1       2.245   7.384  19.718  0.00  0.00    +0.000 N 
ATOM      6  C   UNL     1       2.073   6.061  20.022  0.00  0.00    +0.000 C 
ATOM      7  O   UNL     1       1.475   5.619  21.000  0.00  0.00    +0.000 OA
ATOM      8  H   UNL     1       3.348   6.145  17.066  0.00  0.00    +0.000 HD
ENDROOT
BRANCH   1  10
ATOM      9  C   UNL     1       3.913   3.006  19.771  0.00  0.00    +0.000 C 
ATOM     10  C   UNL     1       4.059   4.526  19.624  0.00  0.00    +0.000 C 
ATOM     11  C   UNL     1       5.405   4.814  18.935  0.00  0.00    +0.000 C 
ENDBRANCH   1  10
BRANCH   1  12
ATOM     12  C   UNL     1       1.926   4.210  18.135  0.00  0.00    +0.000 C 
ATOM     13  C   UNL     1       2.671   3.405  17.071  0.00  0.00    +0.000 C 
ATOM     14  C   UNL     1       1.073   3.251  18.986  0.00  0.00    +0.000 C 
ENDBRANCH   1  12
BRANCH   5  15
ATOM     15  C   UNL     1       1.823   8.505  20.546  0.00  0.00    +0.000 C 
BRANCH  15  16
ATOM     16  N   UNL     1       0.400   8.802  20.351  0.00  0.00    +0.000 NA
ATOM     17  C   UNL     1      -0.377   8.870  21.597  0.00  0.00    +0.000 C 
ATOM     18  C   UNL     1      -0.245  10.173  22.417  0.00  0.00    +0.000 C 
ATOM     19  N   UNL     1      -0.368  11.389  21.593  0.00  0.00    +0.000 N 
ATOM     20  C   UNL     1       0.225  11.366  20.245  0.00  0.00    +0.000 C 
ATOM     21  C   UNL     1       0.083   9.995  19.553  0.00  0.00    +0.000 C 
BRANCH  19  22
ATOM     22  C   UNL     1      -0.703  12.601  22.199  0.00  0.00    +0.000 A 
ATOM     23  C   UNL     1       0.026  13.784  21.976  0.00  0.00    +0.000 A 
ATOM     24  C   UNL     1      -0.202  14.955  22.714  0.00  0.00    +0.000 A 
ATOM     25  C   UNL     1      -1.186  14.983  23.692  0.00  0.00    +0.000 A 
ATOM     26  C   UNL     1      -1.967  13.854  23.896  0.00  0.00    +0.000 A 
ATOM     27  C   UNL     1      -1.734  12.690  23.149  0.00  0.00    +0.000 A 
ENDBRANCH  19  22
ENDBRANCH  15  16
ENDBRANCH   5  15
TORSDOF 5
ENDMDL
