MODEL 1
REMARK VINA RESULT:      -7.6      0.000      0.000
REMARK  Name = 
REMARK  7 active torsions:
REMARK  status: ('A' for Active; 'I' for Inactive)
REMARK    1  A    between atoms: C_1  and  C_2
REMARK    2  A    between atoms: C_4  and  C_5
REMARK    3  A    between atoms: N_9  and  C_10
REMARK    4  A    between atoms: C_10  and  C_11
REMARK    5  A    between atoms: N_13  and  C_14
REMARK    6  A    between atoms: C_14  and  C_15
REMARK    7  A    between atoms: C_14  and  C_16
REMARK                            x       y       z     vdW  Elec       q    Type
REMARK                         _______ _______ _______ _____ _____    ______ ____
ROOT
ATOM      1  C   UNL     1       1.222   8.438  20.894  0.00  0.00    +0.000 C 
ATOM      2  O   UNL     1       1.493   9.278  21.748  0.00  0.00    +0.000 OA
ATOM      3  N   UNL     1       0.861   8.769  19.602  0.00  0.00    +0.000 N 
ATOM      4  H   UNL     1       0.763   8.035  18.915  0.00  0.00    +0.000 HD
ENDROOT
BRANCH   3   5
ATOM      5  C   UNL     1       0.771  10.152  19.169  0.00  0.00    +0.000 C 
ATOM      6  C   UNL     1       1.839  10.467  18.121  0.00  0.00    +0.000 C 
BRANCH   5   7
ATOM      7  C   UNL     1      -0.622  10.481  18.657  0.00  0.00    +0.000 A 
ATOM      8  C   UNL     1      -1.392  11.454  19.318  0.00  0.00    +0.000 A 
ATOM      9  C   UNL     1      -2.659  11.814  18.847  0.00  0.00    +0.000 A 
ATOM     10  C   UNL     1      -3.178  11.196  17.713  0.00  0.00    +0.000 A 
ATOM     11 CL   UNL     1      -4.730  11.657  17.130  0.00  0.00    +0.000 Cl
ATOM     12  C   UNL     1      -2.433  10.216  17.061  0.00  0.00    +0.000 A 
ATOM     13  F   UNL     1      -2.914   9.603  15.970  0.00  0.00    +0.000 F 
ATOM     14  C   UNL     1      -1.167   9.854  17.524  0.00  0.00    +0.000 A 
ENDBRANCH   5   7
ENDBRANCH   3   5
BRANCH   1  15
ATOM     15  C   UNL     1       1.331   6.940  21.156  0.00  0.00    +0.000 C 
BRANCH  15  24
ATOM     16  C   UNL     1       5.717   5.386  15.727  0.00  0.00    +0.000 C 
ATOM     17  C   UNL     1       4.635   5.226  16.768  0.00  0.00    +0.000 A 
ATOM     18  C   UNL     1       3.939   3.908  16.823  0.00  0.00    +0.000 A 
ATOM     19  C   UNL     1       3.012   3.761  17.785  0.00  0.00    +0.000 A 
ATOM     20  C   UNL     1       2.204   2.510  17.946  0.00  0.00    +0.000 C 
ATOM     21  N   UNL     1       2.785   4.822  18.621  0.00  0.00    +0.000 N 
ATOM     22  C   UNL     1       1.917   4.968  19.681  0.00  0.00    +0.000 A 
ATOM     23  O   UNL     1       1.151   4.141  20.152  0.00  0.00    +0.000 OA
ATOM     24  N   UNL     1       2.069   6.297  20.098  0.00  0.00    +0.000 N 
ATOM     25  N   UNL     1       3.025   6.940  19.334  0.00  0.00    +0.000 NA
ATOM     26  C   UNL     1       3.410   6.022  18.496  0.00  0.00    +0.000 A 
ATOM     27  N   UNL     1       4.375   6.229  17.550  0.00  0.00    +0.000 NA
ENDBRANCH  15  24
ENDBRANCH   1  15
TORSDOF 4
ENDMDL
MODEL 2
REMARK VINA RESULT:      -7.5      0.977      1.360
REMARK  Name = 
REMARK  7 active torsions:
REMARK  status: ('A' for Active; 'I' for Inactive)
REMARK    1  A    between atoms: C_1  and  C_2
REMARK    2  A    between atoms: C_4  and  C_5
REMARK    3  A    between atoms: N_9  and  C_10
REMARK    4  A    between atoms: C_10  and  C_11
REMARK    5  A    between atoms: N_13  and  C_14
REMARK    6  A    between atoms: C_14  and  C_15
REMARK    7  A    between atoms: C_14  and  C_16
REMARK                            x       y       z     vdW  Elec       q    Type
REMARK                         _______ _______ _______ _____ _____    ______ ____
ROOT
ATOM      1  C   UNL     1       1.199   8.504  20.943  0.00  0.00    +0.000 C 
ATOM      2  O   UNL     1       1.478   9.366  21.773  0.00  0.00    +0.000 OA
ATOM      3  N   UNL     1       0.879   8.800  19.632  0.00  0.00    +0.000 N 
ATOM      4  H   UNL     1       0.772   8.044  18.969  0.00  0.00    +0.000 HD
ENDROOT
BRANCH   3   5
ATOM      5  C   UNL     1       0.845  10.169  19.147  0.00  0.00    +0.000 C 
ATOM      6  C   UNL     1       1.868  10.378  18.030  0.00  0.00    +0.000 C 
BRANCH   5   7
ATOM      7  C   UNL     1      -0.553  10.561  18.700  0.00  0.00    +0.000 A 
ATOM      8  C   UNL     1      -1.117   9.947  17.567  0.00  0.00    +0.000 A 
ATOM      9  C   UNL     1      -2.419  10.251  17.154  0.00  0.00    +0.000 A 
ATOM     10  C   UNL     1      -3.171  11.183  17.864  0.00  0.00    +0.000 A 
ATOM     11 CL   UNL     1      -4.777  11.538  17.359  0.00  0.00    +0.000 Cl
ATOM     12  C   UNL     1      -2.615  11.812  18.976  0.00  0.00    +0.000 A 
ATOM     13  F   UNL     1      -3.319  12.717  19.672  0.00  0.00    +0.000 F 
ATOM     14  C   UNL     1      -1.319  11.512  19.395  0.00  0.00    +0.000 A 
ENDBRANCH   5   7
ENDBRANCH   3   5
BRANCH   1  15
ATOM     15  C   UNL     1       1.252   7.014  21.260  0.00  0.00    +0.000 C 
BRANCH  15  24
ATOM     16  C   UNL     1       5.515   5.086  15.855  0.00  0.00    +0.000 C 
ATOM     17  C   UNL     1       4.440   5.007  16.911  0.00  0.00    +0.000 A 
ATOM     18  C   UNL     1       3.696   3.720  17.025  0.00  0.00    +0.000 A 
ATOM     19  C   UNL     1       2.776   3.646  18.001  0.00  0.00    +0.000 A 
ATOM     20  C   UNL     1       1.924   2.432  18.220  0.00  0.00    +0.000 C 
ATOM     21  N   UNL     1       2.597   4.746  18.797  0.00  0.00    +0.000 N 
ATOM     22  C   UNL     1       1.748   4.966  19.859  0.00  0.00    +0.000 A 
ATOM     23  O   UNL     1       0.957   4.187  20.370  0.00  0.00    +0.000 OA
ATOM     24  N   UNL     1       1.954   6.303  20.222  0.00  0.00    +0.000 N 
ATOM     25  N   UNL     1       2.924   6.880  19.423  0.00  0.00    +0.000 NA
ATOM     26  C   UNL     1       3.265   5.916  18.619  0.00  0.00    +0.000 A 
ATOM     27  N   UNL     1       4.226   6.049  17.656  0.00  0.00    +0.000 NA
ENDBRANCH  15  24
ENDBRANCH   1  15
TORSDOF 4
ENDMDL
MODEL 3
REMARK VINA RESULT:      -7.3      4.137      7.753
REMARK  Name = 
REMARK  7 active torsions:
REMARK  status: ('A' for Active; 'I' for Inactive)
REMARK    1  A    between atoms: C_1  and  C_2
REMARK    2  A    between atoms: C_4  and  C_5
REMARK    3  A    between atoms: N_9  and  C_10
REMARK    4  A    between atoms: C_10  and  C_11
REMARK    5  A    between atoms: N_13  and  C_14
REMARK    6  A    between atoms: C_14  and  C_15
REMARK    7  A    between atoms: C_14  and  C_16
REMARK                            x       y       z     vdW  Elec       q    Type
REMARK                         _______ _______ _______ _____ _____    ______ ____
ROOT
ATOM      1  C   UNL     1       0.168  11.186  21.288  0.00  0.00    +0.000 C 
ATOM      2  O   UNL     1       0.224  11.142  22.515  0.00  0.00    +0.000 OA
ATOM      3  N   UNL     1       0.462  10.103  20.483  0.00  0.00    +0.000 N 
ATOM      4  H   UNL     1       0.286  10.166  19.490  0.00  0.00    +0.000 HD
ENDROOT
BRANCH   3   5
ATOM      5  C   UNL     1       0.869   8.827  21.045  0.00  0.00    +0.000 C 
ATOM      6  C   UNL     1      -0.342   8.038  21.545  0.00  0.00    +0.000 C 
BRANCH   5   7
ATOM      7  C   UNL     1       1.683   8.019  20.047  0.00  0.00    +0.000 A 
ATOM      8  C   UNL     1       1.969   8.564  18.783  0.00  0.00    +0.000 A 
ATOM      9  C   UNL     1       2.754   7.869  17.857  0.00  0.00    +0.000 A 
ATOM     10  C   UNL     1       3.255   6.610  18.181  0.00  0.00    +0.000 A 
ATOM     11 CL   UNL     1       4.234   5.769  17.043  0.00  0.00    +0.000 Cl
ATOM     12  C   UNL     1       2.962   6.052  19.423  0.00  0.00    +0.000 A 
ATOM     13  F   UNL     1       3.430   4.840  19.755  0.00  0.00    +0.000 F 
ATOM     14  C   UNL     1       2.183   6.742  20.352  0.00  0.00    +0.000 A 
ENDBRANCH   5   7
ENDBRANCH   3   5
BRANCH   1  15
ATOM     15  C   UNL     1      -0.308  12.423  20.535  0.00  0.00    +0.000 C 
BRANCH  15  24
ATOM     16  C   UNL     1      -3.614  10.169  14.610  0.00  0.00    +0.000 C 
ATOM     17  C   UNL     1      -3.408  10.781  15.975  0.00  0.00    +0.000 A 
ATOM     18  C   UNL     1      -4.622  11.280  16.683  0.00  0.00    +0.000 A 
ATOM     19  C   UNL     1      -4.433  11.777  17.916  0.00  0.00    +0.000 A 
ATOM     20  C   UNL     1      -5.548  12.348  18.738  0.00  0.00    +0.000 C 
ATOM     21  N   UNL     1      -3.156  11.788  18.412  0.00  0.00    +0.000 N 
ATOM     22  C   UNL     1      -2.659  12.224  19.621  0.00  0.00    +0.000 A 
ATOM     23  O   UNL     1      -3.274  12.685  20.571  0.00  0.00    +0.000 OA
ATOM     24  N   UNL     1      -1.271  12.060  19.527  0.00  0.00    +0.000 N 
ATOM     25  N   UNL     1      -0.928  11.511  18.305  0.00  0.00    +0.000 NA
ATOM     26  C   UNL     1      -2.074  11.368  17.706  0.00  0.00    +0.000 A 
ATOM     27  N   UNL     1      -2.203  10.836  16.454  0.00  0.00    +0.000 NA
ENDBRANCH  15  24
ENDBRANCH   1  15
TORSDOF 4
ENDMDL
MODEL 4
REMARK VINA RESULT:      -7.2      4.774      7.719
REMARK  Name = 
REMARK  7 active torsions:
REMARK  status: ('A' for Active; 'I' for Inactive)
REMARK    1  A    between atoms: C_1  and  C_2
REMARK    2  A    between atoms: C_4  and  C_5
REMARK    3  A    between atoms: N_9  and  C_10
REMARK    4  A    between atoms: C_10  and  C_11
REMARK    5  A    between atoms: N_13  and  C_14
REMARK    6  A    between atoms: C_14  and  C_15
REMARK    7  A    between atoms: C_14  and  C_16
REMARK                            x       y       z     vdW  Elec       q    Type
REMARK                         _______ _______ _______ _____ _____    ______ ____
ROOT
ATOM      1  C   UNL     1      -1.083  12.441  21.968  0.00  0.00    +0.000 C 
ATOM      2  O   UNL     1      -0.138  13.133  22.341  0.00  0.00    +0.000 OA
ATOM      3  N   UNL     1      -1.038  11.061  21.940  0.00  0.00    +0.000 N 
ATOM      4  H   UNL     1      -1.883  10.546  21.735  0.00  0.00    +0.000 HD
ENDROOT
BRANCH   3   5
ATOM      5  C   UNL     1       0.148  10.330  22.351  0.00  0.00    +0.000 C 
ATOM      6  C   UNL     1      -0.167   9.385  23.512  0.00  0.00    +0.000 C 
BRANCH   5   7
ATOM      7  C   UNL     1       0.769   9.585  21.182  0.00  0.00    +0.000 A 
ATOM      8  C   UNL     1       1.259   8.281  21.372  0.00  0.00    +0.000 A 
ATOM      9  C   UNL     1       1.795   7.548  20.307  0.00  0.00    +0.000 A 
ATOM     10  C   UNL     1       1.858   8.116  19.038  0.00  0.00    +0.000 A 
ATOM     11 CL   UNL     1       2.503   7.202  17.730  0.00  0.00    +0.000 Cl
ATOM     12  C   UNL     1       1.394   9.415  18.842  0.00  0.00    +0.000 A 
ATOM     13  F   UNL     1       1.448   9.984  17.629  0.00  0.00    +0.000 F 
ATOM     14  C   UNL     1       0.855  10.150  19.898  0.00  0.00    +0.000 A 
ENDBRANCH   5   7
ENDBRANCH   3   5
BRANCH   1  15
ATOM     15  C   UNL     1      -2.427  13.039  21.568  0.00  0.00    +0.000 C 
BRANCH  15  24
ATOM     16  C   UNL     1      -2.762  10.299  14.973  0.00  0.00    +0.000 C 
ATOM     17  C   UNL     1      -3.206  10.915  16.278  0.00  0.00    +0.000 A 
ATOM     18  C   UNL     1      -4.668  11.159  16.449  0.00  0.00    +0.000 A 
ATOM     19  C   UNL     1      -5.055  11.661  17.633  0.00  0.00    +0.000 A 
ATOM     20  C   UNL     1      -6.483  11.992  17.943  0.00  0.00    +0.000 C 
ATOM     21  N   UNL     1      -4.088  11.907  18.571  0.00  0.00    +0.000 N 
ATOM     22  C   UNL     1      -4.176  12.408  19.851  0.00  0.00    +0.000 A 
ATOM     23  O   UNL     1      -5.179  12.725  20.472  0.00  0.00    +0.000 OA
ATOM     24  N   UNL     1      -2.852  12.515  20.294  0.00  0.00    +0.000 N 
ATOM     25  N   UNL     1      -1.976  12.065  19.324  0.00  0.00    +0.000 NA
ATOM     26  C   UNL     1      -2.761  11.716  18.347  0.00  0.00    +0.000 A 
ATOM     27  N   UNL     1      -2.305  11.191  17.171  0.00  0.00    +0.000 NA
ENDBRANCH  15  24
ENDBRANCH   1  15
TORSDOF 4
ENDMDL
MODEL 5
REMARK VINA RESULT:      -7.2      4.398      7.565
REMARK  Name = 
REMARK  7 active torsions:
REMARK  status: ('A' for Active; 'I' for Inactive)
REMARK    1  A    between atoms: C_1  and  C_2
REMARK    2  A    between atoms: C_4  and  C_5
REMARK    3  A    between atoms: N_9  and  C_10
REMARK    4  A    between atoms: C_10  and  C_11
REMARK    5  A    between atoms: N_13  and  C_14
REMARK    6  A    between atoms: C_14  and  C_15
REMARK    7  A    between atoms: C_14  and  C_16
REMARK                            x       y       z     vdW  Elec       q    Type
REMARK                         _______ _______ _______ _____ _____    ______ ____
ROOT
ATOM      1  C   UNL     1       0.280  12.266  21.082  0.00  0.00    +0.000 C 
ATOM      2  O   UNL     1       1.388  12.559  21.525  0.00  0.00    +0.000 OA
ATOM      3  N   UNL     1      -0.253  10.994  21.174  0.00  0.00    +0.000 N 
ATOM      4  H   UNL     1      -1.213  10.842  20.897  0.00  0.00    +0.000 HD
ENDROOT
BRANCH   3   5
ATOM      5  C   UNL     1       0.477   9.907  21.803  0.00  0.00    +0.000 C 
ATOM      6  C   UNL     1      -0.433   9.103  22.732  0.00  0.00    +0.000 C 
BRANCH   5   7
ATOM      7  C   UNL     1       1.138   9.015  20.765  0.00  0.00    +0.000 A 
ATOM      8  C   UNL     1       1.597   7.739  21.138  0.00  0.00    +0.000 A 
ATOM      9  C   UNL     1       2.168   6.873  20.200  0.00  0.00    +0.000 A 
ATOM     10  C   UNL     1       2.298   7.278  18.874  0.00  0.00    +0.000 A 
ATOM     11 CL   UNL     1       2.986   6.201  17.722  0.00  0.00    +0.000 Cl
ATOM     12  C   UNL     1       1.865   8.548  18.496  0.00  0.00    +0.000 A 
ATOM     13  F   UNL     1       1.985   8.961  17.226  0.00  0.00    +0.000 F 
ATOM     14  C   UNL     1       1.292   9.414  19.427  0.00  0.00    +0.000 A 
ENDBRANCH   5   7
ENDBRANCH   3   5
BRANCH   1  15
ATOM     15  C   UNL     1      -0.650  13.298  20.454  0.00  0.00    +0.000 C 
BRANCH  15  24
ATOM     16  C   UNL     1      -3.449  10.113  14.698  0.00  0.00    +0.000 C 
ATOM     17  C   UNL     1      -3.365  10.793  16.043  0.00  0.00    +0.000 A 
ATOM     18  C   UNL     1      -4.644  10.979  16.789  0.00  0.00    +0.000 A 
ATOM     19  C   UNL     1      -4.549  11.540  18.006  0.00  0.00    +0.000 A 
ATOM     20  C   UNL     1      -5.747  11.824  18.860  0.00  0.00    +0.000 C 
ATOM     21  N   UNL     1      -3.303  11.893  18.453  0.00  0.00    +0.000 N 
ATOM     22  C   UNL     1      -2.898  12.473  19.634  0.00  0.00    +0.000 A 
ATOM     23  O   UNL     1      -3.580  12.784  20.599  0.00  0.00    +0.000 OA
ATOM     24  N   UNL     1      -1.518  12.671  19.490  0.00  0.00    +0.000 N 
ATOM     25  N   UNL     1      -1.085  12.199  18.265  0.00  0.00    +0.000 NA
ATOM     26  C   UNL     1      -2.173  11.749  17.712  0.00  0.00    +0.000 A 
ATOM     27  N   UNL     1      -2.200  11.169  16.475  0.00  0.00    +0.000 NA
ENDBRANCH  15  24
ENDBRANCH   1  15
TORSDOF 4
ENDMDL
MODEL 6
REMARK VINA RESULT:      -7.0      2.430      2.769
REMARK  Name = 
REMARK  7 active torsions:
REMARK  status: ('A' for Active; 'I' for Inactive)
REMARK    1  A    between atoms: C_1  and  C_2
REMARK    2  A    between atoms: C_4  and  C_5
REMARK    3  A    between atoms: N_9  and  C_10
REMARK    4  A    between atoms: C_10  and  C_11
REMARK    5  A    between atoms: N_13  and  C_14
REMARK    6  A    between atoms: C_14  and  C_15
REMARK    7  A    between atoms: C_14  and  C_16
REMARK                            x       y       z     vdW  Elec       q    Type
REMARK                         _______ _______ _______ _____ _____    ______ ____
ROOT
ATOM      1  C   UNL     1       1.137   8.710  21.418  0.00  0.00    +0.000 C 
ATOM      2  O   UNL     1       1.777   9.229  22.329  0.00  0.00    +0.000 OA
ATOM      3  N   UNL     1       0.550   9.440  20.402  0.00  0.00    +0.000 N 
ATOM      4  H   UNL     1       0.137   8.950  19.620  0.00  0.00    +0.000 HD
ENDROOT
BRANCH   3   5
ATOM      5  C   UNL     1       0.648  10.888  20.352  0.00  0.00    +0.000 C 
ATOM      6  C   UNL     1       1.094  11.358  18.967  0.00  0.00    +0.000 C 
BRANCH   5   7
ATOM      7  C   UNL     1      -0.660  11.543  20.765  0.00  0.00    +0.000 A 
ATOM      8  C   UNL     1      -1.492  12.111  19.784  0.00  0.00    +0.000 A 
ATOM      9  C   UNL     1      -2.723  12.682  20.123  0.00  0.00    +0.000 A 
ATOM     10  C   UNL     1      -3.134  12.702  21.453  0.00  0.00    +0.000 A 
ATOM     11 CL   UNL     1      -4.658  13.390  21.860  0.00  0.00    +0.000 Cl
ATOM     12  C   UNL     1      -2.309  12.160  22.437  0.00  0.00    +0.000 A 
ATOM     13  F   UNL     1      -2.682  12.172  23.725  0.00  0.00    +0.000 F 
ATOM     14  C   UNL     1      -1.082  11.587  22.105  0.00  0.00    +0.000 A 
ENDBRANCH   5   7
ENDBRANCH   3   5
BRANCH   1  15
ATOM     15  C   UNL     1       0.993   7.199  21.276  0.00  0.00    +0.000 C 
BRANCH  15  24
ATOM     16  C   UNL     1       5.342   6.224  15.686  0.00  0.00    +0.000 C 
ATOM     17  C   UNL     1       4.576   5.937  16.956  0.00  0.00    +0.000 A 
ATOM     18  C   UNL     1       4.773   4.595  17.576  0.00  0.00    +0.000 A 
ATOM     19  C   UNL     1       4.125   4.370  18.731  0.00  0.00    +0.000 A 
ATOM     20  C   UNL     1       4.194   3.061  19.456  0.00  0.00    +0.000 C 
ATOM     21  N   UNL     1       3.344   5.378  19.234  0.00  0.00    +0.000 N 
ATOM     22  C   UNL     1       2.577   5.443  20.376  0.00  0.00    +0.000 A 
ATOM     23  O   UNL     1       2.442   4.597  21.246  0.00  0.00    +0.000 OA
ATOM     24  N   UNL     1       1.942   6.690  20.319  0.00  0.00    +0.000 N 
ATOM     25  N   UNL     1       2.331   7.384  19.188  0.00  0.00    +0.000 NA
ATOM     26  C   UNL     1       3.157   6.566  18.602  0.00  0.00    +0.000 A 
ATOM     27  N   UNL     1       3.802   6.863  17.434  0.00  0.00    +0.000 NA
ENDBRANCH  15  24
ENDBRANCH   1  15
TORSDOF 4
ENDMDL
MODEL 7
REMARK VINA RESULT:      -6.9      4.143      8.560
REMARK  Name = 
REMARK  7 active torsions:
REMARK  status: ('A' for Active; 'I' for Inactive)
REMARK    1  A    between atoms: C_1  and  C_2
REMARK    2  A    between atoms: C_4  and  C_5
REMARK    3  A    between atoms: N_9  and  C_10
REMARK    4  A    between atoms: C_10  and  C_11
REMARK    5  A    between atoms: N_13  and  C_14
REMARK    6  A    between atoms: C_14  and  C_15
REMARK    7  A    between atoms: C_14  and  C_16
REMARK                            x       y       z     vdW  Elec       q    Type
REMARK                         _______ _______ _______ _____ _____    ______ ____
ROOT
ATOM      1  C   UNL     1       0.764  11.396  20.251  0.00  0.00    +0.000 C 
ATOM      2  O   UNL     1       1.365  11.770  21.255  0.00  0.00    +0.000 OA
ATOM      3  N   UNL     1       0.555  10.064  19.952  0.00  0.00    +0.000 N 
ATOM      4  H   UNL     1      -0.044   9.822  19.176  0.00  0.00    +0.000 HD
ENDROOT
BRANCH   3   5
ATOM      5  C   UNL     1       1.048   9.005  20.816  0.00  0.00    +0.000 C 
ATOM      6  C   UNL     1      -0.072   8.457  21.702  0.00  0.00    +0.000 C 
BRANCH   5   7
ATOM      7  C   UNL     1       1.709   7.899  20.011  0.00  0.00    +0.000 A 
ATOM      8  C   UNL     1       2.198   8.176  18.722  0.00  0.00    +0.000 A 
ATOM      9  C   UNL     1       2.853   7.194  17.971  0.00  0.00    +0.000 A 
ATOM     10  C   UNL     1       3.019   5.915  18.497  0.00  0.00    +0.000 A 
ATOM     11 CL   UNL     1       3.840   4.718  17.575  0.00  0.00    +0.000 Cl
ATOM     12  C   UNL     1       2.520   5.624  19.765  0.00  0.00    +0.000 A 
ATOM     13  F   UNL     1       2.664   4.398  20.290  0.00  0.00    +0.000 F 
ATOM     14  C   UNL     1       1.869   6.599  20.520  0.00  0.00    +0.000 A 
ENDBRANCH   5   7
ENDBRANCH   3   5
BRANCH   1  15
ATOM     15  C   UNL     1       0.121  12.372  19.271  0.00  0.00    +0.000 C 
BRANCH  15  24
ATOM     16  C   UNL     1      -6.606  12.724  21.669  0.00  0.00    +0.000 C 
ATOM     17  C   UNL     1      -5.441  12.472  20.742  0.00  0.00    +0.000 A 
ATOM     18  C   UNL     1      -5.761  11.972  19.373  0.00  0.00    +0.000 A 
ATOM     19  C   UNL     1      -4.720  11.798  18.542  0.00  0.00    +0.000 A 
ATOM     20  C   UNL     1      -4.876  11.269  17.149  0.00  0.00    +0.000 C 
ATOM     21  N   UNL     1      -3.467  12.087  19.016  0.00  0.00    +0.000 N 
ATOM     22  C   UNL     1      -2.232  12.013  18.411  0.00  0.00    +0.000 A 
ATOM     23  O   UNL     1      -1.970  11.692  17.262  0.00  0.00    +0.000 OA
ATOM     24  N   UNL     1      -1.313  12.354  19.412  0.00  0.00    +0.000 N 
ATOM     25  N   UNL     1      -1.969  12.658  20.591  0.00  0.00    +0.000 NA
ATOM     26  C   UNL     1      -3.224  12.492  20.290  0.00  0.00    +0.000 A 
ATOM     27  N   UNL     1      -4.241  12.704  21.178  0.00  0.00    +0.000 NA
ENDBRANCH  15  24
ENDBRANCH   1  15
TORSDOF 4
ENDMDL
MODEL 8
REMARK VINA RESULT:      -6.9      3.072      3.495
REMARK  Name = 
REMARK  7 active torsions:
REMARK  status: ('A' for Active; 'I' for Inactive)
REMARK    1  A    between atoms: C_1  and  C_2
REMARK    2  A    between atoms: C_4  and  C_5
REMARK    3  A    between atoms: N_9  and  C_10
REMARK    4  A    between atoms: C_10  and  C_11
REMARK    5  A    between atoms: N_13  and  C_14
REMARK    6  A    between atoms: C_14  and  C_15
REMARK    7  A    between atoms: C_14  and  C_16
REMARK                            x       y       z     vdW  Elec       q    Type
REMARK                         _______ _______ _______ _____ _____    ______ ____
ROOT
ATOM      1  C   UNL     1       1.117   9.126  21.632  0.00  0.00    +0.000 C 
ATOM      2  O   UNL     1       1.889   9.473  22.523  0.00  0.00    +0.000 OA
ATOM      3  N   UNL     1       0.564  10.013  20.729  0.00  0.00    +0.000 N 
ATOM      4  H   UNL     1       0.030   9.654  19.951  0.00  0.00    +0.000 HD
ENDROOT
BRANCH   3   5
ATOM      5  C   UNL     1       0.861  11.434  20.781  0.00  0.00    +0.000 C 
ATOM      6  C   UNL     1       0.846  12.047  19.380  0.00  0.00    +0.000 C 
BRANCH   5   7
ATOM      7  C   UNL     1      -0.091  12.162  21.715  0.00  0.00    +0.000 A 
ATOM      8  C   UNL     1       0.074  13.541  21.937  0.00  0.00    +0.000 A 
ATOM      9  C   UNL     1      -0.811  14.253  22.754  0.00  0.00    +0.000 A 
ATOM     10  C   UNL     1      -1.869  13.590  23.370  0.00  0.00    +0.000 A 
ATOM     11 CL   UNL     1      -2.963  14.475  24.360  0.00  0.00    +0.000 Cl
ATOM     12  C   UNL     1      -2.031  12.220  23.174  0.00  0.00    +0.000 A 
ATOM     13  F   UNL     1      -3.039  11.560  23.761  0.00  0.00    +0.000 F 
ATOM     14  C   UNL     1      -1.153  11.506  22.358  0.00  0.00    +0.000 A 
ENDBRANCH   5   7
ENDBRANCH   3   5
BRANCH   1  15
ATOM     15  C   UNL     1       0.751   7.666  21.390  0.00  0.00    +0.000 C 
BRANCH  15  24
ATOM     16  C   UNL     1       5.177   6.413  15.917  0.00  0.00    +0.000 C 
ATOM     17  C   UNL     1       4.292   6.158  17.113  0.00  0.00    +0.000 A 
ATOM     18  C   UNL     1       4.185   4.748  17.588  0.00  0.00    +0.000 A 
ATOM     19  C   UNL     1       3.434   4.541  18.682  0.00  0.00    +0.000 A 
ATOM     20  C   UNL     1       3.203   3.178  19.260  0.00  0.00    +0.000 C 
ATOM     21  N   UNL     1       2.832   5.628  19.260  0.00  0.00    +0.000 N 
ATOM     22  C   UNL     1       2.021   5.730  20.368  0.00  0.00    +0.000 A 
ATOM     23  O   UNL     1       1.670   4.844  21.133  0.00  0.00    +0.000 OA
ATOM     24  N   UNL     1       1.643   7.077  20.423  0.00  0.00    +0.000 N 
ATOM     25  N   UNL     1       2.230   7.789  19.394  0.00  0.00    +0.000 NA
ATOM     26  C   UNL     1       2.919   6.887  18.757  0.00  0.00    +0.000 A 
ATOM     27  N   UNL     1       3.682   7.166  17.658  0.00  0.00    +0.000 NA
ENDBRANCH  15  24
ENDBRANCH   1  15
TORSDOF 4
ENDMDL
MODEL 9
REMARK VINA RESULT:      -6.9      2.353      2.725
REMARK  Name = 
REMARK  7 active torsions:
REMARK  status: ('A' for Active; 'I' for Inactive)
REMARK    1  A    between atoms: C_1  and  C_2
REMARK    2  A    between atoms: C_4  and  C_5
REMARK    3  A    between atoms: N_9  and  C_10
REMARK    4  A    between atoms: C_10  and  C_11
REMARK    5  A    between atoms: N_13  and  C_14
REMARK    6  A    between atoms: C_14  and  C_15
REMARK    7  A    between atoms: C_14  and  C_16
REMARK                            x       y       z     vdW  Elec       q    Type
REMARK                         _______ _______ _______ _____ _____    ______ ____
ROOT
ATOM      1  C   UNL     1       0.970   8.798  21.505  0.00  0.00    +0.000 C 
ATOM      2  O   UNL     1       1.709   9.376  22.299  0.00  0.00    +0.000 OA
ATOM      3  N   UNL     1       0.210   9.465  20.564  0.00  0.00    +0.000 N 
ATOM      4  H   UNL     1      -0.287   8.931  19.866  0.00  0.00    +0.000 HD
ENDROOT
BRANCH   3   5
ATOM      5  C   UNL     1       0.231  10.913  20.457  0.00  0.00    +0.000 C 
ATOM      6  C   UNL     1       0.394  11.352  19.001  0.00  0.00    +0.000 C 
BRANCH   5   7
ATOM      7  C   UNL     1      -1.006  11.531  21.088  0.00  0.00    +0.000 A 
ATOM      8  C   UNL     1      -1.190  11.450  22.479  0.00  0.00    +0.000 A 
ATOM      9  C   UNL     1      -2.293  12.047  23.098  0.00  0.00    +0.000 A 
ATOM     10  C   UNL     1      -3.235  12.726  22.330  0.00  0.00    +0.000 A 
ATOM     11 CL   UNL     1      -4.580  13.472  23.100  0.00  0.00    +0.000 Cl
ATOM     12  C   UNL     1      -3.073  12.796  20.948  0.00  0.00    +0.000 A 
ATOM     13  F   UNL     1      -3.970  13.441  20.187  0.00  0.00    +0.000 F 
ATOM     14  C   UNL     1      -1.974  12.205  20.325  0.00  0.00    +0.000 A 
ENDBRANCH   5   7
ENDBRANCH   3   5
BRANCH   1  15
ATOM     15  C   UNL     1       0.878   7.278  21.431  0.00  0.00    +0.000 C 
BRANCH  15  24
ATOM     16  C   UNL     1       5.241   6.394  15.837  0.00  0.00    +0.000 C 
ATOM     17  C   UNL     1       4.417   6.067  17.059  0.00  0.00    +0.000 A 
ATOM     18  C   UNL     1       4.451   4.657  17.542  0.00  0.00    +0.000 A 
ATOM     19  C   UNL     1       3.753   4.390  18.659  0.00  0.00    +0.000 A 
ATOM     20  C   UNL     1       3.662   3.015  19.247  0.00  0.00    +0.000 C 
ATOM     21  N   UNL     1       3.073   5.422  19.249  0.00  0.00    +0.000 N 
ATOM     22  C   UNL     1       2.287   5.457  20.381  0.00  0.00    +0.000 A 
ATOM     23  O   UNL     1       2.039   4.549  21.158  0.00  0.00    +0.000 OA
ATOM     24  N   UNL     1       1.792   6.766  20.442  0.00  0.00    +0.000 N 
ATOM     25  N   UNL     1       2.283   7.522  19.393  0.00  0.00    +0.000 NA
ATOM     26  C   UNL     1       3.031   6.681  18.740  0.00  0.00    +0.000 A 
ATOM     27  N   UNL     1       3.734   7.020  17.618  0.00  0.00    +0.000 NA
ENDBRANCH  15  24
ENDBRANCH   1  15
TORSDOF 4
ENDMDL
