MODEL 1
REMARK VINA RESULT:      -7.9      0.000      0.000
REMARK  Name = 
REMARK  9 active torsions:
REMARK  status: ('A' for Active; 'I' for Inactive)
REMARK    1  A    between atoms: C_1  and  C_2
REMARK    2  A    between atoms: C_2  and  C_3
REMARK    3  A    between atoms: C_2  and  C_4
REMARK    4  A    between atoms: C_4  and  C_5
REMARK    5  A    between atoms: C_5  and  O_7
REMARK    6  A    between atoms: O_7  and  C_8
REMARK    7  A    between atoms: C_8  and  C_9
REMARK    8  A    between atoms: C_8  and  C_10
REMARK    9  A    between atoms: C_8  and  C_11
REMARK                            x       y       z     vdW  Elec       q    Type
REMARK                         _______ _______ _______ _____ _____    ______ ____
ROOT
ATOM      1  C   UNL     1       3.352   5.469  19.112  0.00  0.00    +0.000 C 
ATOM      2  C   UNL     1       2.503   5.932  20.347  0.00  0.00    +0.000 C 
ATOM      3  C   UNL     1       2.080   7.279  19.838  0.00  0.00    +0.000 A 
ATOM      4  C   UNL     1       2.259   7.274  18.458  0.00  0.00    +0.000 A 
ATOM      5  C   UNL     1       1.959   8.348  17.646  0.00  0.00    +0.000 A 
ATOM      6  C   UNL     1       1.501   9.518  18.245  0.00  0.00    +0.000 A 
ATOM      7  C   UNL     1       1.290   9.560  19.628  0.00  0.00    +0.000 A 
ATOM      8  C   UNL     1       0.809  10.788  20.238  0.00  0.00    +0.000 A 
ATOM      9  C   UNL     1       0.493  10.790  21.534  0.00  0.00    +0.000 A 
ATOM     10  C   UNL     1       0.636   9.586  22.373  0.00  0.00    +0.000 A 
ATOM     11  O   UNL     1       0.245   9.602  23.535  0.00  0.00    +0.000 OA
ATOM     12  O   UNL     1       1.249   8.467  21.797  0.00  0.00    +0.000 OA
ATOM     13  C   UNL     1       1.552   8.430  20.420  0.00  0.00    +0.000 A 
ATOM     14  O   UNL     1       2.751   6.103  17.950  0.00  0.00    +0.000 OA
ENDROOT
BRANCH   1  15
ATOM     15  C   UNL     1       3.544   3.941  18.808  0.00  0.00    +0.000 C 
ATOM     16  C   UNL     1       2.594   3.487  17.688  0.00  0.00    +0.000 C 
ATOM     17  C   UNL     1       3.349   3.138  20.101  0.00  0.00    +0.000 C 
BRANCH  15  18
ATOM     18  O   UNL     1       4.953   3.775  18.361  0.00  0.00    +0.000 OA
BRANCH  18  19
ATOM     19  C   UNL     1       5.896   4.715  18.651  0.00  0.00    +0.000 C 
ATOM     20  O   UNL     1       6.252   5.035  19.778  0.00  0.00    +0.000 OA
BRANCH  19  21
ATOM     21  C   UNL     1       6.520   5.334  17.414  0.00  0.00    +0.000 C 
BRANCH  21  23
ATOM     22  C   UNL     1       5.162   6.517  15.618  0.00  0.00    +0.000 C 
ATOM     23  C   UNL     1       5.710   5.180  16.120  0.00  0.00    +0.000 C 
ATOM     24  C   UNL     1       6.582   4.557  15.021  0.00  0.00    +0.000 C 
ENDBRANCH  21  23
ENDBRANCH  19  21
ENDBRANCH  18  19
ENDBRANCH  15  18
ENDBRANCH   1  15
TORSDOF 5
ENDMDL
MODEL 2
REMARK VINA RESULT:      -7.6      1.270      1.748
REMARK  Name = 
REMARK  9 active torsions:
REMARK  status: ('A' for Active; 'I' for Inactive)
REMARK    1  A    between atoms: C_1  and  C_2
REMARK    2  A    between atoms: C_2  and  C_3
REMARK    3  A    between atoms: C_2  and  C_4
REMARK    4  A    between atoms: C_4  and  C_5
REMARK    5  A    between atoms: C_5  and  O_7
REMARK    6  A    between atoms: O_7  and  C_8
REMARK    7  A    between atoms: C_8  and  C_9
REMARK    8  A    between atoms: C_8  and  C_10
REMARK    9  A    between atoms: C_8  and  C_11
REMARK                            x       y       z     vdW  Elec       q    Type
REMARK                         _______ _______ _______ _____ _____    ______ ____
ROOT
ATOM      1  C   UNL     1       3.270   6.265  18.794  0.00  0.00    +0.000 C 
ATOM      2  C   UNL     1       2.410   6.468  20.090  0.00  0.00    +0.000 C 
ATOM      3  C   UNL     1       1.865   7.833  19.788  0.00  0.00    +0.000 A 
ATOM      4  C   UNL     1       2.016   8.045  18.421  0.00  0.00    +0.000 A 
ATOM      5  C   UNL     1       1.610   9.195  17.778  0.00  0.00    +0.000 A 
ATOM      6  C   UNL     1       1.068  10.222  18.545  0.00  0.00    +0.000 A 
ATOM      7  C   UNL     1       0.882  10.044  19.921  0.00  0.00    +0.000 A 
ATOM      8  C   UNL     1       0.311  11.123  20.708  0.00  0.00    +0.000 A 
ATOM      9  C   UNL     1       0.022  10.910  21.992  0.00  0.00    +0.000 A 
ATOM     10  C   UNL     1       0.283   9.614  22.645  0.00  0.00    +0.000 A 
ATOM     11  O   UNL     1      -0.085   9.427  23.799  0.00  0.00    +0.000 OA
ATOM     12  O   UNL     1       0.976   8.648  21.906  0.00  0.00    +0.000 OA
ATOM     13  C   UNL     1       1.253   8.837  20.537  0.00  0.00    +0.000 A 
ATOM     14  O   UNL     1       2.595   7.007  17.743  0.00  0.00    +0.000 OA
ENDROOT
BRANCH   1  15
ATOM     15  C   UNL     1       3.584   4.819  18.268  0.00  0.00    +0.000 C 
ATOM     16  C   UNL     1       2.289   4.008  18.104  0.00  0.00    +0.000 C 
ATOM     17  C   UNL     1       4.583   4.141  19.216  0.00  0.00    +0.000 C 
BRANCH  15  18
ATOM     18  O   UNL     1       4.235   4.987  16.942  0.00  0.00    +0.000 OA
BRANCH  18  19
ATOM     19  C   UNL     1       5.584   5.154  16.839  0.00  0.00    +0.000 C 
ATOM     20  O   UNL     1       6.385   4.279  16.537  0.00  0.00    +0.000 OA
BRANCH  19  21
ATOM     21  C   UNL     1       6.029   6.581  17.105  0.00  0.00    +0.000 C 
BRANCH  21  23
ATOM     22  C   UNL     1       7.900   8.212  17.658  0.00  0.00    +0.000 C 
ATOM     23  C   UNL     1       7.486   6.743  17.556  0.00  0.00    +0.000 C 
ATOM     24  C   UNL     1       7.695   6.072  18.921  0.00  0.00    +0.000 C 
ENDBRANCH  21  23
ENDBRANCH  19  21
ENDBRANCH  18  19
ENDBRANCH  15  18
ENDBRANCH   1  15
TORSDOF 5
ENDMDL
MODEL 3
REMARK VINA RESULT:      -7.4      1.482      3.201
REMARK  Name = 
REMARK  9 active torsions:
REMARK  status: ('A' for Active; 'I' for Inactive)
REMARK    1  A    between atoms: C_1  and  C_2
REMARK    2  A    between atoms: C_2  and  C_3
REMARK    3  A    between atoms: C_2  and  C_4
REMARK    4  A    between atoms: C_4  and  C_5
REMARK    5  A    between atoms: C_5  and  O_7
REMARK    6  A    between atoms: O_7  and  C_8
REMARK    7  A    between atoms: C_8  and  C_9
REMARK    8  A    between atoms: C_8  and  C_10
REMARK    9  A    between atoms: C_8  and  C_11
REMARK                            x       y       z     vdW  Elec       q    Type
REMARK                         _______ _______ _______ _____ _____    ______ ____
ROOT
ATOM      1  C   UNL     1       3.996   6.050  19.043  0.00  0.00    +0.000 C 
ATOM      2  C   UNL     1       2.854   6.213  20.105  0.00  0.00    +0.000 C 
ATOM      3  C   UNL     1       2.240   7.479  19.585  0.00  0.00    +0.000 A 
ATOM      4  C   UNL     1       2.665   7.634  18.270  0.00  0.00    +0.000 A 
ATOM      5  C   UNL     1       2.286   8.688  17.464  0.00  0.00    +0.000 A 
ATOM      6  C   UNL     1       1.475   9.677  18.013  0.00  0.00    +0.000 A 
ATOM      7  C   UNL     1       1.011   9.551  19.328  0.00  0.00    +0.000 A 
ATOM      8  C   UNL     1       0.163  10.591  19.886  0.00  0.00    +0.000 A 
ATOM      9  C   UNL     1      -0.376  10.412  21.092  0.00  0.00    +0.000 A 
ATOM     10  C   UNL     1      -0.123   9.197  21.888  0.00  0.00    +0.000 A 
ATOM     11  O   UNL     1      -0.713   9.027  22.949  0.00  0.00    +0.000 OA
ATOM     12  O   UNL     1       0.820   8.288  21.393  0.00  0.00    +0.000 OA
ATOM     13  C   UNL     1       1.370   8.437  20.104  0.00  0.00    +0.000 A 
ATOM     14  O   UNL     1       3.492   6.643  17.816  0.00  0.00    +0.000 OA
ENDROOT
BRANCH   1  15
ATOM     15  C   UNL     1       4.579   4.629  18.713  0.00  0.00    +0.000 C 
ATOM     16  C   UNL     1       6.104   4.697  18.534  0.00  0.00    +0.000 C 
ATOM     17  C   UNL     1       3.869   4.066  17.474  0.00  0.00    +0.000 C 
BRANCH  15  18
ATOM     18  O   UNL     1       4.254   3.761  19.876  0.00  0.00    +0.000 OA
BRANCH  18  19
ATOM     19  C   UNL     1       4.164   2.408  19.737  0.00  0.00    +0.000 C 
ATOM     20  O   UNL     1       5.103   1.625  19.811  0.00  0.00    +0.000 OA
BRANCH  19  21
ATOM     21  C   UNL     1       2.744   1.926  19.507  0.00  0.00    +0.000 C 
BRANCH  21  23
ATOM     22  C   UNL     1       0.362   2.733  19.131  0.00  0.00    +0.000 C 
ATOM     23  C   UNL     1       1.640   2.892  19.957  0.00  0.00    +0.000 C 
ATOM     24  C   UNL     1       1.307   2.662  21.437  0.00  0.00    +0.000 C 
ENDBRANCH  21  23
ENDBRANCH  19  21
ENDBRANCH  18  19
ENDBRANCH  15  18
ENDBRANCH   1  15
TORSDOF 5
ENDMDL
MODEL 4
REMARK VINA RESULT:      -7.4      1.172      1.654
REMARK  Name = 
REMARK  9 active torsions:
REMARK  status: ('A' for Active; 'I' for Inactive)
REMARK    1  A    between atoms: C_1  and  C_2
REMARK    2  A    between atoms: C_2  and  C_3
REMARK    3  A    between atoms: C_2  and  C_4
REMARK    4  A    between atoms: C_4  and  C_5
REMARK    5  A    between atoms: C_5  and  O_7
REMARK    6  A    between atoms: O_7  and  C_8
REMARK    7  A    between atoms: C_8  and  C_9
REMARK    8  A    between atoms: C_8  and  C_10
REMARK    9  A    between atoms: C_8  and  C_11
REMARK                            x       y       z     vdW  Elec       q    Type
REMARK                         _______ _______ _______ _____ _____    ______ ____
ROOT
ATOM      1  C   UNL     1       2.638   5.935  19.638  0.00  0.00    +0.000 C 
ATOM      2  C   UNL     1       1.671   6.620  20.665  0.00  0.00    +0.000 C 
ATOM      3  C   UNL     1       1.572   7.970  20.018  0.00  0.00    +0.000 A 
ATOM      4  C   UNL     1       1.992   7.827  18.699  0.00  0.00    +0.000 A 
ATOM      5  C   UNL     1       2.023   8.865  17.791  0.00  0.00    +0.000 A 
ATOM      6  C   UNL     1       1.664  10.136  18.232  0.00  0.00    +0.000 A 
ATOM      7  C   UNL     1       1.219  10.320  19.547  0.00  0.00    +0.000 A 
ATOM      8  C   UNL     1       0.845  11.652  19.991  0.00  0.00    +0.000 A 
ATOM      9  C   UNL     1       0.308  11.806  21.202  0.00  0.00    +0.000 A 
ATOM     10  C   UNL     1       0.099  10.667  22.114  0.00  0.00    +0.000 A 
ATOM     11  O   UNL     1      -0.485  10.836  23.178  0.00  0.00    +0.000 OA
ATOM     12  O   UNL     1       0.612   9.425  21.721  0.00  0.00    +0.000 OA
ATOM     13  C   UNL     1       1.146   9.231  20.430  0.00  0.00    +0.000 A 
ATOM     14  O   UNL     1       2.368   6.558  18.354  0.00  0.00    +0.000 OA
ENDROOT
BRANCH   1  15
ATOM     15  C   UNL     1       2.628   4.376  19.454  0.00  0.00    +0.000 C 
ATOM     16  C   UNL     1       1.546   3.956  18.446  0.00  0.00    +0.000 C 
ATOM     17  C   UNL     1       2.444   3.705  20.822  0.00  0.00    +0.000 C 
BRANCH  15  18
ATOM     18  O   UNL     1       3.968   4.005  18.927  0.00  0.00    +0.000 OA
BRANCH  18  19
ATOM     19  C   UNL     1       4.094   3.176  17.852  0.00  0.00    +0.000 C 
ATOM     20  O   UNL     1       3.724   2.009  17.812  0.00  0.00    +0.000 OA
BRANCH  19  21
ATOM     21  C   UNL     1       4.723   3.852  16.648  0.00  0.00    +0.000 C 
BRANCH  21  23
ATOM     22  C   UNL     1       7.061   4.850  16.741  0.00  0.00    +0.000 C 
ATOM     23  C   UNL     1       5.567   5.096  16.958  0.00  0.00    +0.000 C 
ATOM     24  C   UNL     1       5.123   6.269  16.073  0.00  0.00    +0.000 C 
ENDBRANCH  21  23
ENDBRANCH  19  21
ENDBRANCH  18  19
ENDBRANCH  15  18
ENDBRANCH   1  15
TORSDOF 5
ENDMDL
MODEL 5
REMARK VINA RESULT:      -7.4      1.434      3.251
REMARK  Name = 
REMARK  9 active torsions:
REMARK  status: ('A' for Active; 'I' for Inactive)
REMARK    1  A    between atoms: C_1  and  C_2
REMARK    2  A    between atoms: C_2  and  C_3
REMARK    3  A    between atoms: C_2  and  C_4
REMARK    4  A    between atoms: C_4  and  C_5
REMARK    5  A    between atoms: C_5  and  O_7
REMARK    6  A    between atoms: O_7  and  C_8
REMARK    7  A    between atoms: C_8  and  C_9
REMARK    8  A    between atoms: C_8  and  C_10
REMARK    9  A    between atoms: C_8  and  C_11
REMARK                            x       y       z     vdW  Elec       q    Type
REMARK                         _______ _______ _______ _____ _____    ______ ____
ROOT
ATOM      1  C   UNL     1       3.538   6.439  18.988  0.00  0.00    +0.000 C 
ATOM      2  C   UNL     1       2.663   6.667  20.270  0.00  0.00    +0.000 C 
ATOM      3  C   UNL     1       1.963   7.925  19.846  0.00  0.00    +0.000 A 
ATOM      4  C   UNL     1       2.087   8.020  18.463  0.00  0.00    +0.000 A 
ATOM      5  C   UNL     1       1.550   9.049  17.718  0.00  0.00    +0.000 A 
ATOM      6  C   UNL     1       0.894  10.076  18.391  0.00  0.00    +0.000 A 
ATOM      7  C   UNL     1       0.733  10.011  19.780  0.00  0.00    +0.000 A 
ATOM      8  C   UNL     1       0.043  11.089  20.468  0.00  0.00    +0.000 A 
ATOM      9  C   UNL     1      -0.216  10.969  21.770  0.00  0.00    +0.000 A 
ATOM     10  C   UNL     1       0.193   9.780  22.540  0.00  0.00    +0.000 A 
ATOM     11  O   UNL     1      -0.148   9.664  23.712  0.00  0.00    +0.000 OA
ATOM     12  O   UNL     1       0.992   8.833  21.888  0.00  0.00    +0.000 OA
ATOM     13  C   UNL     1       1.242   8.920  20.503  0.00  0.00    +0.000 A 
ATOM     14  O   UNL     1       2.780   6.995  17.880  0.00  0.00    +0.000 OA
ENDROOT
BRANCH   1  15
ATOM     15  C   UNL     1       4.015   4.995  18.598  0.00  0.00    +0.000 C 
ATOM     16  C   UNL     1       5.516   4.992  18.264  0.00  0.00    +0.000 C 
ATOM     17  C   UNL     1       3.157   4.474  17.437  0.00  0.00    +0.000 C 
BRANCH  15  18
ATOM     18  O   UNL     1       3.770   4.135  19.786  0.00  0.00    +0.000 OA
BRANCH  18  19
ATOM     19  C   UNL     1       3.839   2.777  19.695  0.00  0.00    +0.000 C 
ATOM     20  O   UNL     1       4.850   2.107  19.862  0.00  0.00    +0.000 OA
BRANCH  19  21
ATOM     21  C   UNL     1       2.500   2.131  19.390  0.00  0.00    +0.000 C 
BRANCH  21  23
ATOM     22  C   UNL     1       1.934   2.534  21.837  0.00  0.00    +0.000 C 
ATOM     23  C   UNL     1       1.389   2.405  20.413  0.00  0.00    +0.000 C 
ATOM     24  C   UNL     1       0.641   3.694  20.049  0.00  0.00    +0.000 C 
ENDBRANCH  21  23
ENDBRANCH  19  21
ENDBRANCH  18  19
ENDBRANCH  15  18
ENDBRANCH   1  15
TORSDOF 5
ENDMDL
MODEL 6
REMARK VINA RESULT:      -7.3      0.947      1.609
REMARK  Name = 
REMARK  9 active torsions:
REMARK  status: ('A' for Active; 'I' for Inactive)
REMARK    1  A    between atoms: C_1  and  C_2
REMARK    2  A    between atoms: C_2  and  C_3
REMARK    3  A    between atoms: C_2  and  C_4
REMARK    4  A    between atoms: C_4  and  C_5
REMARK    5  A    between atoms: C_5  and  O_7
REMARK    6  A    between atoms: O_7  and  C_8
REMARK    7  A    between atoms: C_8  and  C_9
REMARK    8  A    between atoms: C_8  and  C_10
REMARK    9  A    between atoms: C_8  and  C_11
REMARK                            x       y       z     vdW  Elec       q    Type
REMARK                         _______ _______ _______ _____ _____    ______ ____
ROOT
ATOM      1  C   UNL     1       3.377   5.807  19.050  0.00  0.00    +0.000 C 
ATOM      2  C   UNL     1       2.489   6.151  20.296  0.00  0.00    +0.000 C 
ATOM      3  C   UNL     1       1.999   7.500  19.859  0.00  0.00    +0.000 A 
ATOM      4  C   UNL     1       2.196   7.585  18.485  0.00  0.00    +0.000 A 
ATOM      5  C   UNL     1       1.848   8.687  17.731  0.00  0.00    +0.000 A 
ATOM      6  C   UNL     1       1.319   9.794  18.389  0.00  0.00    +0.000 A 
ATOM      7  C   UNL     1       1.089   9.744  19.769  0.00  0.00    +0.000 A 
ATOM      8  C   UNL     1       0.533  10.906  20.441  0.00  0.00    +0.000 A 
ATOM      9  C   UNL     1       0.202  10.816  21.729  0.00  0.00    +0.000 A 
ATOM     10  C   UNL     1       0.400   9.575  22.500  0.00  0.00    +0.000 A 
ATOM     11  O   UNL     1      -0.006   9.502  23.655  0.00  0.00    +0.000 OA
ATOM     12  O   UNL     1       1.080   8.526  21.870  0.00  0.00    +0.000 OA
ATOM     13  C   UNL     1       1.402   8.585  20.498  0.00  0.00    +0.000 A 
ATOM     14  O   UNL     1       2.758   6.474  17.918  0.00  0.00    +0.000 OA
ENDROOT
BRANCH   1  15
ATOM     15  C   UNL     1       3.656   4.311  18.661  0.00  0.00    +0.000 C 
ATOM     16  C   UNL     1       2.845   3.913  17.418  0.00  0.00    +0.000 C 
ATOM     17  C   UNL     1       3.357   3.410  19.867  0.00  0.00    +0.000 C 
BRANCH  15  18
ATOM     18  O   UNL     1       5.109   4.220  18.356  0.00  0.00    +0.000 OA
BRANCH  18  19
ATOM     19  C   UNL     1       5.575   4.438  17.094  0.00  0.00    +0.000 C 
ATOM     20  O   UNL     1       5.598   3.607  16.195  0.00  0.00    +0.000 OA
BRANCH  19  21
ATOM     21  C   UNL     1       6.052   5.862  16.873  0.00  0.00    +0.000 C 
BRANCH  21  23
ATOM     22  C   UNL     1       7.869   5.468  18.608  0.00  0.00    +0.000 C 
ATOM     23  C   UNL     1       6.872   6.467  18.020  0.00  0.00    +0.000 C 
ATOM     24  C   UNL     1       7.638   7.703  17.527  0.00  0.00    +0.000 C 
ENDBRANCH  21  23
ENDBRANCH  19  21
ENDBRANCH  18  19
ENDBRANCH  15  18
ENDBRANCH   1  15
TORSDOF 5
ENDMDL
MODEL 7
REMARK VINA RESULT:      -7.3      1.418      1.952
REMARK  Name = 
REMARK  9 active torsions:
REMARK  status: ('A' for Active; 'I' for Inactive)
REMARK    1  A    between atoms: C_1  and  C_2
REMARK    2  A    between atoms: C_2  and  C_3
REMARK    3  A    between atoms: C_2  and  C_4
REMARK    4  A    between atoms: C_4  and  C_5
REMARK    5  A    between atoms: C_5  and  O_7
REMARK    6  A    between atoms: O_7  and  C_8
REMARK    7  A    between atoms: C_8  and  C_9
REMARK    8  A    between atoms: C_8  and  C_10
REMARK    9  A    between atoms: C_8  and  C_11
REMARK                            x       y       z     vdW  Elec       q    Type
REMARK                         _______ _______ _______ _____ _____    ______ ____
ROOT
ATOM      1  C   UNL     1       2.512   6.892  19.760  0.00  0.00    +0.000 C 
ATOM      2  C   UNL     1       1.441   7.413  20.781  0.00  0.00    +0.000 C 
ATOM      3  C   UNL     1       1.235   8.786  20.210  0.00  0.00    +0.000 A 
ATOM      4  C   UNL     1       1.719   8.768  18.906  0.00  0.00    +0.000 A 
ATOM      5  C   UNL     1       1.683   9.859  18.063  0.00  0.00    +0.000 A 
ATOM      6  C   UNL     1       1.182  11.059  18.562  0.00  0.00    +0.000 A 
ATOM      7  C   UNL     1       0.670  11.116  19.863  0.00  0.00    +0.000 A 
ATOM      8  C   UNL     1       0.148  12.375  20.368  0.00  0.00    +0.000 A 
ATOM      9  C   UNL     1      -0.449  12.400  21.560  0.00  0.00    +0.000 A 
ATOM     10  C   UNL     1      -0.581  11.190  22.392  0.00  0.00    +0.000 A 
ATOM     11  O   UNL     1      -1.220  11.234  23.437  0.00  0.00    +0.000 OA
ATOM     12  O   UNL     1       0.069  10.031  21.951  0.00  0.00    +0.000 OA
ATOM     13  C   UNL     1       0.669   9.971  20.677  0.00  0.00    +0.000 A 
ATOM     14  O   UNL     1       2.232   7.565  18.504  0.00  0.00    +0.000 OA
ENDROOT
BRANCH   1  15
ATOM     15  C   UNL     1       2.664   5.353  19.485  0.00  0.00    +0.000 C 
ATOM     16  C   UNL     1       2.155   5.002  18.077  0.00  0.00    +0.000 C 
ATOM     17  C   UNL     1       1.935   4.567  20.583  0.00  0.00    +0.000 C 
BRANCH  15  18
ATOM     18  O   UNL     1       4.117   5.050  19.576  0.00  0.00    +0.000 OA
BRANCH  18  19
ATOM     19  C   UNL     1       4.680   4.077  18.807  0.00  0.00    +0.000 C 
ATOM     20  O   UNL     1       4.368   2.893  18.823  0.00  0.00    +0.000 OA
BRANCH  19  21
ATOM     21  C   UNL     1       5.744   4.605  17.863  0.00  0.00    +0.000 C 
BRANCH  21  23
ATOM     22  C   UNL     1       7.191   6.686  17.644  0.00  0.00    +0.000 C 
ATOM     23  C   UNL     1       5.767   6.129  17.681  0.00  0.00    +0.000 C 
ATOM     24  C   UNL     1       5.048   6.516  16.382  0.00  0.00    +0.000 C 
ENDBRANCH  21  23
ENDBRANCH  19  21
ENDBRANCH  18  19
ENDBRANCH  15  18
ENDBRANCH   1  15
TORSDOF 5
ENDMDL
MODEL 8
REMARK VINA RESULT:      -7.3      2.038      4.051
REMARK  Name = 
REMARK  9 active torsions:
REMARK  status: ('A' for Active; 'I' for Inactive)
REMARK    1  A    between atoms: C_1  and  C_2
REMARK    2  A    between atoms: C_2  and  C_3
REMARK    3  A    between atoms: C_2  and  C_4
REMARK    4  A    between atoms: C_4  and  C_5
REMARK    5  A    between atoms: C_5  and  O_7
REMARK    6  A    between atoms: O_7  and  C_8
REMARK    7  A    between atoms: C_8  and  C_9
REMARK    8  A    between atoms: C_8  and  C_10
REMARK    9  A    between atoms: C_8  and  C_11
REMARK                            x       y       z     vdW  Elec       q    Type
REMARK                         _______ _______ _______ _____ _____    ______ ____
ROOT
ATOM      1  C   UNL     1       2.743   6.676  18.294  0.00  0.00    +0.000 C 
ATOM      2  C   UNL     1       2.589   8.195  17.937  0.00  0.00    +0.000 C 
ATOM      3  C   UNL     1       1.741   8.617  19.101  0.00  0.00    +0.000 A 
ATOM      4  C   UNL     1       1.869   7.637  20.081  0.00  0.00    +0.000 A 
ATOM      5  C   UNL     1       1.237   7.696  21.305  0.00  0.00    +0.000 A 
ATOM      6  C   UNL     1       0.384   8.767  21.555  0.00  0.00    +0.000 A 
ATOM      7  C   UNL     1       0.241   9.783  20.603  0.00  0.00    +0.000 A 
ATOM      8  C   UNL     1      -0.651  10.897  20.880  0.00  0.00    +0.000 A 
ATOM      9  C   UNL     1      -0.694  11.922  20.029  0.00  0.00    +0.000 A 
ATOM     10  C   UNL     1       0.123  11.952  18.802  0.00  0.00    +0.000 A 
ATOM     11  O   UNL     1       0.127  12.954  18.095  0.00  0.00    +0.000 OA
ATOM     12  O   UNL     1       0.851  10.799  18.483  0.00  0.00    +0.000 OA
ATOM     13  C   UNL     1       0.943   9.722  19.388  0.00  0.00    +0.000 A 
ATOM     14  O   UNL     1       2.691   6.596  19.744  0.00  0.00    +0.000 OA
ENDROOT
BRANCH   1  15
ATOM     15  C   UNL     1       3.989   5.863  17.790  0.00  0.00    +0.000 C 
ATOM     16  C   UNL     1       4.923   5.521  18.962  0.00  0.00    +0.000 C 
ATOM     17  C   UNL     1       4.701   6.659  16.688  0.00  0.00    +0.000 C 
BRANCH  15  18
ATOM     18  O   UNL     1       3.459   4.607  17.195  0.00  0.00    +0.000 OA
BRANCH  18  19
ATOM     19  C   UNL     1       2.302   4.049  17.651  0.00  0.00    +0.000 C 
ATOM     20  O   UNL     1       1.178   4.327  17.253  0.00  0.00    +0.000 OA
BRANCH  19  21
ATOM     21  C   UNL     1       2.531   2.986  18.710  0.00  0.00    +0.000 C 
BRANCH  21  23
ATOM     22  C   UNL     1       0.738   3.259  20.493  0.00  0.00    +0.000 C 
ATOM     23  C   UNL     1       2.221   3.414  20.150  0.00  0.00    +0.000 C 
ATOM     24  C   UNL     1       3.049   2.582  21.138  0.00  0.00    +0.000 C 
ENDBRANCH  21  23
ENDBRANCH  19  21
ENDBRANCH  18  19
ENDBRANCH  15  18
ENDBRANCH   1  15
TORSDOF 5
ENDMDL
MODEL 9
REMARK VINA RESULT:      -7.3      1.976      2.913
REMARK  Name = 
REMARK  9 active torsions:
REMARK  status: ('A' for Active; 'I' for Inactive)
REMARK    1  A    between atoms: C_1  and  C_2
REMARK    2  A    between atoms: C_2  and  C_3
REMARK    3  A    between atoms: C_2  and  C_4
REMARK    4  A    between atoms: C_4  and  C_5
REMARK    5  A    between atoms: C_5  and  O_7
REMARK    6  A    between atoms: O_7  and  C_8
REMARK    7  A    between atoms: C_8  and  C_9
REMARK    8  A    between atoms: C_8  and  C_10
REMARK    9  A    between atoms: C_8  and  C_11
REMARK                            x       y       z     vdW  Elec       q    Type
REMARK                         _______ _______ _______ _____ _____    ______ ____
ROOT
ATOM      1  C   UNL     1       2.769   5.732  18.179  0.00  0.00    +0.000 C 
ATOM      2  C   UNL     1       3.073   7.236  17.854  0.00  0.00    +0.000 C 
ATOM      3  C   UNL     1       2.256   7.872  18.940  0.00  0.00    +0.000 A 
ATOM      4  C   UNL     1       2.010   6.894  19.898  0.00  0.00    +0.000 A 
ATOM      5  C   UNL     1       1.295   7.122  21.055  0.00  0.00    +0.000 A 
ATOM      6  C   UNL     1       0.746   8.385  21.251  0.00  0.00    +0.000 A 
ATOM      7  C   UNL     1       0.984   9.403  20.320  0.00  0.00    +0.000 A 
ATOM      8  C   UNL     1       0.406  10.718  20.541  0.00  0.00    +0.000 A 
ATOM      9  C   UNL     1       0.733  11.718  19.720  0.00  0.00    +0.000 A 
ATOM     10  C   UNL     1       1.649  11.524  18.582  0.00  0.00    +0.000 A 
ATOM     11  O   UNL     1       2.000  12.488  17.910  0.00  0.00    +0.000 OA
ATOM     12  O   UNL     1       2.064  10.217  18.303  0.00  0.00    +0.000 OA
ATOM     13  C   UNL     1       1.764   9.154  19.180  0.00  0.00    +0.000 A 
ATOM     14  O   UNL     1       2.547   5.668  19.613  0.00  0.00    +0.000 OA
ENDROOT
BRANCH   1  15
ATOM     15  C   UNL     1       3.791   4.610  17.777  0.00  0.00    +0.000 C 
ATOM     16  C   UNL     1       3.079   3.471  17.029  0.00  0.00    +0.000 C 
ATOM     17  C   UNL     1       4.523   4.117  19.032  0.00  0.00    +0.000 C 
BRANCH  15  18
ATOM     18  O   UNL     1       4.785   5.249  16.875  0.00  0.00    +0.000 OA
BRANCH  18  19
ATOM     19  C   UNL     1       5.890   4.570  16.455  0.00  0.00    +0.000 C 
ATOM     20  O   UNL     1       5.878   3.539  15.794  0.00  0.00    +0.000 OA
BRANCH  19  21
ATOM     21  C   UNL     1       7.190   5.240  16.858  0.00  0.00    +0.000 C 
BRANCH  21  23
ATOM     22  C   UNL     1       7.832   5.863  19.239  0.00  0.00    +0.000 C 
ATOM     23  C   UNL     1       7.074   6.282  17.979  0.00  0.00    +0.000 C 
ATOM     24  C   UNL     1       7.618   7.635  17.499  0.00  0.00    +0.000 C 
ENDBRANCH  21  23
ENDBRANCH  19  21
ENDBRANCH  18  19
ENDBRANCH  15  18
ENDBRANCH   1  15
TORSDOF 5
ENDMDL
