MODEL 1
REMARK VINA RESULT:      -7.4      0.000      0.000
REMARK  Name = 
REMARK  4 active torsions:
REMARK  status: ('A' for Active; 'I' for Inactive)
REMARK    1  A    between atoms: C_1  and  C_2
REMARK    2  A    between atoms: C_2  and  C_3
REMARK    3  A    between atoms: C_3  and  N_4
REMARK    4  A    between atoms: C_9  and  O_10
REMARK                            x       y       z     vdW  Elec       q    Type
REMARK                         _______ _______ _______ _____ _____    ______ ____
ROOT
ATOM      1  N   UNL     1       5.889   6.173  16.550  0.00  0.00    +0.000 NA
ATOM      2  C   UNL     1       7.055   5.407  17.043  0.00  0.00    +0.000 C 
ATOM      3  C   UNL     1       6.633   4.680  18.317  0.00  0.00    +0.000 C 
ATOM      4  C   UNL     1       5.248   5.221  18.706  0.00  0.00    +0.000 C 
ATOM      5  C   UNL     1       4.107   4.228  18.573  0.00  0.00    +0.000 A 
ATOM      6  C   UNL     1       4.199   2.900  19.021  0.00  0.00    +0.000 A 
ATOM      7  C   UNL     1       3.203   1.964  18.751  0.00  0.00    +0.000 A 
ATOM      8  C   UNL     1       2.044   2.355  18.097  0.00  0.00    +0.000 A 
ATOM      9  C   UNL     1       1.868   3.695  17.768  0.00  0.00    +0.000 A 
ATOM     10  C   UNL     1       2.881   4.641  18.019  0.00  0.00    +0.000 A 
ATOM     11  C   UNL     1       2.556   6.083  17.746  0.00  0.00    +0.000 C 
ATOM     12  C   UNL     1       3.727   7.058  17.784  0.00  0.00    +0.000 C 
ATOM     13  C   UNL     1       5.125   6.455  17.788  0.00  0.00    +0.000 C 
ENDROOT
BRANCH   6  14
ATOM     14  O   UNL     1       5.241   2.450  19.785  0.00  0.00    +0.000 OA
ATOM     15  H   UNL     1       5.786   1.870  19.229  0.00  0.00    +0.000 HD
ENDBRANCH   6  14
BRANCH   1  16
ATOM     16  C   UNL     1       5.277   5.442  15.434  0.00  0.00    +0.000 C 
BRANCH  16  18
ATOM     17  C   UNL     1       6.177   3.882  13.583  0.00  0.00    +0.000 C 
ATOM     18  C   UNL     1       5.821   4.061  15.047  0.00  0.00    +0.000 C 
ENDBRANCH  16  18
ENDBRANCH   1  16
TORSDOF 3
ENDMDL
MODEL 2
REMARK VINA RESULT:      -6.5      2.212      4.855
REMARK  Name = 
REMARK  4 active torsions:
REMARK  status: ('A' for Active; 'I' for Inactive)
REMARK    1  A    between atoms: C_1  and  C_2
REMARK    2  A    between atoms: C_2  and  C_3
REMARK    3  A    between atoms: C_3  and  N_4
REMARK    4  A    between atoms: C_9  and  O_10
REMARK                            x       y       z     vdW  Elec       q    Type
REMARK                         _______ _______ _______ _____ _____    ______ ____
ROOT
ATOM      1  N   UNL     1       2.194   3.552  18.937  0.00  0.00    +0.000 NA
ATOM      2  C   UNL     1       2.469   2.231  18.331  0.00  0.00    +0.000 C 
ATOM      3  C   UNL     1       3.346   2.452  17.102  0.00  0.00    +0.000 C 
ATOM      4  C   UNL     1       3.394   3.968  16.851  0.00  0.00    +0.000 C 
ATOM      5  C   UNL     1       4.745   4.619  17.093  0.00  0.00    +0.000 A 
ATOM      6  C   UNL     1       5.950   4.061  16.634  0.00  0.00    +0.000 A 
ATOM      7  C   UNL     1       7.188   4.589  16.998  0.00  0.00    +0.000 A 
ATOM      8  C   UNL     1       7.251   5.745  17.762  0.00  0.00    +0.000 A 
ATOM      9  C   UNL     1       6.071   6.395  18.110  0.00  0.00    +0.000 A 
ATOM     10  C   UNL     1       4.817   5.854  17.764  0.00  0.00    +0.000 A 
ATOM     11  C   UNL     1       3.603   6.685  18.071  0.00  0.00    +0.000 C 
ATOM     12  C   UNL     1       2.254   5.991  17.922  0.00  0.00    +0.000 C 
ATOM     13  C   UNL     1       2.272   4.475  17.780  0.00  0.00    +0.000 C 
ENDROOT
BRANCH   6  14
ATOM     14  O   UNL     1       5.992   3.001  15.771  0.00  0.00    +0.000 OA
ATOM     15  H   UNL     1       5.954   3.354  14.867  0.00  0.00    +0.000 HD
ENDBRANCH   6  14
BRANCH   1  16
ATOM     16  C   UNL     1       3.064   3.730  20.105  0.00  0.00    +0.000 C 
BRANCH  16  18
ATOM     17  C   UNL     1       1.416   2.661  21.783  0.00  0.00    +0.000 C 
ATOM     18  C   UNL     1       2.449   3.739  21.510  0.00  0.00    +0.000 C 
ENDBRANCH  16  18
ENDBRANCH   1  16
TORSDOF 3
ENDMDL
MODEL 3
REMARK VINA RESULT:      -6.4      2.318      4.912
REMARK  Name = 
REMARK  4 active torsions:
REMARK  status: ('A' for Active; 'I' for Inactive)
REMARK    1  A    between atoms: C_1  and  C_2
REMARK    2  A    between atoms: C_2  and  C_3
REMARK    3  A    between atoms: C_3  and  N_4
REMARK    4  A    between atoms: C_9  and  O_10
REMARK                            x       y       z     vdW  Elec       q    Type
REMARK                         _______ _______ _______ _____ _____    ______ ____
ROOT
ATOM      1  N   UNL     1       2.572   2.428  19.177  0.00  0.00    +0.000 NA
ATOM      2  C   UNL     1       3.467   1.351  18.700  0.00  0.00    +0.000 C 
ATOM      3  C   UNL     1       4.099   1.812  17.389  0.00  0.00    +0.000 C 
ATOM      4  C   UNL     1       3.373   3.101  16.970  0.00  0.00    +0.000 C 
ATOM      5  C   UNL     1       4.215   4.363  17.032  0.00  0.00    +0.000 A 
ATOM      6  C   UNL     1       5.532   4.424  16.544  0.00  0.00    +0.000 A 
ATOM      7  C   UNL     1       6.339   5.541  16.750  0.00  0.00    +0.000 A 
ATOM      8  C   UNL     1       5.821   6.665  17.375  0.00  0.00    +0.000 A 
ATOM      9  C   UNL     1       4.479   6.681  17.742  0.00  0.00    +0.000 A 
ATOM     10  C   UNL     1       3.664   5.547  17.556  0.00  0.00    +0.000 A 
ATOM     11  C   UNL     1       2.201   5.697  17.865  0.00  0.00    +0.000 C 
ATOM     12  C   UNL     1       1.383   4.410  17.899  0.00  0.00    +0.000 C 
ATOM     13  C   UNL     1       2.161   3.101  17.924  0.00  0.00    +0.000 C 
ENDROOT
BRANCH   6  14
ATOM     14  O   UNL     1       6.090   3.420  15.803  0.00  0.00    +0.000 OA
ATOM     15  H   UNL     1       5.768   3.511  14.891  0.00  0.00    +0.000 HD
ENDBRANCH   6  14
BRANCH   1  16
ATOM     16  C   UNL     1       3.249   3.170  20.247  0.00  0.00    +0.000 C 
BRANCH  16  18
ATOM     17  C   UNL     1       1.274   2.704  21.847  0.00  0.00    +0.000 C 
ATOM     18  C   UNL     1       2.459   3.586  21.494  0.00  0.00    +0.000 C 
ENDBRANCH  16  18
ENDBRANCH   1  16
TORSDOF 3
ENDMDL
MODEL 4
REMARK VINA RESULT:      -6.4      0.964      1.001
REMARK  Name = 
REMARK  4 active torsions:
REMARK  status: ('A' for Active; 'I' for Inactive)
REMARK    1  A    between atoms: C_1  and  C_2
REMARK    2  A    between atoms: C_2  and  C_3
REMARK    3  A    between atoms: C_3  and  N_4
REMARK    4  A    between atoms: C_9  and  O_10
REMARK                            x       y       z     vdW  Elec       q    Type
REMARK                         _______ _______ _______ _____ _____    ______ ____
ROOT
ATOM      1  N   UNL     1       5.601   5.531  17.130  0.00  0.00    +0.000 NA
ATOM      2  C   UNL     1       6.578   4.702  17.870  0.00  0.00    +0.000 C 
ATOM      3  C   UNL     1       5.914   4.234  19.161  0.00  0.00    +0.000 C 
ATOM      4  C   UNL     1       4.588   5.002  19.289  0.00  0.00    +0.000 C 
ATOM      5  C   UNL     1       3.336   4.156  19.137  0.00  0.00    +0.000 A 
ATOM      6  C   UNL     1       3.181   2.909  19.764  0.00  0.00    +0.000 A 
ATOM      7  C   UNL     1       2.094   2.080  19.490  0.00  0.00    +0.000 A 
ATOM      8  C   UNL     1       1.087   2.516  18.643  0.00  0.00    +0.000 A 
ATOM      9  C   UNL     1       1.148   3.804  18.120  0.00  0.00    +0.000 A 
ATOM     10  C   UNL     1       2.254   4.637  18.376  0.00  0.00    +0.000 A 
ATOM     11  C   UNL     1       2.177   6.052  17.875  0.00  0.00    +0.000 C 
ATOM     12  C   UNL     1       3.468   6.862  17.939  0.00  0.00    +0.000 C 
ATOM     13  C   UNL     1       4.752   6.090  18.208  0.00  0.00    +0.000 C 
ENDROOT
BRANCH   6  14
ATOM     14  O   UNL     1       4.051   2.446  20.712  0.00  0.00    +0.000 OA
ATOM     15  H   UNL     1       4.856   2.987  20.664  0.00  0.00    +0.000 HD
ENDBRANCH   6  14
BRANCH   1  16
ATOM     16  C   UNL     1       5.018   4.728  16.049  0.00  0.00    +0.000 C 
BRANCH  16  18
ATOM     17  C   UNL     1       6.691   4.212  14.149  0.00  0.00    +0.000 C 
ATOM     18  C   UNL     1       5.460   4.976  14.601  0.00  0.00    +0.000 C 
ENDBRANCH  16  18
ENDBRANCH   1  16
TORSDOF 3
ENDMDL
MODEL 5
REMARK VINA RESULT:      -6.2      1.932      4.811
REMARK  Name = 
REMARK  4 active torsions:
REMARK  status: ('A' for Active; 'I' for Inactive)
REMARK    1  A    between atoms: C_1  and  C_2
REMARK    2  A    between atoms: C_2  and  C_3
REMARK    3  A    between atoms: C_3  and  N_4
REMARK    4  A    between atoms: C_9  and  O_10
REMARK                            x       y       z     vdW  Elec       q    Type
REMARK                         _______ _______ _______ _____ _____    ______ ____
ROOT
ATOM      1  N   UNL     1       3.309   4.614  17.874  0.00  0.00    +0.000 NA
ATOM      2  C   UNL     1       3.441   4.256  19.303  0.00  0.00    +0.000 C 
ATOM      3  C   UNL     1       4.927   4.090  19.609  0.00  0.00    +0.000 C 
ATOM      4  C   UNL     1       5.670   4.127  18.264  0.00  0.00    +0.000 C 
ATOM      5  C   UNL     1       6.546   5.348  18.044  0.00  0.00    +0.000 A 
ATOM      6  C   UNL     1       7.407   5.853  19.033  0.00  0.00    +0.000 A 
ATOM      7  C   UNL     1       8.084   7.060  18.868  0.00  0.00    +0.000 A 
ATOM      8  C   UNL     1       7.985   7.753  17.670  0.00  0.00    +0.000 A 
ATOM      9  C   UNL     1       7.251   7.201  16.625  0.00  0.00    +0.000 A 
ATOM     10  C   UNL     1       6.547   5.992  16.793  0.00  0.00    +0.000 A 
ATOM     11  C   UNL     1       5.885   5.409  15.576  0.00  0.00    +0.000 C 
ATOM     12  C   UNL     1       4.929   4.247  15.820  0.00  0.00    +0.000 C 
ATOM     13  C   UNL     1       4.506   3.994  17.260  0.00  0.00    +0.000 C 
ENDROOT
BRANCH   6  14
ATOM     14  O   UNL     1       7.673   5.181  20.193  0.00  0.00    +0.000 OA
ATOM     15  H   UNL     1       7.002   5.440  20.845  0.00  0.00    +0.000 HD
ENDBRANCH   6  14
BRANCH   1  16
ATOM     16  C   UNL     1       3.066   6.057  17.765  0.00  0.00    +0.000 C 
BRANCH  16  18
ATOM     17  C   UNL     1       2.093   8.245  18.736  0.00  0.00    +0.000 C 
ATOM     18  C   UNL     1       2.603   6.840  19.000  0.00  0.00    +0.000 C 
ENDBRANCH  16  18
ENDBRANCH   1  16
TORSDOF 3
ENDMDL
MODEL 6
REMARK VINA RESULT:      -6.2      2.094      3.396
REMARK  Name = 
REMARK  4 active torsions:
REMARK  status: ('A' for Active; 'I' for Inactive)
REMARK    1  A    between atoms: C_1  and  C_2
REMARK    2  A    between atoms: C_2  and  C_3
REMARK    3  A    between atoms: C_3  and  N_4
REMARK    4  A    between atoms: C_9  and  O_10
REMARK                            x       y       z     vdW  Elec       q    Type
REMARK                         _______ _______ _______ _____ _____    ______ ____
ROOT
ATOM      1  N   UNL     1       4.766   5.999  17.512  0.00  0.00    +0.000 NA
ATOM      2  C   UNL     1       3.981   7.182  17.928  0.00  0.00    +0.000 C 
ATOM      3  C   UNL     1       2.623   6.692  18.424  0.00  0.00    +0.000 C 
ATOM      4  C   UNL     1       2.527   5.199  18.071  0.00  0.00    +0.000 C 
ATOM      5  C   UNL     1       2.542   4.253  19.259  0.00  0.00    +0.000 A 
ATOM      6  C   UNL     1       1.781   4.478  20.418  0.00  0.00    +0.000 A 
ATOM      7  C   UNL     1       1.926   3.685  21.555  0.00  0.00    +0.000 A 
ATOM      8  C   UNL     1       2.775   2.589  21.532  0.00  0.00    +0.000 A 
ATOM      9  C   UNL     1       3.433   2.263  20.350  0.00  0.00    +0.000 A 
ATOM     10  C   UNL     1       3.307   3.074  19.205  0.00  0.00    +0.000 A 
ATOM     11  C   UNL     1       3.952   2.578  17.941  0.00  0.00    +0.000 C 
ATOM     12  C   UNL     1       4.022   3.571  16.785  0.00  0.00    +0.000 C 
ATOM     13  C   UNL     1       3.722   5.028  17.110  0.00  0.00    +0.000 C 
ENDROOT
BRANCH   6  14
ATOM     14  O   UNL     1       0.824   5.451  20.496  0.00  0.00    +0.000 OA
ATOM     15  H   UNL     1       0.338   5.323  21.327  0.00  0.00    +0.000 HD
ENDBRANCH   6  14
BRANCH   1  16
ATOM     16  C   UNL     1       5.734   5.675  18.566  0.00  0.00    +0.000 C 
BRANCH  16  18
ATOM     17  C   UNL     1       7.499   4.557  17.047  0.00  0.00    +0.000 C 
ATOM     18  C   UNL     1       7.214   5.497  18.204  0.00  0.00    +0.000 C 
ENDBRANCH  16  18
ENDBRANCH   1  16
TORSDOF 3
ENDMDL
MODEL 7
REMARK VINA RESULT:      -6.1      2.322      4.819
REMARK  Name = 
REMARK  4 active torsions:
REMARK  status: ('A' for Active; 'I' for Inactive)
REMARK    1  A    between atoms: C_1  and  C_2
REMARK    2  A    between atoms: C_2  and  C_3
REMARK    3  A    between atoms: C_3  and  N_4
REMARK    4  A    between atoms: C_9  and  O_10
REMARK                            x       y       z     vdW  Elec       q    Type
REMARK                         _______ _______ _______ _____ _____    ______ ____
ROOT
ATOM      1  N   UNL     1       2.419   2.876  20.560  0.00  0.00    +0.000 NA
ATOM      2  C   UNL     1       3.688   2.246  20.985  0.00  0.00    +0.000 C 
ATOM      3  C   UNL     1       4.672   2.343  19.823  0.00  0.00    +0.000 C 
ATOM      4  C   UNL     1       3.879   2.839  18.603  0.00  0.00    +0.000 C 
ATOM      5  C   UNL     1       4.232   4.238  18.130  0.00  0.00    +0.000 A 
ATOM      6  C   UNL     1       5.558   4.685  18.001  0.00  0.00    +0.000 A 
ATOM      7  C   UNL     1       5.858   6.016  17.717  0.00  0.00    +0.000 A 
ATOM      8  C   UNL     1       4.836   6.919  17.467  0.00  0.00    +0.000 A 
ATOM      9  C   UNL     1       3.520   6.469  17.450  0.00  0.00    +0.000 A 
ATOM     10  C   UNL     1       3.209   5.130  17.759  0.00  0.00    +0.000 A 
ATOM     11  C   UNL     1       1.777   4.703  17.594  0.00  0.00    +0.000 C 
ATOM     12  C   UNL     1       1.410   3.337  18.163  0.00  0.00    +0.000 C 
ATOM     13  C   UNL     1       2.424   2.683  19.091  0.00  0.00    +0.000 C 
ENDROOT
BRANCH   6  14
ATOM     14  O   UNL     1       6.632   3.845  18.100  0.00  0.00    +0.000 OA
ATOM     15  H   UNL     1       7.024   3.761  17.215  0.00  0.00    +0.000 HD
ENDBRANCH   6  14
BRANCH   1  16
ATOM     16  C   UNL     1       2.335   4.219  21.146  0.00  0.00    +0.000 C 
BRANCH  16  18
ATOM     17  C   UNL     1       1.525   6.625  20.666  0.00  0.00    +0.000 C 
ATOM     18  C   UNL     1       1.183   5.148  20.742  0.00  0.00    +0.000 C 
ENDBRANCH  16  18
ENDBRANCH   1  16
TORSDOF 3
ENDMDL
MODEL 8
REMARK VINA RESULT:      -6.0      2.327      4.812
REMARK  Name = 
REMARK  4 active torsions:
REMARK  status: ('A' for Active; 'I' for Inactive)
REMARK    1  A    between atoms: C_1  and  C_2
REMARK    2  A    between atoms: C_2  and  C_3
REMARK    3  A    between atoms: C_3  and  N_4
REMARK    4  A    between atoms: C_9  and  O_10
REMARK                            x       y       z     vdW  Elec       q    Type
REMARK                         _______ _______ _______ _____ _____    ______ ____
ROOT
ATOM      1  N   UNL     1       1.859   2.656  19.992  0.00  0.00    +0.000 NA
ATOM      2  C   UNL     1       2.649   2.690  21.242  0.00  0.00    +0.000 C 
ATOM      3  C   UNL     1       4.116   2.878  20.865  0.00  0.00    +0.000 C 
ATOM      4  C   UNL     1       4.212   2.717  19.339  0.00  0.00    +0.000 C 
ATOM      5  C   UNL     1       4.558   3.985  18.578  0.00  0.00    +0.000 A 
ATOM      6  C   UNL     1       5.572   4.866  18.989  0.00  0.00    +0.000 A 
ATOM      7  C   UNL     1       5.770   6.097  18.368  0.00  0.00    +0.000 A 
ATOM      8  C   UNL     1       5.012   6.444  17.260  0.00  0.00    +0.000 A 
ATOM      9  C   UNL     1       4.098   5.529  16.748  0.00  0.00    +0.000 A 
ATOM     10  C   UNL     1       3.878   4.291  17.384  0.00  0.00    +0.000 A 
ATOM     11  C   UNL     1       2.967   3.317  16.693  0.00  0.00    +0.000 C 
ATOM     12  C   UNL     1       2.544   2.096  17.503  0.00  0.00    +0.000 C 
ATOM     13  C   UNL     1       2.826   2.132  18.999  0.00  0.00    +0.000 C 
ENDROOT
BRANCH   6  14
ATOM     14  O   UNL     1       6.455   4.559  19.987  0.00  0.00    +0.000 OA
ATOM     15  H   UNL     1       6.289   3.642  20.258  0.00  0.00    +0.000 HD
ENDBRANCH   6  14
BRANCH   1  16
ATOM     16  C   UNL     1       1.212   3.959  19.802  0.00  0.00    +0.000 C 
BRANCH  16  18
ATOM     17  C   UNL     1       2.200   6.339  19.989  0.00  0.00    +0.000 C 
ATOM     18  C   UNL     1       1.607   5.137  20.701  0.00  0.00    +0.000 C 
ENDBRANCH  16  18
ENDBRANCH   1  16
TORSDOF 3
ENDMDL
MODEL 9
REMARK VINA RESULT:      -5.9      1.845      3.473
REMARK  Name = 
REMARK  4 active torsions:
REMARK  status: ('A' for Active; 'I' for Inactive)
REMARK    1  A    between atoms: C_1  and  C_2
REMARK    2  A    between atoms: C_2  and  C_3
REMARK    3  A    between atoms: C_3  and  N_4
REMARK    4  A    between atoms: C_9  and  O_10
REMARK                            x       y       z     vdW  Elec       q    Type
REMARK                         _______ _______ _______ _____ _____    ______ ____
ROOT
ATOM      1  N   UNL     1       7.459   5.904  16.511  0.00  0.00    +0.000 NA
ATOM      2  C   UNL     1       7.137   7.241  17.056  0.00  0.00    +0.000 C 
ATOM      3  C   UNL     1       5.625   7.427  16.980  0.00  0.00    +0.000 C 
ATOM      4  C   UNL     1       5.069   6.257  16.153  0.00  0.00    +0.000 C 
ATOM      5  C   UNL     1       4.225   5.262  16.930  0.00  0.00    +0.000 A 
ATOM      6  C   UNL     1       3.237   5.657  17.847  0.00  0.00    +0.000 A 
ATOM      7  C   UNL     1       2.583   4.735  18.663  0.00  0.00    +0.000 A 
ATOM      8  C   UNL     1       2.839   3.379  18.520  0.00  0.00    +0.000 A 
ATOM      9  C   UNL     1       3.709   2.953  17.522  0.00  0.00    +0.000 A 
ATOM     10  C   UNL     1       4.389   3.882  16.709  0.00  0.00    +0.000 A 
ATOM     11  C   UNL     1       5.211   3.330  15.578  0.00  0.00    +0.000 C 
ATOM     12  C   UNL     1       6.131   4.317  14.869  0.00  0.00    +0.000 C 
ATOM     13  C   UNL     1       6.358   5.659  15.551  0.00  0.00    +0.000 C 
ENDROOT
BRANCH   6  14
ATOM     14  O   UNL     1       2.820   6.953  17.971  0.00  0.00    +0.000 OA
ATOM     15  H   UNL     1       1.886   6.940  18.234  0.00  0.00    +0.000 HD
ENDBRANCH   6  14
BRANCH   1  16
ATOM     16  C   UNL     1       7.708   4.983  17.626  0.00  0.00    +0.000 C 
BRANCH  16  18
ATOM     17  C   UNL     1       6.208   5.128  19.725  0.00  0.00    +0.000 C 
ATOM     18  C   UNL     1       7.531   5.477  19.068  0.00  0.00    +0.000 C 
ENDBRANCH  16  18
ENDBRANCH   1  16
TORSDOF 3
ENDMDL
