MODEL 1
REMARK VINA RESULT:      -8.3      0.000      0.000
REMARK  Name = 
REMARK  6 active torsions:
REMARK  status: ('A' for Active; 'I' for Inactive)
REMARK    1  A    between atoms: C_2  and  O_3
REMARK    2  A    between atoms: C_2  and  C_4
REMARK    3  A    between atoms: C_6  and  C_7
REMARK    4  A    between atoms: N_9  and  C_10
REMARK    5  A    between atoms: C_17  and  C_18
REMARK    6  A    between atoms: C_26  and  C_27
REMARK                            x       y       z     vdW  Elec       q    Type
REMARK                         _______ _______ _______ _____ _____    ______ ____
ROOT
ATOM      1  C   UNL     1       3.127   6.309  18.337  0.00  0.00    +0.000 A 
ATOM      2  C   UNL     1       3.857   6.530  17.192  0.00  0.00    +0.000 A 
ATOM      3  N   UNL     1       4.459   5.340  16.866  0.00  0.00    +0.000 N 
ATOM      4  N   UNL     1       4.071   4.345  17.700  0.00  0.00    +0.000 NA
ATOM      5  C   UNL     1       3.257   4.919  18.609  0.00  0.00    +0.000 A 
ENDROOT
BRANCH   5   6
ATOM      6  C   UNL     1       2.597   4.094  19.637  0.00  0.00    +0.000 A 
ATOM      7  C   UNL     1       3.346   3.525  20.680  0.00  0.00    +0.000 A 
ATOM      8  C   UNL     1       2.725   2.747  21.666  0.00  0.00    +0.000 A 
ATOM      9  C   UNL     1       1.353   2.542  21.615  0.00  0.00    +0.000 A 
ATOM     10  F   UNL     1       0.754   1.815  22.568  0.00  0.00    +0.000 F 
ATOM     11  C   UNL     1       0.593   3.070  20.583  0.00  0.00    +0.000 A 
ATOM     12  C   UNL     1       1.220   3.821  19.586  0.00  0.00    +0.000 A 
ENDBRANCH   5   6
BRANCH   3  13
ATOM     13  C   UNL     1       5.378   5.107  15.802  0.00  0.00    +0.000 A 
ATOM     14  C   UNL     1       5.020   4.320  14.695  0.00  0.00    +0.000 A 
ATOM     15  C   UNL     1       5.936   4.101  13.662  0.00  0.00    +0.000 A 
ATOM     16  C   UNL     1       7.210   4.658  13.726  0.00  0.00    +0.000 A 
ATOM     17  C   UNL     1       7.571   5.443  14.820  0.00  0.00    +0.000 A 
ATOM     18  C   UNL     1       6.660   5.674  15.854  0.00  0.00    +0.000 A 
ENDBRANCH   3  13
BRANCH   1  21
ATOM     19  C   UNL     1       1.250   8.787  20.695  0.00  0.00    +0.000 A 
ATOM     20  S   UNL     1       1.787   7.153  20.660  0.00  0.00    +0.000 S 
ATOM     21  C   UNL     1       2.387   7.377  19.070  0.00  0.00    +0.000 A 
ATOM     22  N   UNL     1       2.148   8.559  18.553  0.00  0.00    +0.000 NA
ATOM     23  C   UNL     1       1.435   9.358  19.444  0.00  0.00    +0.000 A 
BRANCH  23  24
ATOM     24  C   UNL     1       0.929  10.658  18.999  0.00  0.00    +0.000 A 
ATOM     25  C   UNL     1       1.774  11.773  18.873  0.00  0.00    +0.000 A 
ATOM     26  C   UNL     1       1.270  13.015  18.485  0.00  0.00    +0.000 A 
ATOM     27  C   UNL     1      -0.091  13.161  18.255  0.00  0.00    +0.000 A 
ATOM     28  F   UNL     1      -0.575  14.357  17.900  0.00  0.00    +0.000 F 
ATOM     29  C   UNL     1      -0.956  12.083  18.406  0.00  0.00    +0.000 A 
ATOM     30  C   UNL     1      -0.448  10.835  18.779  0.00  0.00    +0.000 A 
ENDBRANCH  23  24
BRANCH  19  32
ATOM     31  O   UNL     1      -0.454   9.592  22.149  0.00  0.00    +0.000 OA
ATOM     32  C   UNL     1       0.719   9.348  21.920  0.00  0.00    +0.000 C 
BRANCH  32  33
ATOM     33  O   UNL     1       1.680   9.574  22.849  0.00  0.00    +0.000 OA
ATOM     34  H   UNL     1       1.502   9.117  23.693  0.00  0.00    +0.000 HD
ENDBRANCH  32  33
ENDBRANCH  19  32
ENDBRANCH   1  21
TORSDOF 6
ENDMDL
MODEL 2
REMARK VINA RESULT:      -8.2      3.281      5.227
REMARK  Name = 
REMARK  6 active torsions:
REMARK  status: ('A' for Active; 'I' for Inactive)
REMARK    1  A    between atoms: C_2  and  O_3
REMARK    2  A    between atoms: C_2  and  C_4
REMARK    3  A    between atoms: C_6  and  C_7
REMARK    4  A    between atoms: N_9  and  C_10
REMARK    5  A    between atoms: C_17  and  C_18
REMARK    6  A    between atoms: C_26  and  C_27
REMARK                            x       y       z     vdW  Elec       q    Type
REMARK                         _______ _______ _______ _____ _____    ______ ____
ROOT
ATOM      1  C   UNL     1       4.934   5.056  16.544  0.00  0.00    +0.000 A 
ATOM      2  C   UNL     1       4.724   4.198  15.489  0.00  0.00    +0.000 A 
ATOM      3  N   UNL     1       5.767   4.377  14.615  0.00  0.00    +0.000 N 
ATOM      4  N   UNL     1       6.683   5.245  15.110  0.00  0.00    +0.000 NA
ATOM      5  C   UNL     1       6.190   5.673  16.289  0.00  0.00    +0.000 A 
ENDROOT
BRANCH   5   6
ATOM      6  C   UNL     1       6.979   6.589  17.132  0.00  0.00    +0.000 A 
ATOM      7  C   UNL     1       7.648   6.109  18.270  0.00  0.00    +0.000 A 
ATOM      8  C   UNL     1       8.407   6.972  19.071  0.00  0.00    +0.000 A 
ATOM      9  C   UNL     1       8.504   8.315  18.734  0.00  0.00    +0.000 A 
ATOM     10  F   UNL     1       9.246   9.138  19.488  0.00  0.00    +0.000 F 
ATOM     11  C   UNL     1       7.833   8.821  17.631  0.00  0.00    +0.000 A 
ATOM     12  C   UNL     1       7.055   7.963  16.851  0.00  0.00    +0.000 A 
ENDBRANCH   5   6
BRANCH   3  13
ATOM     13  C   UNL     1       5.933   3.761  13.341  0.00  0.00    +0.000 A 
ATOM     14  C   UNL     1       4.834   3.239  12.639  0.00  0.00    +0.000 A 
ATOM     15  C   UNL     1       5.017   2.637  11.391  0.00  0.00    +0.000 A 
ATOM     16  C   UNL     1       6.291   2.548  10.837  0.00  0.00    +0.000 A 
ATOM     17  C   UNL     1       7.387   3.065  11.527  0.00  0.00    +0.000 A 
ATOM     18  C   UNL     1       7.212   3.676  12.771  0.00  0.00    +0.000 A 
ENDBRANCH   3  13
BRANCH   1  21
ATOM     19  C   UNL     1       2.507   4.989  19.599  0.00  0.00    +0.000 A 
ATOM     20  S   UNL     1       3.303   3.907  18.525  0.00  0.00    +0.000 S 
ATOM     21  C   UNL     1       3.977   5.233  17.675  0.00  0.00    +0.000 A 
ATOM     22  N   UNL     1       3.588   6.413  18.099  0.00  0.00    +0.000 NA
ATOM     23  C   UNL     1       2.690   6.292  19.156  0.00  0.00    +0.000 A 
BRANCH  23  24
ATOM     24  C   UNL     1       2.015   7.486  19.668  0.00  0.00    +0.000 A 
ATOM     25  C   UNL     1       1.547   7.557  20.991  0.00  0.00    +0.000 A 
ATOM     26  C   UNL     1       0.870   8.687  21.453  0.00  0.00    +0.000 A 
ATOM     27  C   UNL     1       0.625   9.741  20.585  0.00  0.00    +0.000 A 
ATOM     28  F   UNL     1      -0.040  10.816  21.025  0.00  0.00    +0.000 F 
ATOM     29  C   UNL     1       1.045   9.684  19.261  0.00  0.00    +0.000 A 
ATOM     30  C   UNL     1       1.737   8.558  18.803  0.00  0.00    +0.000 A 
ENDBRANCH  23  24
BRANCH  19  32
ATOM     31  O   UNL     1       2.277   4.292  21.863  0.00  0.00    +0.000 OA
ATOM     32  C   UNL     1       1.802   4.475  20.753  0.00  0.00    +0.000 C 
BRANCH  32  33
ATOM     33  O   UNL     1       0.496   4.216  20.495  0.00  0.00    +0.000 OA
ATOM     34  H   UNL     1       0.277   4.301  19.547  0.00  0.00    +0.000 HD
ENDBRANCH  32  33
ENDBRANCH  19  32
ENDBRANCH   1  21
TORSDOF 6
ENDMDL
MODEL 3
REMARK VINA RESULT:      -8.1      3.626      7.856
REMARK  Name = 
REMARK  6 active torsions:
REMARK  status: ('A' for Active; 'I' for Inactive)
REMARK    1  A    between atoms: C_2  and  O_3
REMARK    2  A    between atoms: C_2  and  C_4
REMARK    3  A    between atoms: C_6  and  C_7
REMARK    4  A    between atoms: N_9  and  C_10
REMARK    5  A    between atoms: C_17  and  C_18
REMARK    6  A    between atoms: C_26  and  C_27
REMARK                            x       y       z     vdW  Elec       q    Type
REMARK                         _______ _______ _______ _____ _____    ______ ____
ROOT
ATOM      1  C   UNL     1       3.120   7.128  18.287  0.00  0.00    +0.000 A 
ATOM      2  C   UNL     1       2.812   8.439  18.010  0.00  0.00    +0.000 A 
ATOM      3  N   UNL     1       1.578   8.686  18.560  0.00  0.00    +0.000 N 
ATOM      4  N   UNL     1       1.126   7.615  19.257  0.00  0.00    +0.000 NA
ATOM      5  C   UNL     1       2.054   6.651  19.101  0.00  0.00    +0.000 A 
ENDROOT
BRANCH   5   6
ATOM      6  C   UNL     1       1.904   5.359  19.793  0.00  0.00    +0.000 A 
ATOM      7  C   UNL     1       2.448   5.171  21.075  0.00  0.00    +0.000 A 
ATOM      8  C   UNL     1       2.301   3.949  21.743  0.00  0.00    +0.000 A 
ATOM      9  C   UNL     1       1.604   2.913  21.136  0.00  0.00    +0.000 A 
ATOM     10  F   UNL     1       1.445   1.750  21.782  0.00  0.00    +0.000 F 
ATOM     11  C   UNL     1       1.079   3.062  19.861  0.00  0.00    +0.000 A 
ATOM     12  C   UNL     1       1.252   4.272  19.186  0.00  0.00    +0.000 A 
ENDBRANCH   5   6
BRANCH   3  13
ATOM     13  C   UNL     1       0.817   9.886  18.456  0.00  0.00    +0.000 A 
ATOM     14  C   UNL     1       1.374  11.129  18.798  0.00  0.00    +0.000 A 
ATOM     15  C   UNL     1       0.611  12.295  18.691  0.00  0.00    +0.000 A 
ATOM     16  C   UNL     1      -0.708  12.231  18.250  0.00  0.00    +0.000 A 
ATOM     17  C   UNL     1      -1.267  11.001  17.907  0.00  0.00    +0.000 A 
ATOM     18  C   UNL     1      -0.509   9.831  18.002  0.00  0.00    +0.000 A 
ENDBRANCH   3  13
BRANCH   1  21
ATOM     19  C   UNL     1       6.478   5.302  17.504  0.00  0.00    +0.000 A 
ATOM     20  S   UNL     1       5.715   6.165  18.781  0.00  0.00    +0.000 S 
ATOM     21  C   UNL     1       4.344   6.438  17.788  0.00  0.00    +0.000 A 
ATOM     22  N   UNL     1       4.457   5.989  16.560  0.00  0.00    +0.000 NA
ATOM     23  C   UNL     1       5.701   5.397  16.358  0.00  0.00    +0.000 A 
BRANCH  23  24
ATOM     24  C   UNL     1       6.088   4.977  15.010  0.00  0.00    +0.000 A 
ATOM     25  C   UNL     1       5.406   3.952  14.333  0.00  0.00    +0.000 A 
ATOM     26  C   UNL     1       5.811   3.535  13.065  0.00  0.00    +0.000 A 
ATOM     27  C   UNL     1       6.924   4.117  12.476  0.00  0.00    +0.000 A 
ATOM     28  F   UNL     1       7.321   3.704  11.266  0.00  0.00    +0.000 F 
ATOM     29  C   UNL     1       7.639   5.110  13.135  0.00  0.00    +0.000 A 
ATOM     30  C   UNL     1       7.224   5.538  14.400  0.00  0.00    +0.000 A 
ENDBRANCH  23  24
BRANCH  19  32
ATOM     31  O   UNL     1       8.354   3.956  16.927  0.00  0.00    +0.000 OA
ATOM     32  C   UNL     1       7.732   4.619  17.741  0.00  0.00    +0.000 C 
BRANCH  32  33
ATOM     33  O   UNL     1       8.195   4.801  19.003  0.00  0.00    +0.000 OA
ATOM     34  H   UNL     1       8.454   3.963  19.432  0.00  0.00    +0.000 HD
ENDBRANCH  32  33
ENDBRANCH  19  32
ENDBRANCH   1  21
TORSDOF 6
ENDMDL
MODEL 4
REMARK VINA RESULT:      -8.1      3.280      5.320
REMARK  Name = 
REMARK  6 active torsions:
REMARK  status: ('A' for Active; 'I' for Inactive)
REMARK    1  A    between atoms: C_2  and  O_3
REMARK    2  A    between atoms: C_2  and  C_4
REMARK    3  A    between atoms: C_6  and  C_7
REMARK    4  A    between atoms: N_9  and  C_10
REMARK    5  A    between atoms: C_17  and  C_18
REMARK    6  A    between atoms: C_26  and  C_27
REMARK                            x       y       z     vdW  Elec       q    Type
REMARK                         _______ _______ _______ _____ _____    ______ ____
ROOT
ATOM      1  C   UNL     1       4.947   5.041  16.541  0.00  0.00    +0.000 A 
ATOM      2  C   UNL     1       4.729   4.191  15.481  0.00  0.00    +0.000 A 
ATOM      3  N   UNL     1       5.775   4.364  14.609  0.00  0.00    +0.000 N 
ATOM      4  N   UNL     1       6.699   5.220  15.109  0.00  0.00    +0.000 NA
ATOM      5  C   UNL     1       6.209   5.646  16.290  0.00  0.00    +0.000 A 
ENDROOT
BRANCH   5   6
ATOM      6  C   UNL     1       7.006   6.549  17.139  0.00  0.00    +0.000 A 
ATOM      7  C   UNL     1       7.143   7.906  16.802  0.00  0.00    +0.000 A 
ATOM      8  C   UNL     1       7.892   8.773  17.608  0.00  0.00    +0.000 A 
ATOM      9  C   UNL     1       8.500   8.287  18.758  0.00  0.00    +0.000 A 
ATOM     10  F   UNL     1       9.200   9.119  19.542  0.00  0.00    +0.000 F 
ATOM     11  C   UNL     1       8.404   6.948  19.101  0.00  0.00    +0.000 A 
ATOM     12  C   UNL     1       7.680   6.080  18.279  0.00  0.00    +0.000 A 
ENDBRANCH   5   6
BRANCH   3  13
ATOM     13  C   UNL     1       5.936   3.754  13.331  0.00  0.00    +0.000 A 
ATOM     14  C   UNL     1       7.204   3.639  12.737  0.00  0.00    +0.000 A 
ATOM     15  C   UNL     1       7.342   3.039  11.482  0.00  0.00    +0.000 A 
ATOM     16  C   UNL     1       6.222   2.555  10.811  0.00  0.00    +0.000 A 
ATOM     17  C   UNL     1       4.961   2.663  11.395  0.00  0.00    +0.000 A 
ATOM     18  C   UNL     1       4.814   3.254  12.653  0.00  0.00    +0.000 A 
ENDBRANCH   3  13
BRANCH   1  21
ATOM     19  C   UNL     1       2.523   4.982  19.598  0.00  0.00    +0.000 A 
ATOM     20  S   UNL     1       3.319   3.897  18.527  0.00  0.00    +0.000 S 
ATOM     21  C   UNL     1       3.991   5.221  17.672  0.00  0.00    +0.000 A 
ATOM     22  N   UNL     1       3.602   6.402  18.093  0.00  0.00    +0.000 NA
ATOM     23  C   UNL     1       2.705   6.283  19.151  0.00  0.00    +0.000 A 
BRANCH  23  24
ATOM     24  C   UNL     1       2.029   7.478  19.659  0.00  0.00    +0.000 A 
ATOM     25  C   UNL     1       1.554   7.550  20.980  0.00  0.00    +0.000 A 
ATOM     26  C   UNL     1       0.877   8.681  21.438  0.00  0.00    +0.000 A 
ATOM     27  C   UNL     1       0.639   9.736  20.570  0.00  0.00    +0.000 A 
ATOM     28  F   UNL     1      -0.026  10.813  21.007  0.00  0.00    +0.000 F 
ATOM     29  C   UNL     1       1.067   9.679  19.248  0.00  0.00    +0.000 A 
ATOM     30  C   UNL     1       1.759   8.552  18.794  0.00  0.00    +0.000 A 
ENDBRANCH  23  24
BRANCH  19  32
ATOM     31  O   UNL     1       2.295   4.295  21.865  0.00  0.00    +0.000 OA
ATOM     32  C   UNL     1       1.820   4.471  20.755  0.00  0.00    +0.000 C 
BRANCH  32  33
ATOM     33  O   UNL     1       0.515   4.206  20.497  0.00  0.00    +0.000 OA
ATOM     34  H   UNL     1       0.284   3.270  20.651  0.00  0.00    +0.000 HD
ENDBRANCH  32  33
ENDBRANCH  19  32
ENDBRANCH   1  21
TORSDOF 6
ENDMDL
MODEL 5
REMARK VINA RESULT:      -8.0      6.899     10.553
REMARK  Name = 
REMARK  6 active torsions:
REMARK  status: ('A' for Active; 'I' for Inactive)
REMARK    1  A    between atoms: C_2  and  O_3
REMARK    2  A    between atoms: C_2  and  C_4
REMARK    3  A    between atoms: C_6  and  C_7
REMARK    4  A    between atoms: N_9  and  C_10
REMARK    5  A    between atoms: C_17  and  C_18
REMARK    6  A    between atoms: C_26  and  C_27
REMARK                            x       y       z     vdW  Elec       q    Type
REMARK                         _______ _______ _______ _____ _____    ______ ____
ROOT
ATOM      1  C   UNL     1      -2.472  13.418  22.031  0.00  0.00    +0.000 A 
ATOM      2  C   UNL     1      -2.626  14.666  22.590  0.00  0.00    +0.000 A 
ATOM      3  N   UNL     1      -1.686  14.778  23.583  0.00  0.00    +0.000 N 
ATOM      4  N   UNL     1      -0.877  13.692  23.623  0.00  0.00    +0.000 NA
ATOM      5  C   UNL     1      -1.342  12.847  22.682  0.00  0.00    +0.000 A 
ENDROOT
BRANCH   5   6
ATOM      6  C   UNL     1      -0.641  11.580  22.412  0.00  0.00    +0.000 A 
ATOM      7  C   UNL     1       0.228  11.467  21.314  0.00  0.00    +0.000 A 
ATOM      8  C   UNL     1       0.906  10.269  21.056  0.00  0.00    +0.000 A 
ATOM      9  C   UNL     1       0.721   9.181  21.899  0.00  0.00    +0.000 A 
ATOM     10  F   UNL     1       1.384   8.040  21.666  0.00  0.00    +0.000 F 
ATOM     11  C   UNL     1      -0.150   9.255  22.975  0.00  0.00    +0.000 A 
ATOM     12  C   UNL     1      -0.845  10.443  23.212  0.00  0.00    +0.000 A 
ENDBRANCH   5   6
BRANCH   3  13
ATOM     13  C   UNL     1      -1.521  15.866  24.489  0.00  0.00    +0.000 A 
ATOM     14  C   UNL     1      -1.159  15.646  25.829  0.00  0.00    +0.000 A 
ATOM     15  C   UNL     1      -1.004  16.725  26.703  0.00  0.00    +0.000 A 
ATOM     16  C   UNL     1      -1.211  18.026  26.252  0.00  0.00    +0.000 A 
ATOM     17  C   UNL     1      -1.568  18.253  24.923  0.00  0.00    +0.000 A 
ATOM     18  C   UNL     1      -1.717  17.180  24.040  0.00  0.00    +0.000 A 
ENDBRANCH   3  13
BRANCH   1  21
ATOM     19  C   UNL     1      -5.210  12.170  19.547  0.00  0.00    +0.000 A 
ATOM     20  S   UNL     1      -5.060  12.747  21.161  0.00  0.00    +0.000 S 
ATOM     21  C   UNL     1      -3.361  12.867  20.968  0.00  0.00    +0.000 A 
ATOM     22  N   UNL     1      -2.907  12.439  19.813  0.00  0.00    +0.000 NA
ATOM     23  C   UNL     1      -3.945  11.970  19.013  0.00  0.00    +0.000 A 
BRANCH  23  24
ATOM     24  C   UNL     1      -3.634  11.302  17.748  0.00  0.00    +0.000 A 
ATOM     25  C   UNL     1      -2.566  10.395  17.636  0.00  0.00    +0.000 A 
ATOM     26  C   UNL     1      -2.257   9.796  16.415  0.00  0.00    +0.000 A 
ATOM     27  C   UNL     1      -2.993  10.124  15.286  0.00  0.00    +0.000 A 
ATOM     28  F   UNL     1      -2.684   9.561  14.111  0.00  0.00    +0.000 F 
ATOM     29  C   UNL     1      -4.034  11.043  15.358  0.00  0.00    +0.000 A 
ATOM     30  C   UNL     1      -4.353  11.632  16.586  0.00  0.00    +0.000 A 
ENDBRANCH  23  24
BRANCH  19  32
ATOM     31  O   UNL     1      -7.154  10.936  18.945  0.00  0.00    +0.000 OA
ATOM     32  C   UNL     1      -6.522  11.980  18.967  0.00  0.00    +0.000 C 
BRANCH  32  33
ATOM     33  O   UNL     1      -7.029  13.121  18.438  0.00  0.00    +0.000 OA
ATOM     34  H   UNL     1      -6.422  13.541  17.798  0.00  0.00    +0.000 HD
ENDBRANCH  32  33
ENDBRANCH  19  32
ENDBRANCH   1  21
TORSDOF 6
ENDMDL
MODEL 6
REMARK VINA RESULT:      -8.0      0.147      1.198
REMARK  Name = 
REMARK  6 active torsions:
REMARK  status: ('A' for Active; 'I' for Inactive)
REMARK    1  A    between atoms: C_2  and  O_3
REMARK    2  A    between atoms: C_2  and  C_4
REMARK    3  A    between atoms: C_6  and  C_7
REMARK    4  A    between atoms: N_9  and  C_10
REMARK    5  A    between atoms: C_17  and  C_18
REMARK    6  A    between atoms: C_26  and  C_27
REMARK                            x       y       z     vdW  Elec       q    Type
REMARK                         _______ _______ _______ _____ _____    ______ ____
ROOT
ATOM      1  C   UNL     1       3.158   6.250  18.369  0.00  0.00    +0.000 A 
ATOM      2  C   UNL     1       3.867   6.487  17.214  0.00  0.00    +0.000 A 
ATOM      3  N   UNL     1       4.458   5.301  16.857  0.00  0.00    +0.000 N 
ATOM      4  N   UNL     1       4.082   4.294  17.682  0.00  0.00    +0.000 NA
ATOM      5  C   UNL     1       3.287   4.855  18.615  0.00  0.00    +0.000 A 
ENDROOT
BRANCH   5   6
ATOM      6  C   UNL     1       2.643   4.016  19.641  0.00  0.00    +0.000 A 
ATOM      7  C   UNL     1       3.415   3.386  20.632  0.00  0.00    +0.000 A 
ATOM      8  C   UNL     1       2.810   2.595  21.616  0.00  0.00    +0.000 A 
ATOM      9  C   UNL     1       1.432   2.435  21.617  0.00  0.00    +0.000 A 
ATOM     10  F   UNL     1       0.849   1.694  22.570  0.00  0.00    +0.000 F 
ATOM     11  C   UNL     1       0.647   3.024  20.637  0.00  0.00    +0.000 A 
ATOM     12  C   UNL     1       1.257   3.789  19.641  0.00  0.00    +0.000 A 
ENDBRANCH   5   6
BRANCH   3  13
ATOM     13  C   UNL     1       5.356   5.082  15.772  0.00  0.00    +0.000 A 
ATOM     14  C   UNL     1       6.648   5.634  15.778  0.00  0.00    +0.000 A 
ATOM     15  C   UNL     1       7.514   5.409  14.704  0.00  0.00    +0.000 A 
ATOM     16  C   UNL     1       7.100   4.640  13.620  0.00  0.00    +0.000 A 
ATOM     17  C   UNL     1       5.820   4.087  13.608  0.00  0.00    +0.000 A 
ATOM     18  C   UNL     1       4.950   4.300  14.681  0.00  0.00    +0.000 A 
ENDBRANCH   3  13
BRANCH   1  21
ATOM     19  C   UNL     1       1.360   8.709  20.807  0.00  0.00    +0.000 A 
ATOM     20  S   UNL     1       1.931   7.088  20.756  0.00  0.00    +0.000 S 
ATOM     21  C   UNL     1       2.436   7.308  19.133  0.00  0.00    +0.000 A 
ATOM     22  N   UNL     1       2.140   8.480  18.620  0.00  0.00    +0.000 NA
ATOM     23  C   UNL     1       1.461   9.271  19.542  0.00  0.00    +0.000 A 
BRANCH  23  24
ATOM     24  C   UNL     1       0.900  10.554  19.115  0.00  0.00    +0.000 A 
ATOM     25  C   UNL     1      -0.461  10.694  18.795  0.00  0.00    +0.000 A 
ATOM     26  C   UNL     1      -0.973  11.915  18.352  0.00  0.00    +0.000 A 
ATOM     27  C   UNL     1      -0.120  12.997  18.193  0.00  0.00    +0.000 A 
ATOM     28  F   UNL     1      -0.610  14.162  17.751  0.00  0.00    +0.000 F 
ATOM     29  C   UNL     1       1.237  12.880  18.469  0.00  0.00    +0.000 A 
ATOM     30  C   UNL     1       1.747  11.660  18.928  0.00  0.00    +0.000 A 
ENDBRANCH  23  24
BRANCH  19  32
ATOM     31  O   UNL     1      -0.271   9.551  22.323  0.00  0.00    +0.000 OA
ATOM     32  C   UNL     1       0.886   9.270  22.054  0.00  0.00    +0.000 C 
BRANCH  32  33
ATOM     33  O   UNL     1       1.882   9.450  22.957  0.00  0.00    +0.000 OA
ATOM     34  H   UNL     1       2.275  10.343  22.911  0.00  0.00    +0.000 HD
ENDBRANCH  32  33
ENDBRANCH  19  32
ENDBRANCH   1  21
TORSDOF 6
ENDMDL
MODEL 7
REMARK VINA RESULT:      -8.0      6.849     10.545
REMARK  Name = 
REMARK  6 active torsions:
REMARK  status: ('A' for Active; 'I' for Inactive)
REMARK    1  A    between atoms: C_2  and  O_3
REMARK    2  A    between atoms: C_2  and  C_4
REMARK    3  A    between atoms: C_6  and  C_7
REMARK    4  A    between atoms: N_9  and  C_10
REMARK    5  A    between atoms: C_17  and  C_18
REMARK    6  A    between atoms: C_26  and  C_27
REMARK                            x       y       z     vdW  Elec       q    Type
REMARK                         _______ _______ _______ _____ _____    ______ ____
ROOT
ATOM      1  C   UNL     1      -2.489  13.361  21.992  0.00  0.00    +0.000 A 
ATOM      2  C   UNL     1      -2.663  14.605  22.555  0.00  0.00    +0.000 A 
ATOM      3  N   UNL     1      -1.738  14.721  23.562  0.00  0.00    +0.000 N 
ATOM      4  N   UNL     1      -0.919  13.642  23.607  0.00  0.00    +0.000 NA
ATOM      5  C   UNL     1      -1.363  12.798  22.655  0.00  0.00    +0.000 A 
ENDROOT
BRANCH   5   6
ATOM      6  C   UNL     1      -0.645  11.539  22.389  0.00  0.00    +0.000 A 
ATOM      7  C   UNL     1      -0.824  10.427  23.229  0.00  0.00    +0.000 A 
ATOM      8  C   UNL     1      -0.152   9.224  22.977  0.00  0.00    +0.000 A 
ATOM      9  C   UNL     1       0.695   9.127  21.881  0.00  0.00    +0.000 A 
ATOM     10  F   UNL     1       1.323   7.971  21.627  0.00  0.00    +0.000 F 
ATOM     11  C   UNL     1       0.910  10.216  21.050  0.00  0.00    +0.000 A 
ATOM     12  C   UNL     1       0.260  11.422  21.321  0.00  0.00    +0.000 A 
ENDBRANCH   5   6
BRANCH   3  13
ATOM     13  C   UNL     1      -1.597  15.806  24.476  0.00  0.00    +0.000 A 
ATOM     14  C   UNL     1      -1.149  15.592  25.790  0.00  0.00    +0.000 A 
ATOM     15  C   UNL     1      -1.018  16.668  26.673  0.00  0.00    +0.000 A 
ATOM     16  C   UNL     1      -1.335  17.958  26.255  0.00  0.00    +0.000 A 
ATOM     17  C   UNL     1      -1.778  18.178  24.952  0.00  0.00    +0.000 A 
ATOM     18  C   UNL     1      -1.904  17.109  24.060  0.00  0.00    +0.000 A 
ENDBRANCH   3  13
BRANCH   1  21
ATOM     19  C   UNL     1      -5.181  12.077  19.476  0.00  0.00    +0.000 A 
ATOM     20  S   UNL     1      -5.048  12.606  21.108  0.00  0.00    +0.000 S 
ATOM     21  C   UNL     1      -3.358  12.807  20.914  0.00  0.00    +0.000 A 
ATOM     22  N   UNL     1      -2.891  12.439  19.743  0.00  0.00    +0.000 NA
ATOM     23  C   UNL     1      -3.911  11.952  18.931  0.00  0.00    +0.000 A 
BRANCH  23  24
ATOM     24  C   UNL     1      -3.576  11.341  17.643  0.00  0.00    +0.000 A 
ATOM     25  C   UNL     1      -4.327  11.604  16.485  0.00  0.00    +0.000 A 
ATOM     26  C   UNL     1      -4.019  10.984  15.273  0.00  0.00    +0.000 A 
ATOM     27  C   UNL     1      -2.978  10.069  15.217  0.00  0.00    +0.000 A 
ATOM     28  F   UNL     1      -2.696   9.462  14.058  0.00  0.00    +0.000 F 
ATOM     29  C   UNL     1      -2.239   9.763  16.354  0.00  0.00    +0.000 A 
ATOM     30  C   UNL     1      -2.538  10.397  17.565  0.00  0.00    +0.000 A 
ENDBRANCH  23  24
BRANCH  19  32
ATOM     31  O   UNL     1      -7.233  12.704  18.446  0.00  0.00    +0.000 OA
ATOM     32  C   UNL     1      -6.485  11.849  18.893  0.00  0.00    +0.000 C 
BRANCH  32  33
ATOM     33  O   UNL     1      -6.822  10.535  18.865  0.00  0.00    +0.000 OA
ATOM     34  H   UNL     1      -7.740  10.376  19.158  0.00  0.00    +0.000 HD
ENDBRANCH  32  33
ENDBRANCH  19  32
ENDBRANCH   1  21
TORSDOF 6
ENDMDL
MODEL 8
REMARK VINA RESULT:      -8.0      0.137      1.012
REMARK  Name = 
REMARK  6 active torsions:
REMARK  status: ('A' for Active; 'I' for Inactive)
REMARK    1  A    between atoms: C_2  and  O_3
REMARK    2  A    between atoms: C_2  and  C_4
REMARK    3  A    between atoms: C_6  and  C_7
REMARK    4  A    between atoms: N_9  and  C_10
REMARK    5  A    between atoms: C_17  and  C_18
REMARK    6  A    between atoms: C_26  and  C_27
REMARK                            x       y       z     vdW  Elec       q    Type
REMARK                         _______ _______ _______ _____ _____    ______ ____
ROOT
ATOM      1  C   UNL     1       3.124   6.256  18.399  0.00  0.00    +0.000 A 
ATOM      2  C   UNL     1       3.840   6.498  17.248  0.00  0.00    +0.000 A 
ATOM      3  N   UNL     1       4.442   5.316  16.897  0.00  0.00    +0.000 N 
ATOM      4  N   UNL     1       4.067   4.306  17.720  0.00  0.00    +0.000 NA
ATOM      5  C   UNL     1       3.262   4.862  18.647  0.00  0.00    +0.000 A 
ENDROOT
BRANCH   5   6
ATOM      6  C   UNL     1       2.618   4.019  19.670  0.00  0.00    +0.000 A 
ATOM      7  C   UNL     1       3.386   3.411  20.677  0.00  0.00    +0.000 A 
ATOM      8  C   UNL     1       2.781   2.616  21.658  0.00  0.00    +0.000 A 
ATOM      9  C   UNL     1       1.405   2.431  21.639  0.00  0.00    +0.000 A 
ATOM     10  F   UNL     1       0.821   1.687  22.588  0.00  0.00    +0.000 F 
ATOM     11  C   UNL     1       0.625   2.998  20.643  0.00  0.00    +0.000 A 
ATOM     12  C   UNL     1       1.236   3.768  19.650  0.00  0.00    +0.000 A 
ENDBRANCH   5   6
BRANCH   3  13
ATOM     13  C   UNL     1       5.349   5.102  15.818  0.00  0.00    +0.000 A 
ATOM     14  C   UNL     1       4.970   4.357  14.689  0.00  0.00    +0.000 A 
ATOM     15  C   UNL     1       5.873   4.157  13.642  0.00  0.00    +0.000 A 
ATOM     16  C   UNL     1       7.157   4.692  13.713  0.00  0.00    +0.000 A 
ATOM     17  C   UNL     1       7.539   5.436  14.829  0.00  0.00    +0.000 A 
ATOM     18  C   UNL     1       6.639   5.647  15.877  0.00  0.00    +0.000 A 
ENDBRANCH   3  13
BRANCH   1  21
ATOM     19  C   UNL     1       1.279   8.697  20.821  0.00  0.00    +0.000 A 
ATOM     20  S   UNL     1       1.843   7.073  20.764  0.00  0.00    +0.000 S 
ATOM     21  C   UNL     1       2.389   7.310  19.157  0.00  0.00    +0.000 A 
ATOM     22  N   UNL     1       2.113   8.489  18.651  0.00  0.00    +0.000 NA
ATOM     23  C   UNL     1       1.415   9.273  19.565  0.00  0.00    +0.000 A 
BRANCH  23  24
ATOM     24  C   UNL     1       0.873  10.565  19.140  0.00  0.00    +0.000 A 
ATOM     25  C   UNL     1      -0.484  10.722  18.813  0.00  0.00    +0.000 A 
ATOM     26  C   UNL     1      -0.978  11.951  18.371  0.00  0.00    +0.000 A 
ATOM     27  C   UNL     1      -0.112  13.023  18.221  0.00  0.00    +0.000 A 
ATOM     28  F   UNL     1      -0.585  14.196  17.781  0.00  0.00    +0.000 F 
ATOM     29  C   UNL     1       1.242  12.888  18.504  0.00  0.00    +0.000 A 
ATOM     30  C   UNL     1       1.734  11.661  18.961  0.00  0.00    +0.000 A 
ENDBRANCH  23  24
BRANCH  19  32
ATOM     31  O   UNL     1       1.455   9.652  22.993  0.00  0.00    +0.000 OA
ATOM     32  C   UNL     1       0.778   9.246  22.062  0.00  0.00    +0.000 C 
BRANCH  32  33
ATOM     33  O   UNL     1      -0.577   9.292  22.103  0.00  0.00    +0.000 OA
ATOM     34  H   UNL     1      -0.944  10.016  21.560  0.00  0.00    +0.000 HD
ENDBRANCH  32  33
ENDBRANCH  19  32
ENDBRANCH   1  21
TORSDOF 6
ENDMDL
MODEL 9
REMARK VINA RESULT:      -8.0      3.237      5.182
REMARK  Name = 
REMARK  6 active torsions:
REMARK  status: ('A' for Active; 'I' for Inactive)
REMARK    1  A    between atoms: C_2  and  O_3
REMARK    2  A    between atoms: C_2  and  C_4
REMARK    3  A    between atoms: C_6  and  C_7
REMARK    4  A    between atoms: N_9  and  C_10
REMARK    5  A    between atoms: C_17  and  C_18
REMARK    6  A    between atoms: C_26  and  C_27
REMARK                            x       y       z     vdW  Elec       q    Type
REMARK                         _______ _______ _______ _____ _____    ______ ____
ROOT
ATOM      1  C   UNL     1       5.044   5.241  16.531  0.00  0.00    +0.000 A 
ATOM      2  C   UNL     1       4.863   4.362  15.487  0.00  0.00    +0.000 A 
ATOM      3  N   UNL     1       5.945   4.502  14.655  0.00  0.00    +0.000 N 
ATOM      4  N   UNL     1       6.856   5.365  15.169  0.00  0.00    +0.000 NA
ATOM      5  C   UNL     1       6.321   5.829  16.316  0.00  0.00    +0.000 A 
ENDROOT
BRANCH   5   6
ATOM      6  C   UNL     1       7.090   6.750  17.172  0.00  0.00    +0.000 A 
ATOM      7  C   UNL     1       7.751   6.273  18.316  0.00  0.00    +0.000 A 
ATOM      8  C   UNL     1       8.491   7.140  19.129  0.00  0.00    +0.000 A 
ATOM      9  C   UNL     1       8.579   8.485  18.798  0.00  0.00    +0.000 A 
ATOM     10  F   UNL     1       9.303   9.313  19.563  0.00  0.00    +0.000 F 
ATOM     11  C   UNL     1       7.916   8.988  17.689  0.00  0.00    +0.000 A 
ATOM     12  C   UNL     1       7.156   8.125  16.896  0.00  0.00    +0.000 A 
ENDBRANCH   5   6
BRANCH   3  13
ATOM     13  C   UNL     1       6.154   3.854  13.403  0.00  0.00    +0.000 A 
ATOM     14  C   UNL     1       7.378   3.968  12.723  0.00  0.00    +0.000 A 
ATOM     15  C   UNL     1       7.564   3.326  11.495  0.00  0.00    +0.000 A 
ATOM     16  C   UNL     1       6.534   2.574  10.936  0.00  0.00    +0.000 A 
ATOM     17  C   UNL     1       5.318   2.454  11.606  0.00  0.00    +0.000 A 
ATOM     18  C   UNL     1       5.126   3.085  12.838  0.00  0.00    +0.000 A 
ENDBRANCH   3  13
BRANCH   1  21
ATOM     19  C   UNL     1       2.493   5.289  19.484  0.00  0.00    +0.000 A 
ATOM     20  S   UNL     1       3.322   4.167  18.477  0.00  0.00    +0.000 S 
ATOM     21  C   UNL     1       4.043   5.461  17.615  0.00  0.00    +0.000 A 
ATOM     22  N   UNL     1       3.649   6.657  17.987  0.00  0.00    +0.000 NA
ATOM     23  C   UNL     1       2.708   6.576  19.009  0.00  0.00    +0.000 A 
BRANCH  23  24
ATOM     24  C   UNL     1       2.023   7.791  19.456  0.00  0.00    +0.000 A 
ATOM     25  C   UNL     1       1.550   7.928  20.771  0.00  0.00    +0.000 A 
ATOM     26  C   UNL     1       0.865   9.076  21.172  0.00  0.00    +0.000 A 
ATOM     27  C   UNL     1       0.618  10.082  20.249  0.00  0.00    +0.000 A 
ATOM     28  F   UNL     1      -0.055  11.175  20.631  0.00  0.00    +0.000 F 
ATOM     29  C   UNL     1       1.043   9.959  18.932  0.00  0.00    +0.000 A 
ATOM     30  C   UNL     1       1.743   8.815  18.535  0.00  0.00    +0.000 A 
ENDBRANCH  23  24
BRANCH  19  32
ATOM     31  O   UNL     1       0.564   4.475  20.616  0.00  0.00    +0.000 OA
ATOM     32  C   UNL     1       1.736   4.817  20.623  0.00  0.00    +0.000 C 
BRANCH  32  33
ATOM     33  O   UNL     1       2.479   4.762  21.756  0.00  0.00    +0.000 OA
ATOM     34  H   UNL     1       3.156   5.465  21.797  0.00  0.00    +0.000 HD
ENDBRANCH  32  33
ENDBRANCH  19  32
ENDBRANCH   1  21
TORSDOF 6
ENDMDL
