MODEL 1
REMARK VINA RESULT:      -8.1      0.000      0.000
REMARK  Name = 
REMARK  4 active torsions:
REMARK  status: ('A' for Active; 'I' for Inactive)
REMARK    1  A    between atoms: C_1  and  C_2
REMARK    2  A    between atoms: C_6  and  C_7
REMARK    3  A    between atoms: C_7  and  N_8
REMARK    4  A    between atoms: C_19  and  C_20
REMARK                            x       y       z     vdW  Elec       q    Type
REMARK                         _______ _______ _______ _____ _____    ______ ____
ROOT
ATOM      1  N   UNL     1       2.800   6.721  18.167  0.00  0.00    +0.000 N 
ATOM      2  C   UNL     1       2.291   6.480  19.494  0.00  0.00    +0.000 C 
ATOM      3  O   UNL     1       2.005   7.338  20.326  0.00  0.00    +0.000 OA
ATOM      4  C   UNL     1       2.161   5.000  19.763  0.00  0.00    +0.000 C 
ATOM      5  C   UNL     1       1.668   4.532  21.124  0.00  0.00    +0.000 C 
ATOM      6  C   UNL     1       2.279   3.118  21.252  0.00  0.00    +0.000 C 
ATOM      7  C   UNL     1       3.294   3.004  20.099  0.00  0.00    +0.000 C 
ATOM      8  N   UNL     1       3.490   4.407  19.757  0.00  0.00    +0.000 N 
ATOM      9  C   UNL     1       4.339   4.853  18.763  0.00  0.00    +0.000 A 
ATOM     10  C   UNL     1       5.666   4.411  18.765  0.00  0.00    +0.000 A 
ATOM     11  C   UNL     1       6.502   4.690  17.695  0.00  0.00    +0.000 A 
ATOM     12  C   UNL     1       5.981   5.356  16.581  0.00  0.00    +0.000 A 
ATOM     13  C   UNL     1       4.714   5.982  16.660  0.00  0.00    +0.000 A 
ATOM     14  C   UNL     1       3.936   5.847  17.819  0.00  0.00    +0.000 A 
ENDROOT
BRANCH  12  15
ATOM     15  C   UNL     1       6.750   5.346  15.347  0.00  0.00    +0.000 C 
ATOM     16  N   UNL     1       7.423   5.345  14.403  0.00  0.00    +0.000 NA
ENDBRANCH  12  15
BRANCH   1  17
ATOM     17  C   UNL     1       2.829   8.150  17.834  0.00  0.00    +0.000 C 
BRANCH  17  23
ATOM     18  C   UNL     1      -2.035   9.910  17.426  0.00  0.00    +0.000 C 
ATOM     19  C   UNL     1      -0.588  10.029  17.824  0.00  0.00    +0.000 A 
ATOM     20  C   UNL     1      -0.171  11.225  18.428  0.00  0.00    +0.000 A 
ATOM     21  C   UNL     1       1.141  11.379  18.844  0.00  0.00    +0.000 A 
ATOM     22  C   UNL     1       2.059  10.351  18.609  0.00  0.00    +0.000 A 
ATOM     23  C   UNL     1       1.674   9.127  17.988  0.00  0.00    +0.000 A 
ATOM     24  C   UNL     1       0.338   8.973  17.615  0.00  0.00    +0.000 A 
ENDBRANCH  17  23
ENDBRANCH   1  17
TORSDOF 3
ENDMDL
MODEL 2
REMARK VINA RESULT:      -7.8      2.118      4.573
REMARK  Name = 
REMARK  4 active torsions:
REMARK  status: ('A' for Active; 'I' for Inactive)
REMARK    1  A    between atoms: C_1  and  C_2
REMARK    2  A    between atoms: C_6  and  C_7
REMARK    3  A    between atoms: C_7  and  N_8
REMARK    4  A    between atoms: C_19  and  C_20
REMARK                            x       y       z     vdW  Elec       q    Type
REMARK                         _______ _______ _______ _____ _____    ______ ____
ROOT
ATOM      1  N   UNL     1       3.307   6.764  18.646  0.00  0.00    +0.000 N 
ATOM      2  C   UNL     1       4.131   6.977  17.482  0.00  0.00    +0.000 C 
ATOM      3  O   UNL     1       3.799   7.569  16.458  0.00  0.00    +0.000 OA
ATOM      4  C   UNL     1       5.494   6.354  17.664  0.00  0.00    +0.000 C 
ATOM      5  C   UNL     1       6.509   6.441  16.533  0.00  0.00    +0.000 C 
ATOM      6  C   UNL     1       7.418   5.216  16.781  0.00  0.00    +0.000 C 
ATOM      7  C   UNL     1       6.690   4.375  17.847  0.00  0.00    +0.000 C 
ATOM      8  N   UNL     1       5.338   4.910  17.754  0.00  0.00    +0.000 N 
ATOM      9  C   UNL     1       4.274   4.470  18.516  0.00  0.00    +0.000 A 
ATOM     10  C   UNL     1       3.996   3.100  18.554  0.00  0.00    +0.000 A 
ATOM     11  C   UNL     1       3.054   2.598  19.439  0.00  0.00    +0.000 A 
ATOM     12  C   UNL     1       2.439   3.468  20.344  0.00  0.00    +0.000 A 
ATOM     13  C   UNL     1       2.559   4.868  20.171  0.00  0.00    +0.000 A 
ATOM     14  C   UNL     1       3.379   5.382  19.156  0.00  0.00    +0.000 A 
ENDROOT
BRANCH  12  15
ATOM     15  C   UNL     1       1.723   2.899  21.474  0.00  0.00    +0.000 C 
ATOM     16  N   UNL     1       1.207   2.467  22.418  0.00  0.00    +0.000 NA
ENDBRANCH  12  15
BRANCH   1  17
ATOM     17  C   UNL     1       2.017   7.456  18.546  0.00  0.00    +0.000 C 
BRANCH  17  23
ATOM     18  C   UNL     1       0.327   9.414  23.045  0.00  0.00    +0.000 C 
ATOM     19  C   UNL     1       0.679   9.504  21.583  0.00  0.00    +0.000 A 
ATOM     20  C   UNL     1       0.499  10.739  20.941  0.00  0.00    +0.000 A 
ATOM     21  C   UNL     1       0.837  10.888  19.605  0.00  0.00    +0.000 A 
ATOM     22  C   UNL     1       1.308   9.784  18.890  0.00  0.00    +0.000 A 
ATOM     23  C   UNL     1       1.493   8.512  19.507  0.00  0.00    +0.000 A 
ATOM     24  C   UNL     1       1.189   8.391  20.864  0.00  0.00    +0.000 A 
ENDBRANCH  17  23
ENDBRANCH   1  17
TORSDOF 3
ENDMDL
MODEL 3
REMARK VINA RESULT:      -7.7      1.815      2.162
REMARK  Name = 
REMARK  4 active torsions:
REMARK  status: ('A' for Active; 'I' for Inactive)
REMARK    1  A    between atoms: C_1  and  C_2
REMARK    2  A    between atoms: C_6  and  C_7
REMARK    3  A    between atoms: C_7  and  N_8
REMARK    4  A    between atoms: C_19  and  C_20
REMARK                            x       y       z     vdW  Elec       q    Type
REMARK                         _______ _______ _______ _____ _____    ______ ____
ROOT
ATOM      1  N   UNL     1       2.354   6.110  19.248  0.00  0.00    +0.000 N 
ATOM      2  C   UNL     1       1.623   5.000  19.808  0.00  0.00    +0.000 C 
ATOM      3  O   UNL     1       1.068   4.979  20.904  0.00  0.00    +0.000 OA
ATOM      4  C   UNL     1       1.631   3.818  18.870  0.00  0.00    +0.000 C 
ATOM      5  C   UNL     1       0.938   2.530  19.289  0.00  0.00    +0.000 C 
ATOM      6  C   UNL     1       1.685   1.448  18.478  0.00  0.00    +0.000 C 
ATOM      7  C   UNL     1       2.919   2.157  17.887  0.00  0.00    +0.000 C 
ATOM      8  N   UNL     1       2.999   3.338  18.737  0.00  0.00    +0.000 N 
ATOM      9  C   UNL     1       3.967   4.315  18.619  0.00  0.00    +0.000 A 
ATOM     10  C   UNL     1       5.312   3.932  18.603  0.00  0.00    +0.000 A 
ATOM     11  C   UNL     1       6.304   4.854  18.311  0.00  0.00    +0.000 A 
ATOM     12  C   UNL     1       5.938   6.158  17.962  0.00  0.00    +0.000 A 
ATOM     13  C   UNL     1       4.612   6.603  18.179  0.00  0.00    +0.000 A 
ATOM     14  C   UNL     1       3.639   5.707  18.647  0.00  0.00    +0.000 A 
ENDROOT
BRANCH  12  15
ATOM     15  C   UNL     1       6.934   7.013  17.337  0.00  0.00    +0.000 C 
ATOM     16  N   UNL     1       7.759   7.704  16.905  0.00  0.00    +0.000 NA
ENDBRANCH  12  15
BRANCH   1  17
ATOM     17  C   UNL     1       2.268   7.312  20.085  0.00  0.00    +0.000 C 
BRANCH  17  23
ATOM     18  C   UNL     1      -0.901  11.322  20.983  0.00  0.00    +0.000 C 
ATOM     19  C   UNL     1      -0.019  10.470  20.108  0.00  0.00    +0.000 A 
ATOM     20  C   UNL     1       0.116  10.837  18.760  0.00  0.00    +0.000 A 
ATOM     21  C   UNL     1       0.939  10.109  17.916  0.00  0.00    +0.000 A 
ATOM     22  C   UNL     1       1.593   8.975  18.407  0.00  0.00    +0.000 A 
ATOM     23  C   UNL     1       1.470   8.567  19.767  0.00  0.00    +0.000 A 
ATOM     24  C   UNL     1       0.671   9.338  20.613  0.00  0.00    +0.000 A 
ENDBRANCH  17  23
ENDBRANCH   1  17
TORSDOF 3
ENDMDL
MODEL 4
REMARK VINA RESULT:      -7.6      1.976      2.200
REMARK  Name = 
REMARK  4 active torsions:
REMARK  status: ('A' for Active; 'I' for Inactive)
REMARK    1  A    between atoms: C_1  and  C_2
REMARK    2  A    between atoms: C_6  and  C_7
REMARK    3  A    between atoms: C_7  and  N_8
REMARK    4  A    between atoms: C_19  and  C_20
REMARK                            x       y       z     vdW  Elec       q    Type
REMARK                         _______ _______ _______ _____ _____    ______ ____
ROOT
ATOM      1  N   UNL     1       2.440   6.200  19.264  0.00  0.00    +0.000 N 
ATOM      2  C   UNL     1       1.640   5.142  19.830  0.00  0.00    +0.000 C 
ATOM      3  O   UNL     1       1.112   5.148  20.940  0.00  0.00    +0.000 OA
ATOM      4  C   UNL     1       1.534   3.975  18.878  0.00  0.00    +0.000 C 
ATOM      5  C   UNL     1       0.755   2.739  19.300  0.00  0.00    +0.000 C 
ATOM      6  C   UNL     1       1.397   1.614  18.457  0.00  0.00    +0.000 C 
ATOM      7  C   UNL     1       2.666   2.235  17.842  0.00  0.00    +0.000 C 
ATOM      8  N   UNL     1       2.857   3.394  18.704  0.00  0.00    +0.000 N 
ATOM      9  C   UNL     1       3.894   4.297  18.573  0.00  0.00    +0.000 A 
ATOM     10  C   UNL     1       5.205   3.812  18.517  0.00  0.00    +0.000 A 
ATOM     11  C   UNL     1       6.257   4.661  18.210  0.00  0.00    +0.000 A 
ATOM     12  C   UNL     1       5.983   5.993  17.886  0.00  0.00    +0.000 A 
ATOM     13  C   UNL     1       4.701   6.534  18.144  0.00  0.00    +0.000 A 
ATOM     14  C   UNL     1       3.674   5.709  18.625  0.00  0.00    +0.000 A 
ENDROOT
BRANCH  12  15
ATOM     15  C   UNL     1       7.026   6.778  17.246  0.00  0.00    +0.000 C 
ATOM     16  N   UNL     1       7.848   7.455  16.788  0.00  0.00    +0.000 NA
ENDBRANCH  12  15
BRANCH   1  17
ATOM     17  C   UNL     1       2.466   7.393  20.118  0.00  0.00    +0.000 C 
BRANCH  17  23
ATOM     18  C   UNL     1      -0.632  11.178  18.384  0.00  0.00    +0.000 C 
ATOM     19  C   UNL     1      -0.091  10.261  19.449  0.00  0.00    +0.000 A 
ATOM     20  C   UNL     1      -0.615  10.381  20.745  0.00  0.00    +0.000 A 
ATOM     21  C   UNL     1      -0.178   9.542  21.758  0.00  0.00    +0.000 A 
ATOM     22  C   UNL     1       0.828   8.609  21.488  0.00  0.00    +0.000 A 
ATOM     23  C   UNL     1       1.391   8.467  20.186  0.00  0.00    +0.000 A 
ATOM     24  C   UNL     1       0.908   9.292  19.169  0.00  0.00    +0.000 A 
ENDBRANCH  17  23
ENDBRANCH   1  17
TORSDOF 3
ENDMDL
MODEL 5
REMARK VINA RESULT:      -7.5      0.751      1.420
REMARK  Name = 
REMARK  4 active torsions:
REMARK  status: ('A' for Active; 'I' for Inactive)
REMARK    1  A    between atoms: C_1  and  C_2
REMARK    2  A    between atoms: C_6  and  C_7
REMARK    3  A    between atoms: C_7  and  N_8
REMARK    4  A    between atoms: C_19  and  C_20
REMARK                            x       y       z     vdW  Elec       q    Type
REMARK                         _______ _______ _______ _____ _____    ______ ____
ROOT
ATOM      1  N   UNL     1       2.626   6.536  18.338  0.00  0.00    +0.000 N 
ATOM      2  C   UNL     1       2.019   6.118  19.577  0.00  0.00    +0.000 C 
ATOM      3  O   UNL     1       1.717   6.849  20.518  0.00  0.00    +0.000 OA
ATOM      4  C   UNL     1       1.802   4.624  19.597  0.00  0.00    +0.000 C 
ATOM      5  C   UNL     1       1.198   3.976  20.833  0.00  0.00    +0.000 C 
ATOM      6  C   UNL     1       1.732   2.528  20.768  0.00  0.00    +0.000 C 
ATOM      7  C   UNL     1       2.817   2.540  19.674  0.00  0.00    +0.000 C 
ATOM      8  N   UNL     1       3.099   3.965  19.573  0.00  0.00    +0.000 N 
ATOM      9  C   UNL     1       4.033   4.513  18.716  0.00  0.00    +0.000 A 
ATOM     10  C   UNL     1       5.335   4.003  18.724  0.00  0.00    +0.000 A 
ATOM     11  C   UNL     1       6.253   4.400  17.764  0.00  0.00    +0.000 A 
ATOM     12  C   UNL     1       5.839   5.261  16.743  0.00  0.00    +0.000 A 
ATOM     13  C   UNL     1       4.600   5.937  16.847  0.00  0.00    +0.000 A 
ATOM     14  C   UNL     1       3.740   5.666  17.921  0.00  0.00    +0.000 A 
ENDROOT
BRANCH  12  15
ATOM     15  C   UNL     1       6.687   5.401  15.570  0.00  0.00    +0.000 C 
ATOM     16  N   UNL     1       7.421   5.519  14.680  0.00  0.00    +0.000 NA
ENDBRANCH  12  15
BRANCH   1  17
ATOM     17  C   UNL     1       2.743   7.996  18.242  0.00  0.00    +0.000 C 
BRANCH  17  23
ATOM     18  C   UNL     1       0.242  11.748  20.809  0.00  0.00    +0.000 C 
ATOM     19  C   UNL     1       0.400  10.758  19.686  0.00  0.00    +0.000 A 
ATOM     20  C   UNL     1      -0.617  10.696  18.720  0.00  0.00    +0.000 A 
ATOM     21  C   UNL     1      -0.511   9.827  17.646  0.00  0.00    +0.000 A 
ATOM     22  C   UNL     1       0.594   8.975  17.561  0.00  0.00    +0.000 A 
ATOM     23  C   UNL     1       1.640   9.002  18.530  0.00  0.00    +0.000 A 
ATOM     24  C   UNL     1       1.537   9.915  19.581  0.00  0.00    +0.000 A 
ENDBRANCH  17  23
ENDBRANCH   1  17
TORSDOF 3
ENDMDL
MODEL 6
REMARK VINA RESULT:      -7.5      1.988      4.534
REMARK  Name = 
REMARK  4 active torsions:
REMARK  status: ('A' for Active; 'I' for Inactive)
REMARK    1  A    between atoms: C_1  and  C_2
REMARK    2  A    between atoms: C_6  and  C_7
REMARK    3  A    between atoms: C_7  and  N_8
REMARK    4  A    between atoms: C_19  and  C_20
REMARK                            x       y       z     vdW  Elec       q    Type
REMARK                         _______ _______ _______ _____ _____    ______ ____
ROOT
ATOM      1  N   UNL     1       3.281   6.725  18.683  0.00  0.00    +0.000 N 
ATOM      2  C   UNL     1       4.091   6.964  17.515  0.00  0.00    +0.000 C 
ATOM      3  O   UNL     1       3.741   7.566  16.502  0.00  0.00    +0.000 OA
ATOM      4  C   UNL     1       5.464   6.358  17.675  0.00  0.00    +0.000 C 
ATOM      5  C   UNL     1       6.467   6.474  16.536  0.00  0.00    +0.000 C 
ATOM      6  C   UNL     1       7.394   5.258  16.759  0.00  0.00    +0.000 C 
ATOM      7  C   UNL     1       6.688   4.392  17.820  0.00  0.00    +0.000 C 
ATOM      8  N   UNL     1       5.329   4.910  17.747  0.00  0.00    +0.000 N 
ATOM      9  C   UNL     1       4.278   4.446  18.513  0.00  0.00    +0.000 A 
ATOM     10  C   UNL     1       4.018   3.072  18.536  0.00  0.00    +0.000 A 
ATOM     11  C   UNL     1       3.092   2.545  19.423  0.00  0.00    +0.000 A 
ATOM     12  C   UNL     1       2.474   3.395  20.345  0.00  0.00    +0.000 A 
ATOM     13  C   UNL     1       2.573   4.798  20.190  0.00  0.00    +0.000 A 
ATOM     14  C   UNL     1       3.376   5.337  19.174  0.00  0.00    +0.000 A 
ENDROOT
BRANCH  12  15
ATOM     15  C   UNL     1       1.777   2.801  21.474  0.00  0.00    +0.000 C 
ATOM     16  N   UNL     1       1.218   2.395  22.405  0.00  0.00    +0.000 NA
ENDBRANCH  12  15
BRANCH   1  17
ATOM     17  C   UNL     1       1.981   7.400  18.606  0.00  0.00    +0.000 C 
BRANCH  17  23
ATOM     18  C   UNL     1       0.276  12.114  19.946  0.00  0.00    +0.000 C 
ATOM     19  C   UNL     1       0.695  10.698  20.241  0.00  0.00    +0.000 A 
ATOM     20  C   UNL     1       0.663  10.271  21.578  0.00  0.00    +0.000 A 
ATOM     21  C   UNL     1       1.006   8.970  21.905  0.00  0.00    +0.000 A 
ATOM     22  C   UNL     1       1.435   8.100  20.897  0.00  0.00    +0.000 A 
ATOM     23  C   UNL     1       1.490   8.503  19.531  0.00  0.00    +0.000 A 
ATOM     24  C   UNL     1       1.099   9.805  19.215  0.00  0.00    +0.000 A 
ENDBRANCH  17  23
ENDBRANCH   1  17
TORSDOF 3
ENDMDL
MODEL 7
REMARK VINA RESULT:      -7.2      3.818      8.397
REMARK  Name = 
REMARK  4 active torsions:
REMARK  status: ('A' for Active; 'I' for Inactive)
REMARK    1  A    between atoms: C_1  and  C_2
REMARK    2  A    between atoms: C_6  and  C_7
REMARK    3  A    between atoms: C_7  and  N_8
REMARK    4  A    between atoms: C_19  and  C_20
REMARK                            x       y       z     vdW  Elec       q    Type
REMARK                         _______ _______ _______ _____ _____    ______ ____
ROOT
ATOM      1  N   UNL     1      -0.175  10.767  20.588  0.00  0.00    +0.000 N 
ATOM      2  C   UNL     1      -0.296  11.458  21.848  0.00  0.00    +0.000 C 
ATOM      3  O   UNL     1      -0.227  10.946  22.963  0.00  0.00    +0.000 OA
ATOM      4  C   UNL     1      -0.542  12.932  21.635  0.00  0.00    +0.000 C 
ATOM      5  C   UNL     1      -0.729  13.837  22.843  0.00  0.00    +0.000 C 
ATOM      6  C   UNL     1      -1.573  15.004  22.281  0.00  0.00    +0.000 C 
ATOM      7  C   UNL     1      -2.039  14.539  20.889  0.00  0.00    +0.000 C 
ATOM      8  N   UNL     1      -1.835  13.100  20.989  0.00  0.00    +0.000 N 
ATOM      9  C   UNL     1      -2.120  12.203  19.979  0.00  0.00    +0.000 A 
ATOM     10  C   UNL     1      -3.389  12.232  19.391  0.00  0.00    +0.000 A 
ATOM     11  C   UNL     1      -3.659  11.475  18.262  0.00  0.00    +0.000 A 
ATOM     12  C   UNL     1      -2.627  10.737  17.675  0.00  0.00    +0.000 A 
ATOM     13  C   UNL     1      -1.413  10.538  18.375  0.00  0.00    +0.000 A 
ATOM     14  C   UNL     1      -1.205  11.167  19.611  0.00  0.00    +0.000 A 
ENDROOT
BRANCH  12  15
ATOM     15  C   UNL     1      -2.820  10.228  16.327  0.00  0.00    +0.000 C 
ATOM     16  N   UNL     1      -2.961   9.754  15.278  0.00  0.00    +0.000 NA
ENDBRANCH  12  15
BRANCH   1  17
ATOM     17  C   UNL     1       0.179   9.354  20.761  0.00  0.00    +0.000 C 
BRANCH  17  23
ATOM     18  C   UNL     1       3.477   5.522  19.592  0.00  0.00    +0.000 C 
ATOM     19  C   UNL     1       2.759   6.816  19.310  0.00  0.00    +0.000 A 
ATOM     20  C   UNL     1       3.035   7.467  18.097  0.00  0.00    +0.000 A 
ATOM     21  C   UNL     1       2.380   8.643  17.770  0.00  0.00    +0.000 A 
ATOM     22  C   UNL     1       1.481   9.203  18.682  0.00  0.00    +0.000 A 
ATOM     23  C   UNL     1       1.185   8.575  19.927  0.00  0.00    +0.000 A 
ATOM     24  C   UNL     1       1.822   7.368  20.221  0.00  0.00    +0.000 A 
ENDBRANCH  17  23
ENDBRANCH   1  17
TORSDOF 3
ENDMDL
MODEL 8
REMARK VINA RESULT:      -7.1      3.261      8.027
REMARK  Name = 
REMARK  4 active torsions:
REMARK  status: ('A' for Active; 'I' for Inactive)
REMARK    1  A    between atoms: C_1  and  C_2
REMARK    2  A    between atoms: C_6  and  C_7
REMARK    3  A    between atoms: C_7  and  N_8
REMARK    4  A    between atoms: C_19  and  C_20
REMARK                            x       y       z     vdW  Elec       q    Type
REMARK                         _______ _______ _______ _____ _____    ______ ____
ROOT
ATOM      1  N   UNL     1       0.681  10.391  19.681  0.00  0.00    +0.000 N 
ATOM      2  C   UNL     1       0.886  11.210  20.850  0.00  0.00    +0.000 C 
ATOM      3  O   UNL     1       1.074  10.804  21.994  0.00  0.00    +0.000 OA
ATOM      4  C   UNL     1       0.824  12.677  20.499  0.00  0.00    +0.000 C 
ATOM      5  C   UNL     1       0.986  13.713  21.601  0.00  0.00    +0.000 C 
ATOM      6  C   UNL     1       0.236  14.943  21.041  0.00  0.00    +0.000 C 
ATOM      7  C   UNL     1      -0.530  14.429  19.808  0.00  0.00    +0.000 C 
ATOM      8  N   UNL     1      -0.524  12.993  20.051  0.00  0.00    +0.000 N 
ATOM      9  C   UNL     1      -1.110  12.061  19.216  0.00  0.00    +0.000 A 
ATOM     10  C   UNL     1      -2.444  12.242  18.838  0.00  0.00    +0.000 A 
ATOM     11  C   UNL     1      -3.017  11.435  17.868  0.00  0.00    +0.000 A 
ATOM     12  C   UNL     1      -2.223  10.483  17.220  0.00  0.00    +0.000 A 
ATOM     13  C   UNL     1      -0.947  10.156  17.738  0.00  0.00    +0.000 A 
ATOM     14  C   UNL     1      -0.435  10.859  18.839  0.00  0.00    +0.000 A 
ENDROOT
BRANCH  12  15
ATOM     15  C   UNL     1      -2.722   9.885  15.993  0.00  0.00    +0.000 C 
ATOM     16  N   UNL     1      -3.150   9.473  14.997  0.00  0.00    +0.000 NA
ENDBRANCH  12  15
BRANCH   1  17
ATOM     17  C   UNL     1       0.850   8.962  19.969  0.00  0.00    +0.000 C 
BRANCH  17  23
ATOM     18  C   UNL     1       3.877   4.774  19.493  0.00  0.00    +0.000 C 
ATOM     19  C   UNL     1       3.329   6.100  19.035  0.00  0.00    +0.000 A 
ATOM     20  C   UNL     1       3.814   6.628  17.829  0.00  0.00    +0.000 A 
ATOM     21  C   UNL     1       3.323   7.829  17.343  0.00  0.00    +0.000 A 
ATOM     22  C   UNL     1       2.377   8.535  18.091  0.00  0.00    +0.000 A 
ATOM     23  C   UNL     1       1.870   8.035  19.326  0.00  0.00    +0.000 A 
ATOM     24  C   UNL     1       2.344   6.802  19.778  0.00  0.00    +0.000 A 
ENDBRANCH  17  23
ENDBRANCH   1  17
TORSDOF 3
ENDMDL
MODEL 9
REMARK VINA RESULT:      -6.9      3.922      8.400
REMARK  Name = 
REMARK  4 active torsions:
REMARK  status: ('A' for Active; 'I' for Inactive)
REMARK    1  A    between atoms: C_1  and  C_2
REMARK    2  A    between atoms: C_6  and  C_7
REMARK    3  A    between atoms: C_7  and  N_8
REMARK    4  A    between atoms: C_19  and  C_20
REMARK                            x       y       z     vdW  Elec       q    Type
REMARK                         _______ _______ _______ _____ _____    ______ ____
ROOT
ATOM      1  N   UNL     1      -0.239  10.668  20.885  0.00  0.00    +0.000 N 
ATOM      2  C   UNL     1      -0.392  11.450  22.086  0.00  0.00    +0.000 C 
ATOM      3  O   UNL     1      -0.439  11.012  23.234  0.00  0.00    +0.000 OA
ATOM      4  C   UNL     1      -0.510  12.920  21.764  0.00  0.00    +0.000 C 
ATOM      5  C   UNL     1      -0.709  13.916  22.896  0.00  0.00    +0.000 C 
ATOM      6  C   UNL     1      -1.420  15.099  22.202  0.00  0.00    +0.000 C 
ATOM      7  C   UNL     1      -1.825  14.576  20.811  0.00  0.00    +0.000 C 
ATOM      8  N   UNL     1      -1.739  13.136  21.016  0.00  0.00    +0.000 N 
ATOM      9  C   UNL     1      -2.023  12.195  20.046  0.00  0.00    +0.000 A 
ATOM     10  C   UNL     1      -3.242  12.275  19.367  0.00  0.00    +0.000 A 
ATOM     11  C   UNL     1      -3.493  11.464  18.271  0.00  0.00    +0.000 A 
ATOM     12  C   UNL     1      -2.483  10.616  17.808  0.00  0.00    +0.000 A 
ATOM     13  C   UNL     1      -1.338  10.378  18.606  0.00  0.00    +0.000 A 
ATOM     14  C   UNL     1      -1.167  11.073  19.812  0.00  0.00    +0.000 A 
ENDROOT
BRANCH  12  15
ATOM     15  C   UNL     1      -2.622  10.031  16.484  0.00  0.00    +0.000 C 
ATOM     16  N   UNL     1      -2.762   9.628  15.406  0.00  0.00    +0.000 NA
ENDBRANCH  12  15
BRANCH   1  17
ATOM     17  C   UNL     1      -0.007   9.247  21.172  0.00  0.00    +0.000 C 
BRANCH  17  23
ATOM     18  C   UNL     1       3.339   7.802  17.479  0.00  0.00    +0.000 C 
ATOM     19  C   UNL     1       2.533   7.576  18.731  0.00  0.00    +0.000 A 
ATOM     20  C   UNL     1       2.639   6.327  19.361  0.00  0.00    +0.000 A 
ATOM     21  C   UNL     1       1.946   6.074  20.534  0.00  0.00    +0.000 A 
ATOM     22  C   UNL     1       1.100   7.057  21.056  0.00  0.00    +0.000 A 
ATOM     23  C   UNL     1       0.960   8.333  20.436  0.00  0.00    +0.000 A 
ATOM     24  C   UNL     1       1.699   8.585  19.279  0.00  0.00    +0.000 A 
ENDBRANCH  17  23
ENDBRANCH   1  17
TORSDOF 3
ENDMDL
