MODEL 1
REMARK VINA RESULT:      -6.5      0.000      0.000
REMARK  Name = 
REMARK  4 active torsions:
REMARK  status: ('A' for Active; 'I' for Inactive)
REMARK    1  A    between atoms: C_1  and  O_2
REMARK    2  A    between atoms: O_2  and  C_3
REMARK    3  A    between atoms: C_8  and  S_9
REMARK    4  A    between atoms: S_9  and  C_10
REMARK                            x       y       z     vdW  Elec       q    Type
REMARK                         _______ _______ _______ _____ _____    ______ ____
ROOT
ATOM      1  C   UNL     1       7.218   7.338  17.624  0.00  0.00    +0.000 A 
ATOM      2  C   UNL     1       7.901   6.560  18.551  0.00  0.00    +0.000 A 
ATOM      3  C   UNL     1       7.267   5.468  19.146  0.00  0.00    +0.000 A 
ATOM      4  C   UNL     1       5.962   5.130  18.814  0.00  0.00    +0.000 A 
ATOM      5  N   UNL     1       5.372   4.080  19.419  0.00  0.00    +0.000 NA
ATOM      6  C   UNL     1       4.097   3.788  19.057  0.00  0.00    +0.000 A 
ATOM      7  C   UNL     1       3.445   4.550  18.088  0.00  0.00    +0.000 A 
ATOM      8 CL   UNL     1       1.836   4.268  17.546  0.00  0.00    +0.000 Cl
ATOM      9  N   UNL     1       4.023   5.610  17.472  0.00  0.00    +0.000 NA
ATOM     10  C   UNL     1       5.279   5.901  17.843  0.00  0.00    +0.000 A 
ATOM     11  C   UNL     1       5.919   6.987  17.260  0.00  0.00    +0.000 A 
ENDROOT
BRANCH   1  13
ATOM     12  C   UNL     1       8.351   9.361  18.052  0.00  0.00    +0.000 C 
ATOM     13  O   UNL     1       7.918   8.390  17.101  0.00  0.00    +0.000 OA
ENDBRANCH   1  13
BRANCH   6  14
ATOM     14  S   UNL     1       3.321   2.401  19.879  0.00  0.00    +0.000 S 
ATOM     15  C   UNL     1       2.353   3.259  21.148  0.00  0.00    +0.000 C 
ENDBRANCH   6  14
TORSDOF 2
ENDMDL
MODEL 2
REMARK VINA RESULT:      -6.5      3.940      6.036
REMARK  Name = 
REMARK  4 active torsions:
REMARK  status: ('A' for Active; 'I' for Inactive)
REMARK    1  A    between atoms: C_1  and  O_2
REMARK    2  A    between atoms: O_2  and  C_3
REMARK    3  A    between atoms: C_8  and  S_9
REMARK    4  A    between atoms: S_9  and  C_10
REMARK                            x       y       z     vdW  Elec       q    Type
REMARK                         _______ _______ _______ _____ _____    ______ ____
ROOT
ATOM      1  C   UNL     1       2.273   2.747  19.570  0.00  0.00    +0.000 A 
ATOM      2  C   UNL     1       1.859   2.567  18.256  0.00  0.00    +0.000 A 
ATOM      3  C   UNL     1       2.686   2.963  17.203  0.00  0.00    +0.000 A 
ATOM      4  C   UNL     1       3.934   3.522  17.445  0.00  0.00    +0.000 A 
ATOM      5  N   UNL     1       4.702   3.909  16.409  0.00  0.00    +0.000 NA
ATOM      6  C   UNL     1       5.914   4.446  16.696  0.00  0.00    +0.000 A 
ATOM      7  C   UNL     1       6.334   4.573  18.021  0.00  0.00    +0.000 A 
ATOM      8 CL   UNL     1       7.850   5.230  18.503  0.00  0.00    +0.000 Cl
ATOM      9  N   UNL     1       5.573   4.191  19.075  0.00  0.00    +0.000 NA
ATOM     10  C   UNL     1       4.370   3.672  18.783  0.00  0.00    +0.000 A 
ATOM     11  C   UNL     1       3.538   3.277  19.822  0.00  0.00    +0.000 A 
ENDROOT
BRANCH   1  13
ATOM     12  C   UNL     1       1.671   2.812  21.848  0.00  0.00    +0.000 C 
ATOM     13  O   UNL     1       1.393   2.336  20.532  0.00  0.00    +0.000 OA
ENDBRANCH   1  13
BRANCH   6  14
ATOM     14  S   UNL     1       6.917   4.971  15.310  0.00  0.00    +0.000 S 
ATOM     15  C   UNL     1       6.212   3.959  13.983  0.00  0.00    +0.000 C 
ENDBRANCH   6  14
TORSDOF 2
ENDMDL
MODEL 3
REMARK VINA RESULT:      -6.3      2.126      2.540
REMARK  Name = 
REMARK  4 active torsions:
REMARK  status: ('A' for Active; 'I' for Inactive)
REMARK    1  A    between atoms: C_1  and  O_2
REMARK    2  A    between atoms: O_2  and  C_3
REMARK    3  A    between atoms: C_8  and  S_9
REMARK    4  A    between atoms: S_9  and  C_10
REMARK                            x       y       z     vdW  Elec       q    Type
REMARK                         _______ _______ _______ _____ _____    ______ ____
ROOT
ATOM      1  C   UNL     1       6.717   5.185  16.088  0.00  0.00    +0.000 A 
ATOM      2  C   UNL     1       7.147   5.844  17.234  0.00  0.00    +0.000 A 
ATOM      3  C   UNL     1       6.339   5.864  18.373  0.00  0.00    +0.000 A 
ATOM      4  C   UNL     1       5.110   5.218  18.389  0.00  0.00    +0.000 A 
ATOM      5  N   UNL     1       4.346   5.270  19.497  0.00  0.00    +0.000 NA
ATOM      6  C   UNL     1       3.155   4.620  19.464  0.00  0.00    +0.000 A 
ATOM      7  C   UNL     1       2.762   3.923  18.322  0.00  0.00    +0.000 A 
ATOM      8 CL   UNL     1       1.281   3.058  18.170  0.00  0.00    +0.000 Cl
ATOM      9  N   UNL     1       3.517   3.863  17.198  0.00  0.00    +0.000 NA
ATOM     10  C   UNL     1       4.688   4.518  17.233  0.00  0.00    +0.000 A 
ATOM     11  C   UNL     1       5.499   4.507  16.106  0.00  0.00    +0.000 A 
ENDROOT
BRANCH   1  13
ATOM     12  C   UNL     1       7.006   4.824  13.777  0.00  0.00    +0.000 C 
ATOM     13  O   UNL     1       7.572   5.226  15.023  0.00  0.00    +0.000 OA
ENDBRANCH   1  13
BRANCH   6  14
ATOM     14  S   UNL     1       2.143   4.710  20.938  0.00  0.00    +0.000 S 
ATOM     15  C   UNL     1       2.321   3.022  21.572  0.00  0.00    +0.000 C 
ENDBRANCH   6  14
TORSDOF 2
ENDMDL
MODEL 4
REMARK VINA RESULT:      -6.2      1.669      2.391
REMARK  Name = 
REMARK  4 active torsions:
REMARK  status: ('A' for Active; 'I' for Inactive)
REMARK    1  A    between atoms: C_1  and  O_2
REMARK    2  A    between atoms: O_2  and  C_3
REMARK    3  A    between atoms: C_8  and  S_9
REMARK    4  A    between atoms: S_9  and  C_10
REMARK                            x       y       z     vdW  Elec       q    Type
REMARK                         _______ _______ _______ _____ _____    ______ ____
ROOT
ATOM      1  C   UNL     1       6.619   6.648  17.274  0.00  0.00    +0.000 A 
ATOM      2  C   UNL     1       5.407   7.012  16.699  0.00  0.00    +0.000 A 
ATOM      3  C   UNL     1       4.254   6.276  16.978  0.00  0.00    +0.000 A 
ATOM      4  C   UNL     1       4.290   5.187  17.840  0.00  0.00    +0.000 A 
ATOM      5  N   UNL     1       3.164   4.487  18.075  0.00  0.00    +0.000 NA
ATOM      6  C   UNL     1       3.250   3.435  18.928  0.00  0.00    +0.000 A 
ATOM      7  C   UNL     1       4.466   3.115  19.534  0.00  0.00    +0.000 A 
ATOM      8 CL   UNL     1       4.692   1.811  20.634  0.00  0.00    +0.000 Cl
ATOM      9  N   UNL     1       5.608   3.807  19.306  0.00  0.00    +0.000 NA
ATOM     10  C   UNL     1       5.518   4.839  18.452  0.00  0.00    +0.000 A 
ATOM     11  C   UNL     1       6.659   5.577  18.165  0.00  0.00    +0.000 A 
ENDROOT
BRANCH   1  13
ATOM     12  C   UNL     1       7.987   8.480  17.848  0.00  0.00    +0.000 C 
ATOM     13  O   UNL     1       7.693   7.423  16.936  0.00  0.00    +0.000 OA
ENDBRANCH   1  13
BRANCH   6  14
ATOM     14  S   UNL     1       1.750   2.504  19.219  0.00  0.00    +0.000 S 
ATOM     15  C   UNL     1       1.300   3.099  20.870  0.00  0.00    +0.000 C 
ENDBRANCH   6  14
TORSDOF 2
ENDMDL
MODEL 5
REMARK VINA RESULT:      -6.0      1.899      2.137
REMARK  Name = 
REMARK  4 active torsions:
REMARK  status: ('A' for Active; 'I' for Inactive)
REMARK    1  A    between atoms: C_1  and  O_2
REMARK    2  A    between atoms: O_2  and  C_3
REMARK    3  A    between atoms: C_8  and  S_9
REMARK    4  A    between atoms: S_9  and  C_10
REMARK                            x       y       z     vdW  Elec       q    Type
REMARK                         _______ _______ _______ _____ _____    ______ ____
ROOT
ATOM      1  C   UNL     1       6.834   6.222  17.001  0.00  0.00    +0.000 A 
ATOM      2  C   UNL     1       6.729   5.151  16.121  0.00  0.00    +0.000 A 
ATOM      3  C   UNL     1       5.811   4.129  16.373  0.00  0.00    +0.000 A 
ATOM      4  C   UNL     1       4.982   4.170  17.485  0.00  0.00    +0.000 A 
ATOM      5  N   UNL     1       4.118   3.161  17.709  0.00  0.00    +0.000 NA
ATOM      6  C   UNL     1       3.326   3.249  18.807  0.00  0.00    +0.000 A 
ATOM      7  C   UNL     1       3.411   4.356  19.652  0.00  0.00    +0.000 A 
ATOM      8 CL   UNL     1       2.453   4.579  21.065  0.00  0.00    +0.000 Cl
ATOM      9  N   UNL     1       4.275   5.379  19.443  0.00  0.00    +0.000 NA
ATOM     10  C   UNL     1       5.064   5.279  18.362  0.00  0.00    +0.000 A 
ATOM     11  C   UNL     1       5.983   6.288  18.103  0.00  0.00    +0.000 A 
ENDROOT
BRANCH   1  13
ATOM     12  C   UNL     1       7.852   8.267  17.582  0.00  0.00    +0.000 C 
ATOM     13  O   UNL     1       7.765   7.169  16.676  0.00  0.00    +0.000 OA
ENDBRANCH   1  13
BRANCH   6  14
ATOM     14  S   UNL     1       2.195   1.894  19.101  0.00  0.00    +0.000 S 
ATOM     15  C   UNL     1       0.610   2.695  18.742  0.00  0.00    +0.000 C 
ENDBRANCH   6  14
TORSDOF 2
ENDMDL
MODEL 6
REMARK VINA RESULT:      -6.0      2.212      2.606
REMARK  Name = 
REMARK  4 active torsions:
REMARK  status: ('A' for Active; 'I' for Inactive)
REMARK    1  A    between atoms: C_1  and  O_2
REMARK    2  A    between atoms: O_2  and  C_3
REMARK    3  A    between atoms: C_8  and  S_9
REMARK    4  A    between atoms: S_9  and  C_10
REMARK                            x       y       z     vdW  Elec       q    Type
REMARK                         _______ _______ _______ _____ _____    ______ ____
ROOT
ATOM      1  C   UNL     1       6.843   4.954  15.870  0.00  0.00    +0.000 A 
ATOM      2  C   UNL     1       7.520   5.117  17.073  0.00  0.00    +0.000 A 
ATOM      3  C   UNL     1       6.917   4.732  18.272  0.00  0.00    +0.000 A 
ATOM      4  C   UNL     1       5.648   4.168  18.284  0.00  0.00    +0.000 A 
ATOM      5  N   UNL     1       5.086   3.821  19.458  0.00  0.00    +0.000 NA
ATOM      6  C   UNL     1       3.846   3.270  19.418  0.00  0.00    +0.000 A 
ATOM      7  C   UNL     1       3.202   3.069  18.197  0.00  0.00    +0.000 A 
ATOM      8 CL   UNL     1       1.637   2.373  18.024  0.00  0.00    +0.000 Cl
ATOM      9  N   UNL     1       3.752   3.413  17.008  0.00  0.00    +0.000 NA
ATOM     10  C   UNL     1       4.973   3.969  17.056  0.00  0.00    +0.000 A 
ATOM     11  C   UNL     1       5.583   4.359  15.871  0.00  0.00    +0.000 A 
ENDROOT
BRANCH   1  13
ATOM     12  C   UNL     1       7.096   4.748  13.536  0.00  0.00    +0.000 C 
ATOM     13  O   UNL     1       7.511   5.368  14.752  0.00  0.00    +0.000 OA
ENDBRANCH   1  13
BRANCH   6  14
ATOM     14  S   UNL     1       3.105   2.829  20.986  0.00  0.00    +0.000 S 
ATOM     15  C   UNL     1       1.986   4.232  21.236  0.00  0.00    +0.000 C 
ENDBRANCH   6  14
TORSDOF 2
ENDMDL
MODEL 7
REMARK VINA RESULT:      -5.9      2.343      2.927
REMARK  Name = 
REMARK  4 active torsions:
REMARK  status: ('A' for Active; 'I' for Inactive)
REMARK    1  A    between atoms: C_1  and  O_2
REMARK    2  A    between atoms: O_2  and  C_3
REMARK    3  A    between atoms: C_8  and  S_9
REMARK    4  A    between atoms: S_9  and  C_10
REMARK                            x       y       z     vdW  Elec       q    Type
REMARK                         _______ _______ _______ _____ _____    ______ ____
ROOT
ATOM      1  C   UNL     1       6.288   5.386  15.967  0.00  0.00    +0.000 A 
ATOM      2  C   UNL     1       5.983   6.558  16.648  0.00  0.00    +0.000 A 
ATOM      3  C   UNL     1       4.970   6.564  17.609  0.00  0.00    +0.000 A 
ATOM      4  C   UNL     1       4.266   5.407  17.913  0.00  0.00    +0.000 A 
ATOM      5  N   UNL     1       3.283   5.448  18.833  0.00  0.00    +0.000 NA
ATOM      6  C   UNL     1       2.627   4.290  19.098  0.00  0.00    +0.000 A 
ATOM      7  C   UNL     1       2.981   3.112  18.440  0.00  0.00    +0.000 A 
ATOM      8 CL   UNL     1       2.226   1.587  18.701  0.00  0.00    +0.000 Cl
ATOM      9  N   UNL     1       3.965   3.053  17.511  0.00  0.00    +0.000 NA
ATOM     10  C   UNL     1       4.602   4.205  17.245  0.00  0.00    +0.000 A 
ATOM     11  C   UNL     1       5.609   4.212  16.289  0.00  0.00    +0.000 A 
ENDROOT
BRANCH   1  13
ATOM     12  C   UNL     1       7.047   4.787  13.817  0.00  0.00    +0.000 C 
ATOM     13  O   UNL     1       7.289   5.479  15.040  0.00  0.00    +0.000 OA
ENDBRANCH   1  13
BRANCH   6  14
ATOM     14  S   UNL     1       1.313   4.364  20.311  0.00  0.00    +0.000 S 
ATOM     15  C   UNL     1       2.075   3.466  21.687  0.00  0.00    +0.000 C 
ENDBRANCH   6  14
TORSDOF 2
ENDMDL
MODEL 8
REMARK VINA RESULT:      -5.9      2.515      3.135
REMARK  Name = 
REMARK  4 active torsions:
REMARK  status: ('A' for Active; 'I' for Inactive)
REMARK    1  A    between atoms: C_1  and  O_2
REMARK    2  A    between atoms: O_2  and  C_3
REMARK    3  A    between atoms: C_8  and  S_9
REMARK    4  A    between atoms: S_9  and  C_10
REMARK                            x       y       z     vdW  Elec       q    Type
REMARK                         _______ _______ _______ _____ _____    ______ ____
ROOT
ATOM      1  C   UNL     1       6.444   5.498  16.042  0.00  0.00    +0.000 A 
ATOM      2  C   UNL     1       5.517   6.534  16.062  0.00  0.00    +0.000 A 
ATOM      3  C   UNL     1       4.483   6.526  17.001  0.00  0.00    +0.000 A 
ATOM      4  C   UNL     1       4.370   5.504  17.933  0.00  0.00    +0.000 A 
ATOM      5  N   UNL     1       3.352   5.516  18.814  0.00  0.00    +0.000 NA
ATOM      6  C   UNL     1       3.287   4.496  19.708  0.00  0.00    +0.000 A 
ATOM      7  C   UNL     1       4.255   3.492  19.704  0.00  0.00    +0.000 A 
ATOM      8 CL   UNL     1       4.279   2.158  20.792  0.00  0.00    +0.000 Cl
ATOM      9  N   UNL     1       5.285   3.463  18.823  0.00  0.00    +0.000 NA
ATOM     10  C   UNL     1       5.335   4.468  17.934  0.00  0.00    +0.000 A 
ATOM     11  C   UNL     1       6.357   4.485  16.995  0.00  0.00    +0.000 A 
ENDROOT
BRANCH   1  13
ATOM     12  C   UNL     1       7.165   4.838  13.897  0.00  0.00    +0.000 C 
ATOM     13  O   UNL     1       7.415   5.589  15.084  0.00  0.00    +0.000 OA
ENDBRANCH   1  13
BRANCH   6  14
ATOM     14  S   UNL     1       1.920   4.517  20.862  0.00  0.00    +0.000 S 
ATOM     15  C   UNL     1       0.831   3.276  20.116  0.00  0.00    +0.000 C 
ENDBRANCH   6  14
TORSDOF 2
ENDMDL
MODEL 9
REMARK VINA RESULT:      -5.9      2.703      3.171
REMARK  Name = 
REMARK  4 active torsions:
REMARK  status: ('A' for Active; 'I' for Inactive)
REMARK    1  A    between atoms: C_1  and  O_2
REMARK    2  A    between atoms: O_2  and  C_3
REMARK    3  A    between atoms: C_8  and  S_9
REMARK    4  A    between atoms: S_9  and  C_10
REMARK                            x       y       z     vdW  Elec       q    Type
REMARK                         _______ _______ _______ _____ _____    ______ ____
ROOT
ATOM      1  C   UNL     1       5.777   5.410  15.863  0.00  0.00    +0.000 A 
ATOM      2  C   UNL     1       5.444   4.061  15.865  0.00  0.00    +0.000 A 
ATOM      3  C   UNL     1       4.476   3.583  16.750  0.00  0.00    +0.000 A 
ATOM      4  C   UNL     1       3.821   4.439  17.625  0.00  0.00    +0.000 A 
ATOM      5  N   UNL     1       2.904   3.945  18.478  0.00  0.00    +0.000 NA
ATOM      6  C   UNL     1       2.288   4.823  19.311  0.00  0.00    +0.000 A 
ATOM      7  C   UNL     1       2.600   6.182  19.259  0.00  0.00    +0.000 A 
ATOM      8 CL   UNL     1       1.880   7.385  20.258  0.00  0.00    +0.000 Cl
ATOM      9  N   UNL     1       3.522   6.695  18.409  0.00  0.00    +0.000 NA
ATOM     10  C   UNL     1       4.135   5.819  17.597  0.00  0.00    +0.000 A 
ATOM     11  C   UNL     1       5.102   6.283  16.715  0.00  0.00    +0.000 A 
ENDROOT
BRANCH   1  13
ATOM     12  C   UNL     1       7.034   4.819  13.959  0.00  0.00    +0.000 C 
ATOM     13  O   UNL     1       6.741   5.783  14.968  0.00  0.00    +0.000 OA
ENDBRANCH   1  13
BRANCH   6  14
ATOM     14  S   UNL     1       1.083   4.150  20.449  0.00  0.00    +0.000 S 
ATOM     15  C   UNL     1       2.169   3.304  21.628  0.00  0.00    +0.000 C 
ENDBRANCH   6  14
TORSDOF 2
ENDMDL
