MODEL 1
REMARK VINA RESULT:      -7.1      0.000      0.000
REMARK  Name = 
REMARK  8 active torsions:
REMARK  status: ('A' for Active; 'I' for Inactive)
REMARK    1  A    between atoms: C_1  and  C_2
REMARK    2  A    between atoms: C_2  and  C_3
REMARK    3  A    between atoms: N_6  and  C_7
REMARK    4  A    between atoms: C_14  and  C_15
REMARK    5  A    between atoms: C_15  and  O_17
REMARK    6  A    between atoms: N_19  and  C_20
REMARK    7  A    between atoms: C_24  and  O_25
REMARK    8  A    between atoms: O_25  and  C_26
REMARK                            x       y       z     vdW  Elec       q    Type
REMARK                         _______ _______ _______ _____ _____    ______ ____
ROOT
ATOM      1  C   UNL     1       4.548   5.692  17.032  0.00  0.00    +0.000 A 
ATOM      2  C   UNL     1       4.296   7.061  16.804  0.00  0.00    +0.000 A 
ATOM      3  F   UNL     1       4.830   7.671  15.732  0.00  0.00    +0.000 F 
ATOM      4  C   UNL     1       3.467   7.823  17.622  0.00  0.00    +0.000 A 
ATOM      5  C   UNL     1       2.841   7.226  18.716  0.00  0.00    +0.000 A 
ATOM      6  C   UNL     1       1.935   8.055  19.554  0.00  0.00    +0.000 A 
ATOM      7  O   UNL     1       1.731   9.242  19.306  0.00  0.00    +0.000 OA
ATOM      8  C   UNL     1       1.277   7.429  20.717  0.00  0.00    +0.000 A 
ATOM      9  C   UNL     1       1.540   6.133  20.929  0.00  0.00    +0.000 A 
ATOM     10  N   UNL     1       2.352   5.320  20.156  0.00  0.00    +0.000 N 
ATOM     11  C   UNL     1       3.058   5.868  19.029  0.00  0.00    +0.000 A 
ATOM     12  C   UNL     1       3.961   5.132  18.200  0.00  0.00    +0.000 A 
ENDROOT
BRANCH   1  16
ATOM     13  C   UNL     1       6.368   4.577  14.022  0.00  0.00    +0.000 C 
ATOM     14  C   UNL     1       7.418   4.580  15.133  0.00  0.00    +0.000 C 
ATOM     15  C   UNL     1       6.598   4.355  16.402  0.00  0.00    +0.000 C 
ATOM     16  N   UNL     1       5.307   4.979  16.112  0.00  0.00    +0.000 N 
ATOM     17  C   UNL     1       5.167   5.285  14.684  0.00  0.00    +0.000 C 
BRANCH  13  19
ATOM     18  C   UNL     1       5.593   3.113  12.084  0.00  0.00    +0.000 C 
ATOM     19  C   UNL     1       6.008   3.159  13.549  0.00  0.00    +0.000 C 
ENDBRANCH  13  19
ENDBRANCH   1  16
BRANCH  10  20
ATOM     20  C   UNL     1       2.455   3.895  20.523  0.00  0.00    +0.000 C 
ATOM     21  C   UNL     1       1.875   3.249  21.756  0.00  0.00    +0.000 C 
ATOM     22  C   UNL     1       1.225   3.019  20.431  0.00  0.00    +0.000 C 
ENDBRANCH  10  20
BRANCH   8  23
ATOM     23  C   UNL     1       0.357   8.137  21.632  0.00  0.00    +0.000 C 
ATOM     24  O   UNL     1      -0.846   7.911  21.686  0.00  0.00    +0.000 OA
BRANCH  23  25
ATOM     25  O   UNL     1       0.947   9.065  22.417  0.00  0.00    +0.000 OA
ATOM     26  H   UNL     1       1.545   9.676  21.925  0.00  0.00    +0.000 HD
ENDBRANCH  23  25
ENDBRANCH   8  23
BRANCH  12  27
ATOM     27  O   UNL     1       4.224   3.820  18.529  0.00  0.00    +0.000 OA
ATOM     28  C   UNL     1       3.587   2.879  17.669  0.00  0.00    +0.000 C 
ENDBRANCH  12  27
TORSDOF 6
ENDMDL
MODEL 2
REMARK VINA RESULT:      -6.8      2.380      7.106
REMARK  Name = 
REMARK  8 active torsions:
REMARK  status: ('A' for Active; 'I' for Inactive)
REMARK    1  A    between atoms: C_1  and  C_2
REMARK    2  A    between atoms: C_2  and  C_3
REMARK    3  A    between atoms: N_6  and  C_7
REMARK    4  A    between atoms: C_14  and  C_15
REMARK    5  A    between atoms: C_15  and  O_17
REMARK    6  A    between atoms: N_19  and  C_20
REMARK    7  A    between atoms: C_24  and  O_25
REMARK    8  A    between atoms: O_25  and  C_26
REMARK                            x       y       z     vdW  Elec       q    Type
REMARK                         _______ _______ _______ _____ _____    ______ ____
ROOT
ATOM      1  C   UNL     1       2.073   7.976  19.193  0.00  0.00    +0.000 A 
ATOM      2  C   UNL     1       2.548   8.609  18.025  0.00  0.00    +0.000 A 
ATOM      3  F   UNL     1       2.150   9.859  17.730  0.00  0.00    +0.000 F 
ATOM      4  C   UNL     1       3.465   8.015  17.164  0.00  0.00    +0.000 A 
ATOM      5  C   UNL     1       3.956   6.741  17.452  0.00  0.00    +0.000 A 
ATOM      6  C   UNL     1       4.959   6.142  16.532  0.00  0.00    +0.000 A 
ATOM      7  O   UNL     1       5.358   6.740  15.534  0.00  0.00    +0.000 OA
ATOM      8  C   UNL     1       5.474   4.792  16.830  0.00  0.00    +0.000 A 
ATOM      9  C   UNL     1       5.001   4.199  17.933  0.00  0.00    +0.000 A 
ATOM     10  N   UNL     1       4.091   4.734  18.830  0.00  0.00    +0.000 N 
ATOM     11  C   UNL     1       3.514   6.029  18.587  0.00  0.00    +0.000 A 
ATOM     12  C   UNL     1       2.529   6.649  19.417  0.00  0.00    +0.000 A 
ENDROOT
BRANCH   1  16
ATOM     13  C   UNL     1       0.705  10.176  21.821  0.00  0.00    +0.000 C 
ATOM     14  C   UNL     1       0.064  10.673  20.525  0.00  0.00    +0.000 C 
ATOM     15  C   UNL     1       0.056   9.435  19.631  0.00  0.00    +0.000 C 
ATOM     16  N   UNL     1       1.236   8.679  20.052  0.00  0.00    +0.000 N 
ATOM     17  C   UNL     1       1.777   9.188  21.316  0.00  0.00    +0.000 C 
BRANCH  13  19
ATOM     18  C   UNL     1      -1.329  10.468  23.331  0.00  0.00    +0.000 C 
ATOM     19  C   UNL     1      -0.305   9.496  22.759  0.00  0.00    +0.000 C 
ENDBRANCH  13  19
ENDBRANCH   1  16
BRANCH  10  20
ATOM     20  C   UNL     1       3.749   3.941  20.026  0.00  0.00    +0.000 C 
ATOM     21  C   UNL     1       2.906   2.691  20.054  0.00  0.00    +0.000 C 
ATOM     22  C   UNL     1       4.386   2.581  20.214  0.00  0.00    +0.000 C 
ENDBRANCH  10  20
BRANCH   8  23
ATOM     23  C   UNL     1       6.469   4.081  16.000  0.00  0.00    +0.000 C 
ATOM     24  O   UNL     1       6.200   3.553  14.928  0.00  0.00    +0.000 OA
BRANCH  23  25
ATOM     25  O   UNL     1       7.717   4.053  16.518  0.00  0.00    +0.000 OA
ATOM     26  H   UNL     1       7.871   4.733  17.216  0.00  0.00    +0.000 HD
ENDBRANCH  23  25
ENDBRANCH   8  23
BRANCH  12  27
ATOM     27  O   UNL     1       2.049   5.940  20.497  0.00  0.00    +0.000 OA
ATOM     28  C   UNL     1       0.751   5.393  20.288  0.00  0.00    +0.000 C 
ENDBRANCH  12  27
TORSDOF 6
ENDMDL
MODEL 3
REMARK VINA RESULT:      -6.8      2.402      7.105
REMARK  Name = 
REMARK  8 active torsions:
REMARK  status: ('A' for Active; 'I' for Inactive)
REMARK    1  A    between atoms: C_1  and  C_2
REMARK    2  A    between atoms: C_2  and  C_3
REMARK    3  A    between atoms: N_6  and  C_7
REMARK    4  A    between atoms: C_14  and  C_15
REMARK    5  A    between atoms: C_15  and  O_17
REMARK    6  A    between atoms: N_19  and  C_20
REMARK    7  A    between atoms: C_24  and  O_25
REMARK    8  A    between atoms: O_25  and  C_26
REMARK                            x       y       z     vdW  Elec       q    Type
REMARK                         _______ _______ _______ _____ _____    ______ ____
ROOT
ATOM      1  C   UNL     1       2.127   8.002  19.359  0.00  0.00    +0.000 A 
ATOM      2  C   UNL     1       2.587   8.695  18.219  0.00  0.00    +0.000 A 
ATOM      3  F   UNL     1       2.230   9.975  18.024  0.00  0.00    +0.000 F 
ATOM      4  C   UNL     1       3.449   8.126  17.287  0.00  0.00    +0.000 A 
ATOM      5  C   UNL     1       3.899   6.818  17.472  0.00  0.00    +0.000 A 
ATOM      6  C   UNL     1       4.845   6.245  16.478  0.00  0.00    +0.000 A 
ATOM      7  O   UNL     1       5.233   6.894  15.508  0.00  0.00    +0.000 OA
ATOM      8  C   UNL     1       5.315   4.860  16.665  0.00  0.00    +0.000 A 
ATOM      9  C   UNL     1       4.856   4.212  17.743  0.00  0.00    +0.000 A 
ATOM     10  N   UNL     1       3.999   4.718  18.706  0.00  0.00    +0.000 N 
ATOM     11  C   UNL     1       3.468   6.047  18.572  0.00  0.00    +0.000 A 
ATOM     12  C   UNL     1       2.537   6.646  19.477  0.00  0.00    +0.000 A 
ENDROOT
BRANCH   1  16
ATOM     13  C   UNL     1      -0.659   9.549  21.220  0.00  0.00    +0.000 C 
ATOM     14  C   UNL     1      -0.030   8.565  22.207  0.00  0.00    +0.000 C 
ATOM     15  C   UNL     1       1.421   8.468  21.741  0.00  0.00    +0.000 C 
ATOM     16  N   UNL     1       1.349   8.675  20.294  0.00  0.00    +0.000 N 
ATOM     17  C   UNL     1       0.037   9.191  19.890  0.00  0.00    +0.000 C 
BRANCH  13  19
ATOM     18  C   UNL     1      -1.167  11.413  22.884  0.00  0.00    +0.000 C 
ATOM     19  C   UNL     1      -0.425  11.016  21.614  0.00  0.00    +0.000 C 
ENDBRANCH  13  19
ENDBRANCH   1  16
BRANCH  10  20
ATOM     20  C   UNL     1       3.668   3.858  19.858  0.00  0.00    +0.000 C 
ATOM     21  C   UNL     1       2.966   2.525  19.801  0.00  0.00    +0.000 C 
ATOM     22  C   UNL     1       4.435   2.570  20.062  0.00  0.00    +0.000 C 
ENDBRANCH  10  20
BRANCH   8  23
ATOM     23  C   UNL     1       6.252   4.170  15.754  0.00  0.00    +0.000 C 
ATOM     24  O   UNL     1       5.940   3.198  15.075  0.00  0.00    +0.000 OA
BRANCH  23  25
ATOM     25  O   UNL     1       7.497   4.694  15.722  0.00  0.00    +0.000 OA
ATOM     26  H   UNL     1       7.510   5.672  15.587  0.00  0.00    +0.000 HD
ENDBRANCH  23  25
ENDBRANCH   8  23
BRANCH  12  27
ATOM     27  O   UNL     1       2.067   5.884  20.525  0.00  0.00    +0.000 OA
ATOM     28  C   UNL     1       0.814   5.259  20.257  0.00  0.00    +0.000 C 
ENDBRANCH  12  27
TORSDOF 6
ENDMDL
MODEL 4
REMARK VINA RESULT:      -6.7      2.735      7.358
REMARK  Name = 
REMARK  8 active torsions:
REMARK  status: ('A' for Active; 'I' for Inactive)
REMARK    1  A    between atoms: C_1  and  C_2
REMARK    2  A    between atoms: C_2  and  C_3
REMARK    3  A    between atoms: N_6  and  C_7
REMARK    4  A    between atoms: C_14  and  C_15
REMARK    5  A    between atoms: C_15  and  O_17
REMARK    6  A    between atoms: N_19  and  C_20
REMARK    7  A    between atoms: C_24  and  O_25
REMARK    8  A    between atoms: O_25  and  C_26
REMARK                            x       y       z     vdW  Elec       q    Type
REMARK                         _______ _______ _______ _____ _____    ______ ____
ROOT
ATOM      1  C   UNL     1       1.318   9.183  19.235  0.00  0.00    +0.000 A 
ATOM      2  C   UNL     1       2.080   9.557  18.108  0.00  0.00    +0.000 A 
ATOM      3  F   UNL     1       1.966  10.798  17.605  0.00  0.00    +0.000 F 
ATOM      4  C   UNL     1       3.000   8.707  17.502  0.00  0.00    +0.000 A 
ATOM      5  C   UNL     1       3.200   7.427  18.019  0.00  0.00    +0.000 A 
ATOM      6  C   UNL     1       4.213   6.551  17.372  0.00  0.00    +0.000 A 
ATOM      7  O   UNL     1       4.867   6.928  16.402  0.00  0.00    +0.000 OA
ATOM      8  C   UNL     1       4.421   5.194  17.911  0.00  0.00    +0.000 A 
ATOM      9  C   UNL     1       3.679   4.849  18.971  0.00  0.00    +0.000 A 
ATOM     10  N   UNL     1       2.749   5.644  19.620  0.00  0.00    +0.000 N 
ATOM     11  C   UNL     1       2.462   6.965  19.129  0.00  0.00    +0.000 A 
ATOM     12  C   UNL     1       1.485   7.846  19.690  0.00  0.00    +0.000 A 
ENDROOT
BRANCH   1  16
ATOM     13  C   UNL     1      -0.060  12.239  20.778  0.00  0.00    +0.000 C 
ATOM     14  C   UNL     1      -0.987  11.947  19.597  0.00  0.00    +0.000 C 
ATOM     15  C   UNL     1      -0.870  10.434  19.416  0.00  0.00    +0.000 C 
ATOM     16  N   UNL     1       0.495  10.125  19.841  0.00  0.00    +0.000 N 
ATOM     17  C   UNL     1       1.107  11.255  20.549  0.00  0.00    +0.000 C 
BRANCH  13  19
ATOM     18  C   UNL     1      -1.018  13.314  22.882  0.00  0.00    +0.000 C 
ATOM     19  C   UNL     1      -0.741  12.014  22.137  0.00  0.00    +0.000 C 
ENDBRANCH  13  19
ENDBRANCH   1  16
BRANCH  10  20
ATOM     20  C   UNL     1       2.084   5.095  20.817  0.00  0.00    +0.000 C 
ATOM     21  C   UNL     1       1.161   3.903  20.855  0.00  0.00    +0.000 C 
ATOM     22  C   UNL     1       2.553   3.771  21.378  0.00  0.00    +0.000 C 
ENDBRANCH  10  20
BRANCH   8  23
ATOM     23  C   UNL     1       5.391   4.222  17.364  0.00  0.00    +0.000 C 
ATOM     24  O   UNL     1       5.261   3.682  16.272  0.00  0.00    +0.000 OA
BRANCH  23  25
ATOM     25  O   UNL     1       6.448   3.967  18.167  0.00  0.00    +0.000 OA
ATOM     26  H   UNL     1       7.221   4.557  18.000  0.00  0.00    +0.000 HD
ENDBRANCH  23  25
ENDBRANCH   8  23
BRANCH  12  27
ATOM     27  O   UNL     1       0.720   7.385  20.738  0.00  0.00    +0.000 OA
ATOM     28  C   UNL     1       0.889   8.133  21.939  0.00  0.00    +0.000 C 
ENDBRANCH  12  27
TORSDOF 6
ENDMDL
MODEL 5
REMARK VINA RESULT:      -6.5      3.046      7.448
REMARK  Name = 
REMARK  8 active torsions:
REMARK  status: ('A' for Active; 'I' for Inactive)
REMARK    1  A    between atoms: C_1  and  C_2
REMARK    2  A    between atoms: C_2  and  C_3
REMARK    3  A    between atoms: N_6  and  C_7
REMARK    4  A    between atoms: C_14  and  C_15
REMARK    5  A    between atoms: C_15  and  O_17
REMARK    6  A    between atoms: N_19  and  C_20
REMARK    7  A    between atoms: C_24  and  O_25
REMARK    8  A    between atoms: O_25  and  C_26
REMARK                            x       y       z     vdW  Elec       q    Type
REMARK                         _______ _______ _______ _____ _____    ______ ____
ROOT
ATOM      1  C   UNL     1       1.244   8.559  20.075  0.00  0.00    +0.000 A 
ATOM      2  C   UNL     1       0.734   7.664  21.039  0.00  0.00    +0.000 A 
ATOM      3  F   UNL     1      -0.225   8.070  21.888  0.00  0.00    +0.000 F 
ATOM      4  C   UNL     1       1.145   6.339  21.130  0.00  0.00    +0.000 A 
ATOM      5  C   UNL     1       2.096   5.848  20.236  0.00  0.00    +0.000 A 
ATOM      6  C   UNL     1       2.494   4.419  20.335  0.00  0.00    +0.000 A 
ATOM      7  O   UNL     1       2.008   3.671  21.181  0.00  0.00    +0.000 OA
ATOM      8  C   UNL     1       3.506   3.899  19.396  0.00  0.00    +0.000 A 
ATOM      9  C   UNL     1       3.992   4.766  18.498  0.00  0.00    +0.000 A 
ATOM     10  N   UNL     1       3.626   6.094  18.353  0.00  0.00    +0.000 N 
ATOM     11  C   UNL     1       2.675   6.683  19.257  0.00  0.00    +0.000 A 
ATOM     12  C   UNL     1       2.270   8.054  19.230  0.00  0.00    +0.000 A 
ENDROOT
BRANCH   1  16
ATOM     13  C   UNL     1      -1.026  11.458  19.821  0.00  0.00    +0.000 C 
ATOM     14  C   UNL     1      -0.214  11.709  21.093  0.00  0.00    +0.000 C 
ATOM     15  C   UNL     1       1.095  10.965  20.835  0.00  0.00    +0.000 C 
ATOM     16  N   UNL     1       0.708   9.838  19.985  0.00  0.00    +0.000 N 
ATOM     17  C   UNL     1      -0.650  10.006  19.456  0.00  0.00    +0.000 C 
BRANCH  13  19
ATOM     18  C   UNL     1      -0.536  13.877  19.182  0.00  0.00    +0.000 C 
ATOM     19  C   UNL     1      -0.679  12.441  18.692  0.00  0.00    +0.000 C 
ENDBRANCH  13  19
ENDBRANCH   1  16
BRANCH  10  20
ATOM     20  C   UNL     1       4.235   6.863  17.251  0.00  0.00    +0.000 C 
ATOM     21  C   UNL     1       5.709   7.084  17.027  0.00  0.00    +0.000 C 
ATOM     22  C   UNL     1       4.971   6.124  16.155  0.00  0.00    +0.000 C 
ENDBRANCH  10  20
BRANCH   8  23
ATOM     23  C   UNL     1       3.992   2.504  19.386  0.00  0.00    +0.000 C 
ATOM     24  O   UNL     1       3.380   1.580  18.863  0.00  0.00    +0.000 OA
BRANCH  23  25
ATOM     25  O   UNL     1       5.177   2.315  20.007  0.00  0.00    +0.000 OA
ATOM     26  H   UNL     1       5.890   2.918  19.688  0.00  0.00    +0.000 HD
ENDBRANCH  23  25
ENDBRANCH   8  23
BRANCH  12  27
ATOM     27  O   UNL     1       2.869   8.891  18.314  0.00  0.00    +0.000 OA
ATOM     28  C   UNL     1       1.949   9.507  17.417  0.00  0.00    +0.000 C 
ENDBRANCH  12  27
TORSDOF 6
ENDMDL
MODEL 6
REMARK VINA RESULT:      -6.5      6.721     11.607
REMARK  Name = 
REMARK  8 active torsions:
REMARK  status: ('A' for Active; 'I' for Inactive)
REMARK    1  A    between atoms: C_1  and  C_2
REMARK    2  A    between atoms: C_2  and  C_3
REMARK    3  A    between atoms: N_6  and  C_7
REMARK    4  A    between atoms: C_14  and  C_15
REMARK    5  A    between atoms: C_15  and  O_17
REMARK    6  A    between atoms: N_19  and  C_20
REMARK    7  A    between atoms: C_24  and  O_25
REMARK    8  A    between atoms: O_25  and  C_26
REMARK                            x       y       z     vdW  Elec       q    Type
REMARK                         _______ _______ _______ _____ _____    ______ ____
ROOT
ATOM      1  C   UNL     1      -3.257  13.061  21.773  0.00  0.00    +0.000 A 
ATOM      2  C   UNL     1      -2.171  12.806  22.638  0.00  0.00    +0.000 A 
ATOM      3  F   UNL     1      -2.221  13.221  23.915  0.00  0.00    +0.000 F 
ATOM      4  C   UNL     1      -1.045  12.091  22.245  0.00  0.00    +0.000 A 
ATOM      5  C   UNL     1      -0.967  11.586  20.947  0.00  0.00    +0.000 A 
ATOM      6  C   UNL     1       0.234  10.797  20.562  0.00  0.00    +0.000 A 
ATOM      7  O   UNL     1       1.148  10.585  21.357  0.00  0.00    +0.000 OA
ATOM      8  C   UNL     1       0.324  10.270  19.188  0.00  0.00    +0.000 A 
ATOM      9  C   UNL     1      -0.708  10.534  18.376  0.00  0.00    +0.000 A 
ATOM     10  N   UNL     1      -1.855  11.238  18.703  0.00  0.00    +0.000 N 
ATOM     11  C   UNL     1      -1.997  11.816  20.011  0.00  0.00    +0.000 A 
ATOM     12  C   UNL     1      -3.113  12.604  20.434  0.00  0.00    +0.000 A 
ENDROOT
BRANCH   1  16
ATOM     13  C   UNL     1      -6.145  14.095  23.825  0.00  0.00    +0.000 C 
ATOM     14  C   UNL     1      -5.297  15.359  23.681  0.00  0.00    +0.000 C 
ATOM     15  C   UNL     1      -4.557  15.146  22.361  0.00  0.00    +0.000 C 
ATOM     16  N   UNL     1      -4.388  13.696  22.273  0.00  0.00    +0.000 N 
ATOM     17  C   UNL     1      -5.222  12.997  23.257  0.00  0.00    +0.000 C 
BRANCH  13  19
ATOM     18  C   UNL     1      -7.902  12.844  22.464  0.00  0.00    +0.000 C 
ATOM     19  C   UNL     1      -7.473  14.181  23.056  0.00  0.00    +0.000 C 
ENDBRANCH  13  19
ENDBRANCH   1  16
BRANCH  10  20
ATOM     20  C   UNL     1      -2.908  11.360  17.677  0.00  0.00    +0.000 C 
ATOM     21  C   UNL     1      -2.809  10.910  16.241  0.00  0.00    +0.000 C 
ATOM     22  C   UNL     1      -3.625  10.114  17.205  0.00  0.00    +0.000 C 
ENDBRANCH  10  20
BRANCH   8  23
ATOM     23  C   UNL     1       1.459   9.474  18.675  0.00  0.00    +0.000 C 
ATOM     24  O   UNL     1       2.025   9.713  17.616  0.00  0.00    +0.000 OA
BRANCH  23  25
ATOM     25  O   UNL     1       1.832   8.447  19.471  0.00  0.00    +0.000 OA
ATOM     26  H   UNL     1       2.608   7.944  19.127  0.00  0.00    +0.000 HD
ENDBRANCH  23  25
ENDBRANCH   8  23
BRANCH  12  27
ATOM     27  O   UNL     1      -4.100  12.883  19.513  0.00  0.00    +0.000 OA
ATOM     28  C   UNL     1      -5.316  12.181  19.752  0.00  0.00    +0.000 C 
ENDBRANCH  12  27
TORSDOF 6
ENDMDL
MODEL 7
REMARK VINA RESULT:      -6.5      0.800      1.029
REMARK  Name = 
REMARK  8 active torsions:
REMARK  status: ('A' for Active; 'I' for Inactive)
REMARK    1  A    between atoms: C_1  and  C_2
REMARK    2  A    between atoms: C_2  and  C_3
REMARK    3  A    between atoms: N_6  and  C_7
REMARK    4  A    between atoms: C_14  and  C_15
REMARK    5  A    between atoms: C_15  and  O_17
REMARK    6  A    between atoms: N_19  and  C_20
REMARK    7  A    between atoms: C_24  and  O_25
REMARK    8  A    between atoms: O_25  and  C_26
REMARK                            x       y       z     vdW  Elec       q    Type
REMARK                         _______ _______ _______ _____ _____    ______ ____
ROOT
ATOM      1  C   UNL     1       4.275   6.005  17.071  0.00  0.00    +0.000 A 
ATOM      2  C   UNL     1       3.970   7.360  16.826  0.00  0.00    +0.000 A 
ATOM      3  F   UNL     1       4.425   7.958  15.711  0.00  0.00    +0.000 F 
ATOM      4  C   UNL     1       3.167   8.118  17.672  0.00  0.00    +0.000 A 
ATOM      5  C   UNL     1       2.621   7.531  18.813  0.00  0.00    +0.000 A 
ATOM      6  C   UNL     1       1.739   8.354  19.683  0.00  0.00    +0.000 A 
ATOM      7  O   UNL     1       1.487   9.528  19.419  0.00  0.00    +0.000 OA
ATOM      8  C   UNL     1       1.167   7.738  20.895  0.00  0.00    +0.000 A 
ATOM      9  C   UNL     1       1.479   6.456  21.121  0.00  0.00    +0.000 A 
ATOM     10  N   UNL     1       2.270   5.647  20.322  0.00  0.00    +0.000 N 
ATOM     11  C   UNL     1       2.895   6.187  19.145  0.00  0.00    +0.000 A 
ATOM     12  C   UNL     1       3.771   5.457  18.282  0.00  0.00    +0.000 A 
ENDROOT
BRANCH   1  16
ATOM     13  C   UNL     1       6.954   4.359  15.138  0.00  0.00    +0.000 C 
ATOM     14  C   UNL     1       5.966   3.239  15.467  0.00  0.00    +0.000 C 
ATOM     15  C   UNL     1       4.633   3.969  15.616  0.00  0.00    +0.000 C 
ATOM     16  N   UNL     1       5.001   5.291  16.124  0.00  0.00    +0.000 N 
ATOM     17  C   UNL     1       6.443   5.530  16.004  0.00  0.00    +0.000 C 
BRANCH  13  19
ATOM     18  C   UNL     1       6.407   3.606  12.765  0.00  0.00    +0.000 C 
ATOM     19  C   UNL     1       6.972   4.715  13.643  0.00  0.00    +0.000 C 
ENDBRANCH  13  19
ENDBRANCH   1  16
BRANCH  10  20
ATOM     20  C   UNL     1       2.436   4.235  20.715  0.00  0.00    +0.000 C 
ATOM     21  C   UNL     1       1.571   3.474  21.687  0.00  0.00    +0.000 C 
ATOM     22  C   UNL     1       1.436   3.211  20.224  0.00  0.00    +0.000 C 
ENDBRANCH  10  20
BRANCH   8  23
ATOM     23  C   UNL     1       0.280   8.442  21.845  0.00  0.00    +0.000 C 
ATOM     24  O   UNL     1      -0.898   8.147  22.012  0.00  0.00    +0.000 OA
BRANCH  23  25
ATOM     25  O   UNL     1       0.868   9.450  22.525  0.00  0.00    +0.000 OA
ATOM     26  H   UNL     1       1.822   9.289  22.723  0.00  0.00    +0.000 HD
ENDBRANCH  23  25
ENDBRANCH   8  23
BRANCH  12  27
ATOM     27  O   UNL     1       4.090   4.161  18.625  0.00  0.00    +0.000 OA
ATOM     28  C   UNL     1       5.373   4.032  19.232  0.00  0.00    +0.000 C 
ENDBRANCH  12  27
TORSDOF 6
ENDMDL
MODEL 8
REMARK VINA RESULT:      -6.4      2.806      4.441
REMARK  Name = 
REMARK  8 active torsions:
REMARK  status: ('A' for Active; 'I' for Inactive)
REMARK    1  A    between atoms: C_1  and  C_2
REMARK    2  A    between atoms: C_2  and  C_3
REMARK    3  A    between atoms: N_6  and  C_7
REMARK    4  A    between atoms: C_14  and  C_15
REMARK    5  A    between atoms: C_15  and  O_17
REMARK    6  A    between atoms: N_19  and  C_20
REMARK    7  A    between atoms: C_24  and  O_25
REMARK    8  A    between atoms: O_25  and  C_26
REMARK                            x       y       z     vdW  Elec       q    Type
REMARK                         _______ _______ _______ _____ _____    ______ ____
ROOT
ATOM      1  C   UNL     1       3.032   6.407  18.697  0.00  0.00    +0.000 A 
ATOM      2  C   UNL     1       3.421   7.173  17.578  0.00  0.00    +0.000 A 
ATOM      3  F   UNL     1       4.109   6.597  16.578  0.00  0.00    +0.000 F 
ATOM      4  C   UNL     1       3.083   8.514  17.426  0.00  0.00    +0.000 A 
ATOM      5  C   UNL     1       2.319   9.147  18.407  0.00  0.00    +0.000 A 
ATOM      6  C   UNL     1       1.944  10.572  18.205  0.00  0.00    +0.000 A 
ATOM      7  O   UNL     1       2.291  11.195  17.203  0.00  0.00    +0.000 OA
ATOM      8  C   UNL     1       1.144  11.247  19.244  0.00  0.00    +0.000 A 
ATOM      9  C   UNL     1       0.797  10.510  20.307  0.00  0.00    +0.000 A 
ATOM     10  N   UNL     1       1.100   9.175  20.518  0.00  0.00    +0.000 N 
ATOM     11  C   UNL     1       1.909   8.460  19.569  0.00  0.00    +0.000 A 
ATOM     12  C   UNL     1       2.324   7.100  19.717  0.00  0.00    +0.000 A 
ENDROOT
BRANCH   1  16
ATOM     13  C   UNL     1       3.515   2.852  17.833  0.00  0.00    +0.000 C 
ATOM     14  C   UNL     1       4.886   3.325  18.318  0.00  0.00    +0.000 C 
ATOM     15  C   UNL     1       4.553   4.472  19.270  0.00  0.00    +0.000 C 
ATOM     16  N   UNL     1       3.324   5.048  18.723  0.00  0.00    +0.000 N 
ATOM     17  C   UNL     1       2.720   4.169  17.716  0.00  0.00    +0.000 C 
BRANCH  13  19
ATOM     18  C   UNL     1       1.342   2.059  18.905  0.00  0.00    +0.000 C 
ATOM     19  C   UNL     1       2.850   1.864  18.804  0.00  0.00    +0.000 C 
ENDBRANCH  13  19
ENDBRANCH   1  16
BRANCH  10  20
ATOM     20  C   UNL     1       0.561   8.527  21.729  0.00  0.00    +0.000 C 
ATOM     21  C   UNL     1       0.177   9.217  23.013  0.00  0.00    +0.000 C 
ATOM     22  C   UNL     1      -0.893   8.733  22.091  0.00  0.00    +0.000 C 
ENDBRANCH  10  20
BRANCH   8  23
ATOM     23  C   UNL     1       0.706  12.657  19.171  0.00  0.00    +0.000 C 
ATOM     24  O   UNL     1       0.888  13.467  20.072  0.00  0.00    +0.000 OA
BRANCH  23  25
ATOM     25  O   UNL     1       0.079  12.993  18.022  0.00  0.00    +0.000 OA
ATOM     26  H   UNL     1       0.315  12.413  17.259  0.00  0.00    +0.000 HD
ENDBRANCH  23  25
ENDBRANCH   8  23
BRANCH  12  27
ATOM     27  O   UNL     1       1.977   6.436  20.873  0.00  0.00    +0.000 OA
ATOM     28  C   UNL     1       1.177   5.278  20.647  0.00  0.00    +0.000 C 
ENDBRANCH  12  27
TORSDOF 6
ENDMDL
MODEL 9
REMARK VINA RESULT:      -6.4      8.401     10.685
REMARK  Name = 
REMARK  8 active torsions:
REMARK  status: ('A' for Active; 'I' for Inactive)
REMARK    1  A    between atoms: C_1  and  C_2
REMARK    2  A    between atoms: C_2  and  C_3
REMARK    3  A    between atoms: N_6  and  C_7
REMARK    4  A    between atoms: C_14  and  C_15
REMARK    5  A    between atoms: C_15  and  O_17
REMARK    6  A    between atoms: N_19  and  C_20
REMARK    7  A    between atoms: C_24  and  O_25
REMARK    8  A    between atoms: O_25  and  C_26
REMARK                            x       y       z     vdW  Elec       q    Type
REMARK                         _______ _______ _______ _____ _____    ______ ____
ROOT
ATOM      1  C   UNL     1      -4.462  11.780  18.374  0.00  0.00    +0.000 A 
ATOM      2  C   UNL     1      -5.811  12.188  18.320  0.00  0.00    +0.000 A 
ATOM      3  F   UNL     1      -6.572  11.848  17.266  0.00  0.00    +0.000 F 
ATOM      4  C   UNL     1      -6.426  12.900  19.345  0.00  0.00    +0.000 A 
ATOM      5  C   UNL     1      -5.699  13.229  20.489  0.00  0.00    +0.000 A 
ATOM      6  C   UNL     1      -6.389  13.963  21.583  0.00  0.00    +0.000 A 
ATOM      7  O   UNL     1      -7.574  14.281  21.499  0.00  0.00    +0.000 OA
ATOM      8  C   UNL     1      -5.620  14.320  22.790  0.00  0.00    +0.000 A 
ATOM      9  C   UNL     1      -4.336  13.939  22.818  0.00  0.00    +0.000 A 
ATOM     10  N   UNL     1      -3.666  13.230  21.835  0.00  0.00    +0.000 N 
ATOM     11  C   UNL     1      -4.337  12.881  20.613  0.00  0.00    +0.000 A 
ATOM     12  C   UNL     1      -3.724  12.199  19.515  0.00  0.00    +0.000 A 
ENDROOT
BRANCH   1  16
ATOM     13  C   UNL     1      -2.707  10.518  15.383  0.00  0.00    +0.000 C 
ATOM     14  C   UNL     1      -2.169   9.671  16.536  0.00  0.00    +0.000 C 
ATOM     15  C   UNL     1      -3.308   9.686  17.554  0.00  0.00    +0.000 C 
ATOM     16  N   UNL     1      -3.952  10.985  17.354  0.00  0.00    +0.000 N 
ATOM     17  C   UNL     1      -3.504  11.621  16.110  0.00  0.00    +0.000 C 
BRANCH  13  19
ATOM     18  C   UNL     1      -3.002   9.616  13.016  0.00  0.00    +0.000 C 
ATOM     19  C   UNL     1      -3.592   9.712  14.418  0.00  0.00    +0.000 C 
ENDBRANCH  13  19
ENDBRANCH   1  16
BRANCH  10  20
ATOM     20  C   UNL     1      -2.264  12.849  22.092  0.00  0.00    +0.000 C 
ATOM     21  C   UNL     1      -1.479  13.133  23.347  0.00  0.00    +0.000 C 
ATOM     22  C   UNL     1      -1.970  11.747  23.087  0.00  0.00    +0.000 C 
ENDBRANCH  10  20
BRANCH   8  23
ATOM     23  C   UNL     1      -6.181  15.047  23.947  0.00  0.00    +0.000 C 
ATOM     24  O   UNL     1      -5.750  16.125  24.339  0.00  0.00    +0.000 OA
BRANCH  23  25
ATOM     25  O   UNL     1      -7.219  14.430  24.553  0.00  0.00    +0.000 OA
ATOM     26  H   UNL     1      -6.947  13.832  25.290  0.00  0.00    +0.000 HD
ENDBRANCH  23  25
ENDBRANCH   8  23
BRANCH  12  27
ATOM     27  O   UNL     1      -2.382  11.903  19.601  0.00  0.00    +0.000 OA
ATOM     28  C   UNL     1      -1.552  12.796  18.862  0.00  0.00    +0.000 C 
ENDBRANCH  12  27
TORSDOF 6
ENDMDL
