MODEL 1
REMARK VINA RESULT:      -6.9      0.000      0.000
REMARK  Name = 
REMARK  10 active torsions:
REMARK  status: ('A' for Active; 'I' for Inactive)
REMARK    1  A    between atoms: C_1  and  C_2
REMARK    2  A    between atoms: C_2  and  C_3
REMARK    3  A    between atoms: C_2  and  O_4
REMARK    4  A    between atoms: O_4  and  C_5
REMARK    5  A    between atoms: N_7  and  C_8
REMARK    6  A    between atoms: C_13  and  C_14
REMARK    7  A    between atoms: C_14  and  O_16
REMARK    8  A    between atoms: O_16  and  C_17
REMARK    9  A    between atoms: C_17  and  C_18
REMARK   10  A    between atoms: C_17  and  C_19
REMARK                            x       y       z     vdW  Elec       q    Type
REMARK                         _______ _______ _______ _____ _____    ______ ____
ROOT
ATOM      1  C   UNL     1       2.143   5.600  20.339  0.00  0.00    +0.000 A 
ATOM      2  C   UNL     1       1.281   4.500  20.394  0.00  0.00    +0.000 A 
ATOM      3  C   UNL     1       1.632   3.274  19.831  0.00  0.00    +0.000 A 
ATOM      4  C   UNL     1       2.854   3.116  19.181  0.00  0.00    +0.000 A 
ATOM      5 CL   UNL     1       3.139   1.565  18.475  0.00  0.00    +0.000 Cl
ATOM      6  C   UNL     1       3.728   4.207  19.092  0.00  0.00    +0.000 A 
ATOM      7  C   UNL     1       3.355   5.456  19.650  0.00  0.00    +0.000 A 
ENDROOT
BRANCH   1  10
ATOM      8  C   UNL     1       1.719   8.041  20.315  0.00  0.00    +0.000 C 
ATOM      9  O   UNL     1       1.862   8.226  19.116  0.00  0.00    +0.000 OA
ATOM     10  N   UNL     1       1.831   6.831  20.968  0.00  0.00    +0.000 N 
ATOM     11  H   UNL     1       1.543   6.835  21.938  0.00  0.00    +0.000 HD
BRANCH   8  12
ATOM     12  O   UNL     1       1.363   9.042  21.177  0.00  0.00    +0.000 OA
BRANCH  12  14
ATOM     13  C   UNL     1      -0.448   9.337  22.769  0.00  0.00    +0.000 C 
ATOM     14  C   UNL     1      -0.072   9.200  21.294  0.00  0.00    +0.000 C 
ATOM     15  C   UNL     1      -0.522  10.427  20.512  0.00  0.00    +0.000 C 
ENDBRANCH  12  14
ENDBRANCH   8  12
ENDBRANCH   1  10
BRANCH   6  16
ATOM     16  C   UNL     1       5.044   4.143  18.411  0.00  0.00    +0.000 C 
ATOM     17  O   UNL     1       6.099   4.132  19.023  0.00  0.00    +0.000 OA
BRANCH  16  18
ATOM     18  O   UNL     1       4.895   4.023  17.069  0.00  0.00    +0.000 OA
BRANCH  18  19
ATOM     19  C   UNL     1       5.788   4.792  16.241  0.00  0.00    +0.000 C 
ATOM     20  C   UNL     1       5.952   4.091  14.898  0.00  0.00    +0.000 C 
ATOM     21  C   UNL     1       5.172   6.175  16.046  0.00  0.00    +0.000 C 
ENDBRANCH  18  19
ENDBRANCH  16  18
ENDBRANCH   6  16
TORSDOF 6
ENDMDL
MODEL 2
REMARK VINA RESULT:      -6.7      4.047      7.926
REMARK  Name = 
REMARK  10 active torsions:
REMARK  status: ('A' for Active; 'I' for Inactive)
REMARK    1  A    between atoms: C_1  and  C_2
REMARK    2  A    between atoms: C_2  and  C_3
REMARK    3  A    between atoms: C_2  and  O_4
REMARK    4  A    between atoms: O_4  and  C_5
REMARK    5  A    between atoms: N_7  and  C_8
REMARK    6  A    between atoms: C_13  and  C_14
REMARK    7  A    between atoms: C_14  and  O_16
REMARK    8  A    between atoms: O_16  and  C_17
REMARK    9  A    between atoms: C_17  and  C_18
REMARK   10  A    between atoms: C_17  and  C_19
REMARK                            x       y       z     vdW  Elec       q    Type
REMARK                         _______ _______ _______ _____ _____    ______ ____
ROOT
ATOM      1  C   UNL     1       6.227   4.375  15.360  0.00  0.00    +0.000 A 
ATOM      2  C   UNL     1       7.419   4.241  16.079  0.00  0.00    +0.000 A 
ATOM      3  C   UNL     1       7.500   4.596  17.424  0.00  0.00    +0.000 A 
ATOM      4  C   UNL     1       6.390   5.112  18.089  0.00  0.00    +0.000 A 
ATOM      5 CL   UNL     1       6.640   5.569  19.737  0.00  0.00    +0.000 Cl
ATOM      6  C   UNL     1       5.188   5.277  17.389  0.00  0.00    +0.000 A 
ATOM      7  C   UNL     1       5.120   4.933  16.015  0.00  0.00    +0.000 A 
ENDROOT
BRANCH   1  10
ATOM      8  C   UNL     1       6.846   4.460  12.962  0.00  0.00    +0.000 C 
ATOM      9  O   UNL     1       7.701   5.330  13.039  0.00  0.00    +0.000 OA
ATOM     10  N   UNL     1       6.110   3.952  14.013  0.00  0.00    +0.000 N 
ATOM     11  H   UNL     1       5.549   3.139  13.793  0.00  0.00    +0.000 HD
BRANCH   8  12
ATOM     12  O   UNL     1       6.548   3.823  11.790  0.00  0.00    +0.000 OA
BRANCH  12  14
ATOM     13  C   UNL     1       4.246   3.224  11.296  0.00  0.00    +0.000 C 
ATOM     14  C   UNL     1       5.554   2.782  11.950  0.00  0.00    +0.000 C 
ATOM     15  C   UNL     1       6.055   1.487  11.322  0.00  0.00    +0.000 C 
ENDBRANCH  12  14
ENDBRANCH   8  12
ENDBRANCH   1  10
BRANCH   6  16
ATOM     16  C   UNL     1       3.956   5.829  18.003  0.00  0.00    +0.000 C 
ATOM     17  O   UNL     1       3.472   6.894  17.656  0.00  0.00    +0.000 OA
BRANCH  16  18
ATOM     18  O   UNL     1       3.434   4.969  18.911  0.00  0.00    +0.000 OA
BRANCH  18  19
ATOM     19  C   UNL     1       2.862   3.749  18.402  0.00  0.00    +0.000 C 
ATOM     20  C   UNL     1       2.729   2.747  19.542  0.00  0.00    +0.000 C 
ATOM     21  C   UNL     1       1.489   4.081  17.824  0.00  0.00    +0.000 C 
ENDBRANCH  18  19
ENDBRANCH  16  18
ENDBRANCH   6  16
TORSDOF 6
ENDMDL
MODEL 3
REMARK VINA RESULT:      -6.6      3.555      7.968
REMARK  Name = 
REMARK  10 active torsions:
REMARK  status: ('A' for Active; 'I' for Inactive)
REMARK    1  A    between atoms: C_1  and  C_2
REMARK    2  A    between atoms: C_2  and  C_3
REMARK    3  A    between atoms: C_2  and  O_4
REMARK    4  A    between atoms: O_4  and  C_5
REMARK    5  A    between atoms: N_7  and  C_8
REMARK    6  A    between atoms: C_13  and  C_14
REMARK    7  A    between atoms: C_14  and  O_16
REMARK    8  A    between atoms: O_16  and  C_17
REMARK    9  A    between atoms: C_17  and  C_18
REMARK   10  A    between atoms: C_17  and  C_19
REMARK                            x       y       z     vdW  Elec       q    Type
REMARK                         _______ _______ _______ _____ _____    ______ ____
ROOT
ATOM      1  C   UNL     1       6.256   4.056  15.420  0.00  0.00    +0.000 A 
ATOM      2  C   UNL     1       7.350   4.761  15.933  0.00  0.00    +0.000 A 
ATOM      3  C   UNL     1       7.407   5.138  17.273  0.00  0.00    +0.000 A 
ATOM      4  C   UNL     1       6.362   4.832  18.141  0.00  0.00    +0.000 A 
ATOM      5 CL   UNL     1       6.531   5.408  19.762  0.00  0.00    +0.000 Cl
ATOM      6  C   UNL     1       5.244   4.144  17.651  0.00  0.00    +0.000 A 
ATOM      7  C   UNL     1       5.185   3.783  16.281  0.00  0.00    +0.000 A 
ENDROOT
BRANCH   1  10
ATOM      8  C   UNL     1       6.823   4.242  13.015  0.00  0.00    +0.000 C 
ATOM      9  O   UNL     1       7.481   5.270  13.076  0.00  0.00    +0.000 OA
ATOM     10  N   UNL     1       6.216   3.604  14.078  0.00  0.00    +0.000 N 
ATOM     11  H   UNL     1       5.832   2.691  13.871  0.00  0.00    +0.000 HD
BRANCH   8  12
ATOM     12  O   UNL     1       6.651   3.545  11.851  0.00  0.00    +0.000 OA
BRANCH  12  14
ATOM     13  C   UNL     1       4.317   3.203  11.268  0.00  0.00    +0.000 C 
ATOM     14  C   UNL     1       5.559   2.595  11.918  0.00  0.00    +0.000 C 
ATOM     15  C   UNL     1       5.954   1.304  11.214  0.00  0.00    +0.000 C 
ENDBRANCH  12  14
ENDBRANCH   8  12
ENDBRANCH   1  10
BRANCH   6  16
ATOM     16  C   UNL     1       4.076   3.784  18.491  0.00  0.00    +0.000 C 
ATOM     17  O   UNL     1       3.574   2.672  18.472  0.00  0.00    +0.000 OA
BRANCH  16  18
ATOM     18  O   UNL     1       3.721   4.810  19.301  0.00  0.00    +0.000 OA
BRANCH  18  19
ATOM     19  C   UNL     1       2.414   5.383  19.097  0.00  0.00    +0.000 C 
ATOM     20  C   UNL     1       1.777   5.665  20.451  0.00  0.00    +0.000 C 
ATOM     21  C   UNL     1       2.589   6.680  18.312  0.00  0.00    +0.000 C 
ENDBRANCH  18  19
ENDBRANCH  16  18
ENDBRANCH   6  16
TORSDOF 6
ENDMDL
MODEL 4
REMARK VINA RESULT:      -6.6      4.232      8.044
REMARK  Name = 
REMARK  10 active torsions:
REMARK  status: ('A' for Active; 'I' for Inactive)
REMARK    1  A    between atoms: C_1  and  C_2
REMARK    2  A    between atoms: C_2  and  C_3
REMARK    3  A    between atoms: C_2  and  O_4
REMARK    4  A    between atoms: O_4  and  C_5
REMARK    5  A    between atoms: N_7  and  C_8
REMARK    6  A    between atoms: C_13  and  C_14
REMARK    7  A    between atoms: C_14  and  O_16
REMARK    8  A    between atoms: O_16  and  C_17
REMARK    9  A    between atoms: C_17  and  C_18
REMARK   10  A    between atoms: C_17  and  C_19
REMARK                            x       y       z     vdW  Elec       q    Type
REMARK                         _______ _______ _______ _____ _____    ______ ____
ROOT
ATOM      1  C   UNL     1       6.137   4.001  15.358  0.00  0.00    +0.000 A 
ATOM      2  C   UNL     1       7.265   4.350  16.107  0.00  0.00    +0.000 A 
ATOM      3  C   UNL     1       7.163   4.716  17.448  0.00  0.00    +0.000 A 
ATOM      4  C   UNL     1       5.921   4.758  18.078  0.00  0.00    +0.000 A 
ATOM      5 CL   UNL     1       5.927   5.286  19.723  0.00  0.00    +0.000 Cl
ATOM      6  C   UNL     1       4.771   4.434  17.347  0.00  0.00    +0.000 A 
ATOM      7  C   UNL     1       4.882   4.083  15.978  0.00  0.00    +0.000 A 
ENDROOT
BRANCH   1  10
ATOM      8  C   UNL     1       6.887   4.237  13.009  0.00  0.00    +0.000 C 
ATOM      9  O   UNL     1       7.477   5.301  13.126  0.00  0.00    +0.000 OA
ATOM     10  N   UNL     1       6.233   3.558  14.016  0.00  0.00    +0.000 N 
ATOM     11  H   UNL     1       5.921   2.626  13.775  0.00  0.00    +0.000 HD
BRANCH   8  12
ATOM     12  O   UNL     1       6.851   3.541  11.832  0.00  0.00    +0.000 OA
BRANCH  12  14
ATOM     13  C   UNL     1       4.557   3.003  11.240  0.00  0.00    +0.000 C 
ATOM     14  C   UNL     1       5.865   2.481  11.834  0.00  0.00    +0.000 C 
ATOM     15  C   UNL     1       6.380   1.294  11.029  0.00  0.00    +0.000 C 
ENDBRANCH  12  14
ENDBRANCH   8  12
ENDBRANCH   1  10
BRANCH   6  16
ATOM     16  C   UNL     1       3.405   4.462  17.923  0.00  0.00    +0.000 C 
ATOM     17  O   UNL     1       2.970   5.427  18.530  0.00  0.00    +0.000 OA
BRANCH  16  18
ATOM     18  O   UNL     1       2.720   3.334  17.615  0.00  0.00    +0.000 OA
BRANCH  18  19
ATOM     19  C   UNL     1       2.370   2.462  18.709  0.00  0.00    +0.000 C 
ATOM     20  C   UNL     1       3.429   2.579  19.798  0.00  0.00    +0.000 C 
ATOM     21  C   UNL     1       1.010   2.903  19.241  0.00  0.00    +0.000 C 
ENDBRANCH  18  19
ENDBRANCH  16  18
ENDBRANCH   6  16
TORSDOF 6
ENDMDL
MODEL 5
REMARK VINA RESULT:      -6.6      3.799      7.037
REMARK  Name = 
REMARK  10 active torsions:
REMARK  status: ('A' for Active; 'I' for Inactive)
REMARK    1  A    between atoms: C_1  and  C_2
REMARK    2  A    between atoms: C_2  and  C_3
REMARK    3  A    between atoms: C_2  and  O_4
REMARK    4  A    between atoms: O_4  and  C_5
REMARK    5  A    between atoms: N_7  and  C_8
REMARK    6  A    between atoms: C_13  and  C_14
REMARK    7  A    between atoms: C_14  and  O_16
REMARK    8  A    between atoms: O_16  and  C_17
REMARK    9  A    between atoms: C_17  and  C_18
REMARK   10  A    between atoms: C_17  and  C_19
REMARK                            x       y       z     vdW  Elec       q    Type
REMARK                         _______ _______ _______ _____ _____    ______ ____
ROOT
ATOM      1  C   UNL     1       4.762   5.441  16.714  0.00  0.00    +0.000 A 
ATOM      2  C   UNL     1       4.649   6.641  17.425  0.00  0.00    +0.000 A 
ATOM      3  C   UNL     1       3.722   6.792  18.454  0.00  0.00    +0.000 A 
ATOM      4  C   UNL     1       2.866   5.747  18.796  0.00  0.00    +0.000 A 
ATOM      5 CL   UNL     1       1.724   6.084  20.049  0.00  0.00    +0.000 Cl
ATOM      6  C   UNL     1       2.942   4.540  18.088  0.00  0.00    +0.000 A 
ATOM      7  C   UNL     1       3.874   4.403  17.028  0.00  0.00    +0.000 A 
ENDROOT
BRANCH   1  10
ATOM      8  C   UNL     1       7.035   4.816  15.953  0.00  0.00    +0.000 C 
ATOM      9  O   UNL     1       7.506   4.531  17.045  0.00  0.00    +0.000 OA
ATOM     10  N   UNL     1       5.747   5.249  15.714  0.00  0.00    +0.000 N 
ATOM     11  H   UNL     1       5.484   5.303  14.739  0.00  0.00    +0.000 HD
BRANCH   8  12
ATOM     12  O   UNL     1       7.740   4.680  14.790  0.00  0.00    +0.000 OA
BRANCH  12  14
ATOM     13  C   UNL     1       7.803   5.449  12.485  0.00  0.00    +0.000 C 
ATOM     14  C   UNL     1       6.928   4.897  13.610  0.00  0.00    +0.000 C 
ATOM     15  C   UNL     1       6.273   3.589  13.185  0.00  0.00    +0.000 C 
ENDBRANCH  12  14
ENDBRANCH   8  12
ENDBRANCH   1  10
BRANCH   6  16
ATOM     16  C   UNL     1       2.067   3.376  18.367  0.00  0.00    +0.000 C 
ATOM     17  O   UNL     1       0.925   3.300  17.945  0.00  0.00    +0.000 OA
BRANCH  16  18
ATOM     18  O   UNL     1       2.730   2.421  19.062  0.00  0.00    +0.000 OA
BRANCH  18  19
ATOM     19  C   UNL     1       3.406   2.839  20.264  0.00  0.00    +0.000 C 
ATOM     20  C   UNL     1       2.468   2.665  21.451  0.00  0.00    +0.000 C 
ATOM     21  C   UNL     1       4.644   1.962  20.433  0.00  0.00    +0.000 C 
ENDBRANCH  18  19
ENDBRANCH  16  18
ENDBRANCH   6  16
TORSDOF 6
ENDMDL
MODEL 6
REMARK VINA RESULT:      -6.5      4.310      6.384
REMARK  Name = 
REMARK  10 active torsions:
REMARK  status: ('A' for Active; 'I' for Inactive)
REMARK    1  A    between atoms: C_1  and  C_2
REMARK    2  A    between atoms: C_2  and  C_3
REMARK    3  A    between atoms: C_2  and  O_4
REMARK    4  A    between atoms: O_4  and  C_5
REMARK    5  A    between atoms: N_7  and  C_8
REMARK    6  A    between atoms: C_13  and  C_14
REMARK    7  A    between atoms: C_14  and  O_16
REMARK    8  A    between atoms: O_16  and  C_17
REMARK    9  A    between atoms: C_17  and  C_18
REMARK   10  A    between atoms: C_17  and  C_19
REMARK                            x       y       z     vdW  Elec       q    Type
REMARK                         _______ _______ _______ _____ _____    ______ ____
ROOT
ATOM      1  C   UNL     1       7.517   6.557  18.140  0.00  0.00    +0.000 A 
ATOM      2  C   UNL     1       7.431   6.407  16.753  0.00  0.00    +0.000 A 
ATOM      3  C   UNL     1       6.498   5.549  16.171  0.00  0.00    +0.000 A 
ATOM      4  C   UNL     1       5.632   4.802  16.965  0.00  0.00    +0.000 A 
ATOM      5 CL   UNL     1       4.567   3.733  16.123  0.00  0.00    +0.000 Cl
ATOM      6  C   UNL     1       5.710   4.916  18.359  0.00  0.00    +0.000 A 
ATOM      7  C   UNL     1       6.675   5.775  18.943  0.00  0.00    +0.000 A 
ENDROOT
BRANCH   1  10
ATOM      8  C   UNL     1       8.436   8.832  18.481  0.00  0.00    +0.000 C 
ATOM      9  O   UNL     1       7.699   9.429  17.710  0.00  0.00    +0.000 OA
ATOM     10  N   UNL     1       8.410   7.478  18.742  0.00  0.00    +0.000 N 
ATOM     11  H   UNL     1       8.995   7.175  19.511  0.00  0.00    +0.000 HD
BRANCH   8  12
ATOM     12  O   UNL     1       9.372   9.471  19.247  0.00  0.00    +0.000 OA
BRANCH  12  14
ATOM     13  C   UNL     1       9.400  11.531  20.534  0.00  0.00    +0.000 C 
ATOM     14  C   UNL     1       9.300  10.913  19.140  0.00  0.00    +0.000 C 
ATOM     15  C   UNL     1      10.425  11.422  18.248  0.00  0.00    +0.000 C 
ENDBRANCH  12  14
ENDBRANCH   8  12
ENDBRANCH   1  10
BRANCH   6  16
ATOM     16  C   UNL     1       4.841   4.153  19.289  0.00  0.00    +0.000 C 
ATOM     17  O   UNL     1       5.079   3.001  19.611  0.00  0.00    +0.000 OA
BRANCH  16  18
ATOM     18  O   UNL     1       3.835   4.927  19.764  0.00  0.00    +0.000 OA
BRANCH  18  19
ATOM     19  C   UNL     1       2.506   4.371  19.720  0.00  0.00    +0.000 C 
ATOM     20  C   UNL     1       1.637   5.073  20.755  0.00  0.00    +0.000 C 
ATOM     21  C   UNL     1       1.950   4.599  18.317  0.00  0.00    +0.000 C 
ENDBRANCH  18  19
ENDBRANCH  16  18
ENDBRANCH   6  16
TORSDOF 6
ENDMDL
MODEL 7
REMARK VINA RESULT:      -6.5      3.732      8.033
REMARK  Name = 
REMARK  10 active torsions:
REMARK  status: ('A' for Active; 'I' for Inactive)
REMARK    1  A    between atoms: C_1  and  C_2
REMARK    2  A    between atoms: C_2  and  C_3
REMARK    3  A    between atoms: C_2  and  O_4
REMARK    4  A    between atoms: O_4  and  C_5
REMARK    5  A    between atoms: N_7  and  C_8
REMARK    6  A    between atoms: C_13  and  C_14
REMARK    7  A    between atoms: C_14  and  O_16
REMARK    8  A    between atoms: O_16  and  C_17
REMARK    9  A    between atoms: C_17  and  C_18
REMARK   10  A    between atoms: C_17  and  C_19
REMARK                            x       y       z     vdW  Elec       q    Type
REMARK                         _______ _______ _______ _____ _____    ______ ____
ROOT
ATOM      1  C   UNL     1       5.776   3.910  15.495  0.00  0.00    +0.000 A 
ATOM      2  C   UNL     1       6.779   4.459  16.299  0.00  0.00    +0.000 A 
ATOM      3  C   UNL     1       6.533   4.819  17.623  0.00  0.00    +0.000 A 
ATOM      4  C   UNL     1       5.266   4.653  18.179  0.00  0.00    +0.000 A 
ATOM      5 CL   UNL     1       5.079   5.195  19.809  0.00  0.00    +0.000 Cl
ATOM      6  C   UNL     1       4.236   4.124  17.390  0.00  0.00    +0.000 A 
ATOM      7  C   UNL     1       4.490   3.780  16.038  0.00  0.00    +0.000 A 
ENDROOT
BRANCH   1  10
ATOM      8  C   UNL     1       6.750   4.183  13.233  0.00  0.00    +0.000 C 
ATOM      9  O   UNL     1       7.275   5.273  13.406  0.00  0.00    +0.000 OA
ATOM     10  N   UNL     1       6.029   3.472  14.171  0.00  0.00    +0.000 N 
ATOM     11  H   UNL     1       5.788   2.527  13.903  0.00  0.00    +0.000 HD
BRANCH   8  12
ATOM     12  O   UNL     1       6.868   3.487  12.062  0.00  0.00    +0.000 OA
BRANCH  12  14
ATOM     13  C   UNL     1       4.597   3.074  11.303  0.00  0.00    +0.000 C 
ATOM     14  C   UNL     1       5.857   2.460  11.912  0.00  0.00    +0.000 C 
ATOM     15  C   UNL     1       6.387   1.339  11.027  0.00  0.00    +0.000 C 
ENDBRANCH  12  14
ENDBRANCH   8  12
ENDBRANCH   1  10
BRANCH   6  16
ATOM     16  C   UNL     1       2.853   3.922  17.885  0.00  0.00    +0.000 C 
ATOM     17  O   UNL     1       1.874   4.073  17.173  0.00  0.00    +0.000 OA
BRANCH  16  18
ATOM     18  O   UNL     1       2.851   3.486  19.168  0.00  0.00    +0.000 OA
BRANCH  18  19
ATOM     19  C   UNL     1       1.644   3.694  19.928  0.00  0.00    +0.000 C 
ATOM     20  C   UNL     1       1.585   2.676  21.059  0.00  0.00    +0.000 C 
ATOM     21  C   UNL     1       1.684   5.112  20.491  0.00  0.00    +0.000 C 
ENDBRANCH  18  19
ENDBRANCH  16  18
ENDBRANCH   6  16
TORSDOF 6
ENDMDL
MODEL 8
REMARK VINA RESULT:      -6.3      3.942      6.234
REMARK  Name = 
REMARK  10 active torsions:
REMARK  status: ('A' for Active; 'I' for Inactive)
REMARK    1  A    between atoms: C_1  and  C_2
REMARK    2  A    between atoms: C_2  and  C_3
REMARK    3  A    between atoms: C_2  and  O_4
REMARK    4  A    between atoms: O_4  and  C_5
REMARK    5  A    between atoms: N_7  and  C_8
REMARK    6  A    between atoms: C_13  and  C_14
REMARK    7  A    between atoms: C_14  and  O_16
REMARK    8  A    between atoms: O_16  and  C_17
REMARK    9  A    between atoms: C_17  and  C_18
REMARK   10  A    between atoms: C_17  and  C_19
REMARK                            x       y       z     vdW  Elec       q    Type
REMARK                         _______ _______ _______ _____ _____    ______ ____
ROOT
ATOM      1  C   UNL     1       6.930   6.177  18.040  0.00  0.00    +0.000 A 
ATOM      2  C   UNL     1       6.462   6.183  16.723  0.00  0.00    +0.000 A 
ATOM      3  C   UNL     1       5.386   5.389  16.330  0.00  0.00    +0.000 A 
ATOM      4  C   UNL     1       4.754   4.550  17.245  0.00  0.00    +0.000 A 
ATOM      5 CL   UNL     1       3.473   3.574  16.615  0.00  0.00    +0.000 Cl
ATOM      6  C   UNL     1       5.214   4.507  18.567  0.00  0.00    +0.000 A 
ATOM      7  C   UNL     1       6.322   5.303  18.953  0.00  0.00    +0.000 A 
ENDROOT
BRANCH   1  10
ATOM      8  C   UNL     1       8.090   8.364  18.134  0.00  0.00    +0.000 C 
ATOM      9  O   UNL     1       7.314   8.997  17.432  0.00  0.00    +0.000 OA
ATOM     10  N   UNL     1       7.976   7.031  18.471  0.00  0.00    +0.000 N 
ATOM     11  H   UNL     1       8.627   6.706  19.174  0.00  0.00    +0.000 HD
BRANCH   8  12
ATOM     12  O   UNL     1       9.174   8.940  18.737  0.00  0.00    +0.000 OA
BRANCH  12  14
ATOM     13  C   UNL     1       9.286  10.790  20.307  0.00  0.00    +0.000 C 
ATOM     14  C   UNL     1       9.055  10.379  18.854  0.00  0.00    +0.000 C 
ATOM     15  C   UNL     1      10.067  11.057  17.939  0.00  0.00    +0.000 C 
ENDBRANCH  12  14
ENDBRANCH   8  12
ENDBRANCH   1  10
BRANCH   6  16
ATOM     16  C   UNL     1       4.617   3.638  19.610  0.00  0.00    +0.000 C 
ATOM     17  O   UNL     1       5.188   2.652  20.046  0.00  0.00    +0.000 OA
BRANCH  16  18
ATOM     18  O   UNL     1       3.431   4.133  20.039  0.00  0.00    +0.000 OA
BRANCH  18  19
ATOM     19  C   UNL     1       2.350   3.193  20.200  0.00  0.00    +0.000 C 
ATOM     20  C   UNL     1       2.096   2.975  21.686  0.00  0.00    +0.000 C 
ATOM     21  C   UNL     1       1.112   3.784  19.531  0.00  0.00    +0.000 C 
ENDBRANCH  18  19
ENDBRANCH  16  18
ENDBRANCH   6  16
TORSDOF 6
ENDMDL
MODEL 9
REMARK VINA RESULT:      -6.3      1.086      1.641
REMARK  Name = 
REMARK  10 active torsions:
REMARK  status: ('A' for Active; 'I' for Inactive)
REMARK    1  A    between atoms: C_1  and  C_2
REMARK    2  A    between atoms: C_2  and  C_3
REMARK    3  A    between atoms: C_2  and  O_4
REMARK    4  A    between atoms: O_4  and  C_5
REMARK    5  A    between atoms: N_7  and  C_8
REMARK    6  A    between atoms: C_13  and  C_14
REMARK    7  A    between atoms: C_14  and  O_16
REMARK    8  A    between atoms: O_16  and  C_17
REMARK    9  A    between atoms: C_17  and  C_18
REMARK   10  A    between atoms: C_17  and  C_19
REMARK                            x       y       z     vdW  Elec       q    Type
REMARK                         _______ _______ _______ _____ _____    ______ ____
ROOT
ATOM      1  C   UNL     1       2.376   5.366  20.309  0.00  0.00    +0.000 A 
ATOM      2  C   UNL     1       1.724   4.167  20.613  0.00  0.00    +0.000 A 
ATOM      3  C   UNL     1       2.116   2.960  20.037  0.00  0.00    +0.000 A 
ATOM      4  C   UNL     1       3.167   2.920  19.123  0.00  0.00    +0.000 A 
ATOM      5 CL   UNL     1       3.513   1.372  18.437  0.00  0.00    +0.000 Cl
ATOM      6  C   UNL     1       3.825   4.109  18.784  0.00  0.00    +0.000 A 
ATOM      7  C   UNL     1       3.406   5.335  19.359  0.00  0.00    +0.000 A 
ENDROOT
BRANCH   1  10
ATOM      8  C   UNL     1       1.840   7.785  20.282  0.00  0.00    +0.000 C 
ATOM      9  O   UNL     1       1.921   7.963  19.076  0.00  0.00    +0.000 OA
ATOM     10  N   UNL     1       2.036   6.588  20.940  0.00  0.00    +0.000 N 
ATOM     11  H   UNL     1       1.790   6.590  21.922  0.00  0.00    +0.000 HD
BRANCH   8  12
ATOM     12  O   UNL     1       1.476   8.778  21.150  0.00  0.00    +0.000 OA
BRANCH  12  14
ATOM     13  C   UNL     1      -0.335   9.277  22.691  0.00  0.00    +0.000 C 
ATOM     14  C   UNL     1       0.040   8.942  21.248  0.00  0.00    +0.000 C 
ATOM     15  C   UNL     1      -0.420  10.048  20.306  0.00  0.00    +0.000 C 
ENDBRANCH  12  14
ENDBRANCH   8  12
ENDBRANCH   1  10
BRANCH   6  16
ATOM     16  C   UNL     1       4.945   4.171  17.813  0.00  0.00    +0.000 C 
ATOM     17  O   UNL     1       4.767   4.164  16.607  0.00  0.00    +0.000 OA
BRANCH  16  18
ATOM     18  O   UNL     1       6.135   4.312  18.447  0.00  0.00    +0.000 OA
BRANCH  18  19
ATOM     19  C   UNL     1       6.671   5.646  18.543  0.00  0.00    +0.000 C 
ATOM     20  C   UNL     1       7.764   5.670  19.603  0.00  0.00    +0.000 C 
ATOM     21  C   UNL     1       7.246   6.018  17.179  0.00  0.00    +0.000 C 
ENDBRANCH  18  19
ENDBRANCH  16  18
ENDBRANCH   6  16
TORSDOF 6
ENDMDL
