MODEL 1
REMARK VINA RESULT:      -7.8      0.000      0.000
REMARK  Name = 
REMARK  10 active torsions:
REMARK  status: ('A' for Active; 'I' for Inactive)
REMARK    1  A    between atoms: C_1  and  O_2
REMARK    2  A    between atoms: O_2  and  C_3
REMARK    3  A    between atoms: C_8  and  C_9
REMARK    4  A    between atoms: C_10  and  C_11
REMARK    5  A    between atoms: C_11  and  C_12
REMARK    6  A    between atoms: C_12  and  N_13
REMARK    7  A    between atoms: N_13  and  C_14
REMARK    8  A    between atoms: C_14  and  C_15
REMARK    9  A    between atoms: C_17  and  O_18
REMARK   10  A    between atoms: O_18  and  C_19
REMARK                            x       y       z     vdW  Elec       q    Type
REMARK                         _______ _______ _______ _____ _____    ______ ____
ROOT
ATOM      1  C   UNL     1       1.711   4.761  19.524  0.00  0.00    +0.000 C 
ENDROOT
BRANCH   1   2
ATOM      2  N   UNL     1       2.525   3.741  18.836  0.00  0.00    +0.000 NA
ATOM      3  H   UNL     1       2.556   3.933  17.835  0.00  0.00    +0.000 HD
BRANCH   2   4
ATOM      4  C   UNL     1       3.893   3.752  19.366  0.00  0.00    +0.000 C 
BRANCH   4   5
ATOM      5  C   UNL     1       4.926   4.158  18.338  0.00  0.00    +0.000 A 
ATOM      6  C   UNL     1       5.944   5.084  18.664  0.00  0.00    +0.000 A 
ATOM      7  C   UNL     1       6.885   5.524  17.716  0.00  0.00    +0.000 A 
ATOM      8  C   UNL     1       6.775   5.020  16.432  0.00  0.00    +0.000 A 
ATOM      9  C   UNL     1       5.780   4.123  16.105  0.00  0.00    +0.000 A 
ATOM     10  C   UNL     1       4.849   3.676  17.023  0.00  0.00    +0.000 A 
ATOM     11  O   UNL     1       5.815   3.746  14.796  0.00  0.00    +0.000 OA
ATOM     12  C   UNL     1       6.933   4.518  14.322  0.00  0.00    +0.000 C 
ATOM     13  O   UNL     1       7.557   5.305  15.351  0.00  0.00    +0.000 OA
BRANCH   7  14
ATOM     14  O   UNL     1       7.797   6.418  18.196  0.00  0.00    +0.000 OA
ATOM     15  C   UNL     1       7.641   7.778  17.813  0.00  0.00    +0.000 C 
ENDBRANCH   7  14
ENDBRANCH   4   5
ENDBRANCH   2   4
ENDBRANCH   1   2
BRANCH   1  16
ATOM     16  C   UNL     1       2.551   5.897  20.123  0.00  0.00    +0.000 C 
BRANCH  16  24
ATOM     17  C   UNL     1       0.051   9.612  21.659  0.00  0.00    +0.000 A 
ATOM     18  C   UNL     1      -0.162  10.554  20.658  0.00  0.00    +0.000 A 
ATOM     19  C   UNL     1       0.449  10.417  19.410  0.00  0.00    +0.000 A 
ATOM     20  C   UNL     1       1.247   9.290  19.193  0.00  0.00    +0.000 A 
ATOM     21  N   UNL     1       1.949   8.919  18.077  0.00  0.00    +0.000 N 
ATOM     22  C   UNL     1       2.576   7.715  18.274  0.00  0.00    +0.000 A 
ATOM     23  C   UNL     1       3.436   7.134  17.211  0.00  0.00    +0.000 C 
ATOM     24  C   UNL     1       2.225   7.252  19.535  0.00  0.00    +0.000 A 
ATOM     25  C   UNL     1       1.465   8.308  20.154  0.00  0.00    +0.000 A 
ATOM     26  C   UNL     1       0.901   8.512  21.429  0.00  0.00    +0.000 A 
ATOM     27  H   UNL     1       1.992   9.465  17.228  0.00  0.00    +0.000 HD
BRANCH  17  29
ATOM     28  C   UNL     1      -1.316  10.783  23.229  0.00  0.00    +0.000 C 
ATOM     29  O   UNL     1      -0.584   9.609  22.875  0.00  0.00    +0.000 OA
ENDBRANCH  17  29
ENDBRANCH  16  24
ENDBRANCH   1  16
TORSDOF 7
ENDMDL
MODEL 2
REMARK VINA RESULT:      -7.5      3.110      4.954
REMARK  Name = 
REMARK  10 active torsions:
REMARK  status: ('A' for Active; 'I' for Inactive)
REMARK    1  A    between atoms: C_1  and  O_2
REMARK    2  A    between atoms: O_2  and  C_3
REMARK    3  A    between atoms: C_8  and  C_9
REMARK    4  A    between atoms: C_10  and  C_11
REMARK    5  A    between atoms: C_11  and  C_12
REMARK    6  A    between atoms: C_12  and  N_13
REMARK    7  A    between atoms: N_13  and  C_14
REMARK    8  A    between atoms: C_14  and  C_15
REMARK    9  A    between atoms: C_17  and  O_18
REMARK   10  A    between atoms: O_18  and  C_19
REMARK                            x       y       z     vdW  Elec       q    Type
REMARK                         _______ _______ _______ _____ _____    ______ ____
ROOT
ATOM      1  C   UNL     1       1.739   9.957  18.192  0.00  0.00    +0.000 C 
ENDROOT
BRANCH   1   2
ATOM      2  N   UNL     1       2.162   8.764  17.437  0.00  0.00    +0.000 NA
ATOM      3  H   UNL     1       2.964   8.986  16.849  0.00  0.00    +0.000 HD
BRANCH   2   4
ATOM      4  C   UNL     1       2.535   7.691  18.366  0.00  0.00    +0.000 C 
BRANCH   4   5
ATOM      5  C   UNL     1       3.357   6.599  17.715  0.00  0.00    +0.000 A 
ATOM      6  C   UNL     1       2.963   5.244  17.811  0.00  0.00    +0.000 A 
ATOM      7  C   UNL     1       3.735   4.203  17.265  0.00  0.00    +0.000 A 
ATOM      8  C   UNL     1       4.913   4.553  16.629  0.00  0.00    +0.000 A 
ATOM      9  C   UNL     1       5.307   5.871  16.539  0.00  0.00    +0.000 A 
ATOM     10  C   UNL     1       4.561   6.909  17.065  0.00  0.00    +0.000 A 
ATOM     11  O   UNL     1       6.497   6.026  15.894  0.00  0.00    +0.000 OA
ATOM     12  C   UNL     1       6.826   4.657  15.599  0.00  0.00    +0.000 C 
ATOM     13  O   UNL     1       5.822   3.724  16.038  0.00  0.00    +0.000 OA
BRANCH   7  14
ATOM     14  O   UNL     1       3.212   2.955  17.447  0.00  0.00    +0.000 OA
ATOM     15  C   UNL     1       2.364   2.761  18.570  0.00  0.00    +0.000 C 
ENDBRANCH   7  14
ENDBRANCH   4   5
ENDBRANCH   2   4
ENDBRANCH   1   2
BRANCH   1  16
ATOM     16  C   UNL     1       0.859   9.623  19.405  0.00  0.00    +0.000 C 
BRANCH  16  24
ATOM     17  C   UNL     1      -2.802  10.106  16.442  0.00  0.00    +0.000 A 
ATOM     18  C   UNL     1      -3.647  11.146  16.815  0.00  0.00    +0.000 A 
ATOM     19  C   UNL     1      -3.451  11.827  18.018  0.00  0.00    +0.000 A 
ATOM     20  C   UNL     1      -2.362  11.453  18.811  0.00  0.00    +0.000 A 
ATOM     21  N   UNL     1      -1.949  11.951  20.018  0.00  0.00    +0.000 N 
ATOM     22  C   UNL     1      -0.806  11.320  20.440  0.00  0.00    +0.000 A 
ATOM     23  C   UNL     1      -0.198  11.666  21.750  0.00  0.00    +0.000 C 
ATOM     24  C   UNL     1      -0.422  10.425  19.450  0.00  0.00    +0.000 A 
ATOM     25  C   UNL     1      -1.474  10.439  18.466  0.00  0.00    +0.000 A 
ATOM     26  C   UNL     1      -1.742   9.716  17.286  0.00  0.00    +0.000 A 
ATOM     27  H   UNL     1      -2.428  12.684  20.522  0.00  0.00    +0.000 HD
BRANCH  17  29
ATOM     28  C   UNL     1      -3.353  10.187  14.120  0.00  0.00    +0.000 C 
ATOM     29  O   UNL     1      -2.855   9.451  15.238  0.00  0.00    +0.000 OA
ENDBRANCH  17  29
ENDBRANCH  16  24
ENDBRANCH   1  16
TORSDOF 7
ENDMDL
MODEL 3
REMARK VINA RESULT:      -7.5      2.755      8.822
REMARK  Name = 
REMARK  10 active torsions:
REMARK  status: ('A' for Active; 'I' for Inactive)
REMARK    1  A    between atoms: C_1  and  O_2
REMARK    2  A    between atoms: O_2  and  C_3
REMARK    3  A    between atoms: C_8  and  C_9
REMARK    4  A    between atoms: C_10  and  C_11
REMARK    5  A    between atoms: C_11  and  C_12
REMARK    6  A    between atoms: C_12  and  N_13
REMARK    7  A    between atoms: N_13  and  C_14
REMARK    8  A    between atoms: C_14  and  C_15
REMARK    9  A    between atoms: C_17  and  O_18
REMARK   10  A    between atoms: O_18  and  C_19
REMARK                            x       y       z     vdW  Elec       q    Type
REMARK                         _______ _______ _______ _____ _____    ______ ____
ROOT
ATOM      1  C   UNL     1       2.918   8.389  17.641  0.00  0.00    +0.000 C 
ENDROOT
BRANCH   1   2
ATOM      2  N   UNL     1       1.808   9.346  17.475  0.00  0.00    +0.000 NA
ATOM      3  H   UNL     1       1.155   9.008  16.770  0.00  0.00    +0.000 HD
BRANCH   2   4
ATOM      4  C   UNL     1       1.095   9.510  18.747  0.00  0.00    +0.000 C 
BRANCH   4   5
ATOM      5  C   UNL     1      -0.246  10.195  18.593  0.00  0.00    +0.000 A 
ATOM      6  C   UNL     1      -0.708  11.105  19.573  0.00  0.00    +0.000 A 
ATOM      7  C   UNL     1      -1.972  11.714  19.487  0.00  0.00    +0.000 A 
ATOM      8  C   UNL     1      -2.764  11.384  18.401  0.00  0.00    +0.000 A 
ATOM      9  C   UNL     1      -2.323  10.491  17.447  0.00  0.00    +0.000 A 
ATOM     10  C   UNL     1      -1.082   9.885  17.511  0.00  0.00    +0.000 A 
ATOM     11  O   UNL     1      -3.237  10.274  16.461  0.00  0.00    +0.000 OA
ATOM     12  C   UNL     1      -4.317  11.115  16.903  0.00  0.00    +0.000 C 
ATOM     13  O   UNL     1      -4.018  11.835  18.112  0.00  0.00    +0.000 OA
BRANCH   7  14
ATOM     14  O   UNL     1      -2.263  12.565  20.514  0.00  0.00    +0.000 OA
ATOM     15  C   UNL     1      -1.654  12.301  21.771  0.00  0.00    +0.000 C 
ENDBRANCH   7  14
ENDBRANCH   4   5
ENDBRANCH   2   4
ENDBRANCH   1   2
BRANCH   1  16
ATOM     16  C   UNL     1       2.508   7.118  18.397  0.00  0.00    +0.000 C 
BRANCH  16  24
ATOM     17  C   UNL     1       6.854   6.219  16.749  0.00  0.00    +0.000 A 
ATOM     18  C   UNL     1       6.948   4.959  16.171  0.00  0.00    +0.000 A 
ATOM     19  C   UNL     1       5.879   4.063  16.238  0.00  0.00    +0.000 A 
ATOM     20  C   UNL     1       4.708   4.488  16.872  0.00  0.00    +0.000 A 
ATOM     21  N   UNL     1       3.530   3.819  17.073  0.00  0.00    +0.000 N 
ATOM     22  C   UNL     1       2.618   4.619  17.713  0.00  0.00    +0.000 A 
ATOM     23  C   UNL     1       1.280   4.088  18.077  0.00  0.00    +0.000 C 
ATOM     24  C   UNL     1       3.193   5.872  17.882  0.00  0.00    +0.000 A 
ATOM     25  C   UNL     1       4.559   5.750  17.440  0.00  0.00    +0.000 A 
ATOM     26  C   UNL     1       5.680   6.604  17.427  0.00  0.00    +0.000 A 
ATOM     27  H   UNL     1       3.365   2.865  16.784  0.00  0.00    +0.000 HD
BRANCH  17  29
ATOM     28  C   UNL     1       7.837   8.190  17.674  0.00  0.00    +0.000 C 
ATOM     29  O   UNL     1       7.810   7.199  16.646  0.00  0.00    +0.000 OA
ENDBRANCH  17  29
ENDBRANCH  16  24
ENDBRANCH   1  16
TORSDOF 7
ENDMDL
MODEL 4
REMARK VINA RESULT:      -7.5      1.825      8.495
REMARK  Name = 
REMARK  10 active torsions:
REMARK  status: ('A' for Active; 'I' for Inactive)
REMARK    1  A    between atoms: C_1  and  O_2
REMARK    2  A    between atoms: O_2  and  C_3
REMARK    3  A    between atoms: C_8  and  C_9
REMARK    4  A    between atoms: C_10  and  C_11
REMARK    5  A    between atoms: C_11  and  C_12
REMARK    6  A    between atoms: C_12  and  N_13
REMARK    7  A    between atoms: N_13  and  C_14
REMARK    8  A    between atoms: C_14  and  C_15
REMARK    9  A    between atoms: C_17  and  O_18
REMARK   10  A    between atoms: O_18  and  C_19
REMARK                            x       y       z     vdW  Elec       q    Type
REMARK                         _______ _______ _______ _____ _____    ______ ____
ROOT
ATOM      1  C   UNL     1       2.404   5.640  20.290  0.00  0.00    +0.000 C 
ENDROOT
BRANCH   1   2
ATOM      2  N   UNL     1       1.920   6.877  20.931  0.00  0.00    +0.000 NA
ATOM      3  H   UNL     1       2.567   7.171  21.662  0.00  0.00    +0.000 HD
BRANCH   2   4
ATOM      4  C   UNL     1       1.810   7.947  19.933  0.00  0.00    +0.000 C 
BRANCH   4   5
ATOM      5  C   UNL     1       0.870   9.057  20.352  0.00  0.00    +0.000 A 
ATOM      6  C   UNL     1       0.346   9.959  19.396  0.00  0.00    +0.000 A 
ATOM      7  C   UNL     1      -0.484  11.033  19.761  0.00  0.00    +0.000 A 
ATOM      8  C   UNL     1      -0.769  11.186  21.107  0.00  0.00    +0.000 A 
ATOM      9  C   UNL     1      -0.255  10.316  22.045  0.00  0.00    +0.000 A 
ATOM     10  C   UNL     1       0.559   9.251  21.706  0.00  0.00    +0.000 A 
ATOM     11  O   UNL     1      -0.628  10.627  23.318  0.00  0.00    +0.000 OA
ATOM     12  C   UNL     1      -1.422  11.804  23.087  0.00  0.00    +0.000 C 
ATOM     13  O   UNL     1      -1.535  12.150  21.696  0.00  0.00    +0.000 OA
BRANCH   7  14
ATOM     14  O   UNL     1      -0.902  11.807  18.718  0.00  0.00    +0.000 OA
ATOM     15  C   UNL     1      -0.200  13.021  18.484  0.00  0.00    +0.000 C 
ENDBRANCH   7  14
ENDBRANCH   4   5
ENDBRANCH   2   4
ENDBRANCH   1   2
BRANCH   1  16
ATOM     16  C   UNL     1       2.355   5.697  18.757  0.00  0.00    +0.000 C 
BRANCH  16  24
ATOM     17  C   UNL     1       6.614   6.412  16.818  0.00  0.00    +0.000 A 
ATOM     18  C   UNL     1       7.069   5.298  16.122  0.00  0.00    +0.000 A 
ATOM     19  C   UNL     1       6.360   4.096  16.159  0.00  0.00    +0.000 A 
ATOM     20  C   UNL     1       5.167   4.062  16.888  0.00  0.00    +0.000 A 
ATOM     21  N   UNL     1       4.292   3.027  17.084  0.00  0.00    +0.000 N 
ATOM     22  C   UNL     1       3.222   3.432  17.840  0.00  0.00    +0.000 A 
ATOM     23  C   UNL     1       2.163   2.462  18.221  0.00  0.00    +0.000 C 
ATOM     24  C   UNL     1       3.367   4.789  18.095  0.00  0.00    +0.000 A 
ATOM     25  C   UNL     1       4.658   5.159  17.576  0.00  0.00    +0.000 A 
ATOM     26  C   UNL     1       5.435   6.336  17.586  0.00  0.00    +0.000 A 
ATOM     27  H   UNL     1       4.426   2.096  16.717  0.00  0.00    +0.000 HD
BRANCH  17  29
ATOM     28  C   UNL     1       7.969   8.068  17.879  0.00  0.00    +0.000 C 
ATOM     29  O   UNL     1       7.185   7.658  16.758  0.00  0.00    +0.000 OA
ENDBRANCH  17  29
ENDBRANCH  16  24
ENDBRANCH   1  16
TORSDOF 7
ENDMDL
MODEL 5
REMARK VINA RESULT:      -7.4      1.877      8.956
REMARK  Name = 
REMARK  10 active torsions:
REMARK  status: ('A' for Active; 'I' for Inactive)
REMARK    1  A    between atoms: C_1  and  O_2
REMARK    2  A    between atoms: O_2  and  C_3
REMARK    3  A    between atoms: C_8  and  C_9
REMARK    4  A    between atoms: C_10  and  C_11
REMARK    5  A    between atoms: C_11  and  C_12
REMARK    6  A    between atoms: C_12  and  N_13
REMARK    7  A    between atoms: N_13  and  C_14
REMARK    8  A    between atoms: C_14  and  C_15
REMARK    9  A    between atoms: C_17  and  O_18
REMARK   10  A    between atoms: O_18  and  C_19
REMARK                            x       y       z     vdW  Elec       q    Type
REMARK                         _______ _______ _______ _____ _____    ______ ____
ROOT
ATOM      1  C   UNL     1       2.680   8.047  17.760  0.00  0.00    +0.000 C 
ENDROOT
BRANCH   1   2
ATOM      2  N   UNL     1       1.885   9.164  18.304  0.00  0.00    +0.000 NA
ATOM      3  H   UNL     1       1.130   9.403  17.662  0.00  0.00    +0.000 HD
BRANCH   2   4
ATOM      4  C   UNL     1       1.308   8.782  19.598  0.00  0.00    +0.000 C 
BRANCH   4   5
ATOM      5  C   UNL     1       0.335   9.807  20.140  0.00  0.00    +0.000 A 
ATOM      6  C   UNL     1      -0.563  10.478  19.277  0.00  0.00    +0.000 A 
ATOM      7  C   UNL     1      -1.440  11.474  19.741  0.00  0.00    +0.000 A 
ATOM      8  C   UNL     1      -1.389  11.788  21.088  0.00  0.00    +0.000 A 
ATOM      9  C   UNL     1      -0.510  11.144  21.933  0.00  0.00    +0.000 A 
ATOM     10  C   UNL     1       0.356  10.159  21.498  0.00  0.00    +0.000 A 
ATOM     11  O   UNL     1      -0.588  11.590  23.218  0.00  0.00    +0.000 OA
ATOM     12  C   UNL     1      -1.601  12.603  23.092  0.00  0.00    +0.000 C 
ATOM     13  O   UNL     1      -2.128  12.718  21.759  0.00  0.00    +0.000 OA
BRANCH   7  14
ATOM     14  O   UNL     1      -2.238  12.020  18.777  0.00  0.00    +0.000 OA
ATOM     15  C   UNL     1      -2.064  11.556  17.445  0.00  0.00    +0.000 C 
ENDBRANCH   7  14
ENDBRANCH   4   5
ENDBRANCH   2   4
ENDBRANCH   1   2
BRANCH   1  16
ATOM     16  C   UNL     1       2.605   6.779  18.622  0.00  0.00    +0.000 C 
BRANCH  16  24
ATOM     17  C   UNL     1       6.850   6.048  16.656  0.00  0.00    +0.000 A 
ATOM     18  C   UNL     1       6.916   4.834  15.982  0.00  0.00    +0.000 A 
ATOM     19  C   UNL     1       5.858   3.925  16.046  0.00  0.00    +0.000 A 
ATOM     20  C   UNL     1       4.725   4.291  16.779  0.00  0.00    +0.000 A 
ATOM     21  N   UNL     1       3.565   3.596  16.999  0.00  0.00    +0.000 N 
ATOM     22  C   UNL     1       2.689   4.338  17.750  0.00  0.00    +0.000 A 
ATOM     23  C   UNL     1       1.378   3.768  18.153  0.00  0.00    +0.000 C 
ATOM     24  C   UNL     1       3.265   5.581  17.976  0.00  0.00    +0.000 A 
ATOM     25  C   UNL     1       4.603   5.506  17.446  0.00  0.00    +0.000 A 
ATOM     26  C   UNL     1       5.716   6.370  17.429  0.00  0.00    +0.000 A 
ATOM     27  H   UNL     1       3.389   2.665  16.651  0.00  0.00    +0.000 HD
BRANCH  17  29
ATOM     28  C   UNL     1       7.912   7.923  17.686  0.00  0.00    +0.000 C 
ATOM     29  O   UNL     1       7.791   7.043  16.568  0.00  0.00    +0.000 OA
ENDBRANCH  17  29
ENDBRANCH  16  24
ENDBRANCH   1  16
TORSDOF 7
ENDMDL
MODEL 6
REMARK VINA RESULT:      -7.4      3.454      9.434
REMARK  Name = 
REMARK  10 active torsions:
REMARK  status: ('A' for Active; 'I' for Inactive)
REMARK    1  A    between atoms: C_1  and  O_2
REMARK    2  A    between atoms: O_2  and  C_3
REMARK    3  A    between atoms: C_8  and  C_9
REMARK    4  A    between atoms: C_10  and  C_11
REMARK    5  A    between atoms: C_11  and  C_12
REMARK    6  A    between atoms: C_12  and  N_13
REMARK    7  A    between atoms: N_13  and  C_14
REMARK    8  A    between atoms: C_14  and  C_15
REMARK    9  A    between atoms: C_17  and  O_18
REMARK   10  A    between atoms: O_18  and  C_19
REMARK                            x       y       z     vdW  Elec       q    Type
REMARK                         _______ _______ _______ _____ _____    ______ ____
ROOT
ATOM      1  C   UNL     1       1.836   9.014  18.628  0.00  0.00    +0.000 C 
ENDROOT
BRANCH   1   2
ATOM      2  N   UNL     1       1.115  10.090  17.923  0.00  0.00    +0.000 NA
ATOM      3  H   UNL     1       0.544   9.698  17.175  0.00  0.00    +0.000 HD
BRANCH   2   4
ATOM      4  C   UNL     1       0.244  10.806  18.862  0.00  0.00    +0.000 C 
BRANCH   4   5
ATOM      5  C   UNL     1      -1.203  10.843  18.421  0.00  0.00    +0.000 A 
ATOM      6  C   UNL     1      -1.624  10.145  17.266  0.00  0.00    +0.000 A 
ATOM      7  C   UNL     1      -2.949  10.205  16.799  0.00  0.00    +0.000 A 
ATOM      8  C   UNL     1      -3.839  10.988  17.513  0.00  0.00    +0.000 A 
ATOM      9  C   UNL     1      -3.433  11.678  18.636  0.00  0.00    +0.000 A 
ATOM     10  C   UNL     1      -2.137  11.629  19.113  0.00  0.00    +0.000 A 
ATOM     11  O   UNL     1      -4.436  12.406  19.201  0.00  0.00    +0.000 OA
ATOM     12  C   UNL     1      -5.521  12.117  18.302  0.00  0.00    +0.000 C 
ATOM     13  O   UNL     1      -5.159  11.206  17.250  0.00  0.00    +0.000 OA
BRANCH   7  14
ATOM     14  O   UNL     1      -3.186   9.473  15.671  0.00  0.00    +0.000 OA
ATOM     15  C   UNL     1      -3.170  10.165  14.430  0.00  0.00    +0.000 C 
ENDBRANCH   7  14
ENDBRANCH   4   5
ENDBRANCH   2   4
ENDBRANCH   1   2
BRANCH   1  16
ATOM     16  C   UNL     1       2.004   7.746  17.780  0.00  0.00    +0.000 C 
BRANCH  16  24
ATOM     17  C   UNL     1       6.040   5.661  16.447  0.00  0.00    +0.000 A 
ATOM     18  C   UNL     1       6.382   4.599  17.276  0.00  0.00    +0.000 A 
ATOM     19  C   UNL     1       5.648   4.332  18.433  0.00  0.00    +0.000 A 
ATOM     20  C   UNL     1       4.544   5.144  18.708  0.00  0.00    +0.000 A 
ATOM     21  N   UNL     1       3.667   5.100  19.759  0.00  0.00    +0.000 N 
ATOM     22  C   UNL     1       2.699   6.062  19.627  0.00  0.00    +0.000 A 
ATOM     23  C   UNL     1       1.662   6.233  20.677  0.00  0.00    +0.000 C 
ATOM     24  C   UNL     1       2.910   6.718  18.421  0.00  0.00    +0.000 A 
ATOM     25  C   UNL     1       4.146   6.199  17.893  0.00  0.00    +0.000 A 
ATOM     26  C   UNL     1       4.952   6.494  16.775  0.00  0.00    +0.000 A 
ATOM     27  H   UNL     1       3.732   4.442  20.524  0.00  0.00    +0.000 HD
BRANCH  17  29
ATOM     28  C   UNL     1       6.915   4.824  14.388  0.00  0.00    +0.000 C 
ATOM     29  O   UNL     1       6.636   5.935  15.242  0.00  0.00    +0.000 OA
ENDBRANCH  17  29
ENDBRANCH  16  24
ENDBRANCH   1  16
TORSDOF 7
ENDMDL
MODEL 7
REMARK VINA RESULT:      -7.4      1.903      8.030
REMARK  Name = 
REMARK  10 active torsions:
REMARK  status: ('A' for Active; 'I' for Inactive)
REMARK    1  A    between atoms: C_1  and  O_2
REMARK    2  A    between atoms: O_2  and  C_3
REMARK    3  A    between atoms: C_8  and  C_9
REMARK    4  A    between atoms: C_10  and  C_11
REMARK    5  A    between atoms: C_11  and  C_12
REMARK    6  A    between atoms: C_12  and  N_13
REMARK    7  A    between atoms: N_13  and  C_14
REMARK    8  A    between atoms: C_14  and  C_15
REMARK    9  A    between atoms: C_17  and  O_18
REMARK   10  A    between atoms: O_18  and  C_19
REMARK                            x       y       z     vdW  Elec       q    Type
REMARK                         _______ _______ _______ _____ _____    ______ ____
ROOT
ATOM      1  C   UNL     1       2.095   5.255  19.997  0.00  0.00    +0.000 C 
ENDROOT
BRANCH   1   2
ATOM      2  N   UNL     1       2.179   6.627  20.531  0.00  0.00    +0.000 NA
ATOM      3  H   UNL     1       3.049   6.750  21.048  0.00  0.00    +0.000 HD
BRANCH   2   4
ATOM      4  C   UNL     1       2.138   7.595  19.429  0.00  0.00    +0.000 C 
BRANCH   4   5
ATOM      5  C   UNL     1       1.418   8.877  19.790  0.00  0.00    +0.000 A 
ATOM      6  C   UNL     1       1.114   9.178  21.138  0.00  0.00    +0.000 A 
ATOM      7  C   UNL     1       0.398  10.333  21.500  0.00  0.00    +0.000 A 
ATOM      8  C   UNL     1      -0.012  11.173  20.479  0.00  0.00    +0.000 A 
ATOM      9  C   UNL     1       0.275  10.880  19.163  0.00  0.00    +0.000 A 
ATOM     10  C   UNL     1       0.981   9.753  18.786  0.00  0.00    +0.000 A 
ATOM     11  O   UNL     1      -0.217  11.808  18.294  0.00  0.00    +0.000 OA
ATOM     12  C   UNL     1      -0.866  12.713  19.205  0.00  0.00    +0.000 C 
ATOM     13  O   UNL     1      -0.721  12.333  20.584  0.00  0.00    +0.000 OA
BRANCH   7  14
ATOM     14  O   UNL     1       0.188  10.472  22.842  0.00  0.00    +0.000 OA
ATOM     15  C   UNL     1      -1.160  10.554  23.286  0.00  0.00    +0.000 C 
ENDBRANCH   7  14
ENDBRANCH   4   5
ENDBRANCH   2   4
ENDBRANCH   1   2
BRANCH   1  16
ATOM     16  C   UNL     1       2.141   5.201  18.464  0.00  0.00    +0.000 C 
BRANCH  16  24
ATOM     17  C   UNL     1       6.421   6.654  17.056  0.00  0.00    +0.000 A 
ATOM     18  C   UNL     1       7.137   5.646  16.420  0.00  0.00    +0.000 A 
ATOM     19  C   UNL     1       6.641   4.341  16.372  0.00  0.00    +0.000 A 
ATOM     20  C   UNL     1       5.392   4.095  16.951  0.00  0.00    +0.000 A 
ATOM     21  N   UNL     1       4.686   2.925  17.040  0.00  0.00    +0.000 N 
ATOM     22  C   UNL     1       3.480   3.130  17.661  0.00  0.00    +0.000 A 
ATOM     23  C   UNL     1       2.561   1.990  17.910  0.00  0.00    +0.000 C 
ATOM     24  C   UNL     1       3.363   4.488  17.931  0.00  0.00    +0.000 A 
ATOM     25  C   UNL     1       4.627   5.078  17.572  0.00  0.00    +0.000 A 
ATOM     26  C   UNL     1       5.188   6.367  17.675  0.00  0.00    +0.000 A 
ATOM     27  H   UNL     1       5.017   2.036  16.693  0.00  0.00    +0.000 HD
BRANCH  17  29
ATOM     28  C   UNL     1       7.983   8.322  17.751  0.00  0.00    +0.000 C 
ATOM     29  O   UNL     1       6.779   7.979  17.064  0.00  0.00    +0.000 OA
ENDBRANCH  17  29
ENDBRANCH  16  24
ENDBRANCH   1  16
TORSDOF 7
ENDMDL
MODEL 8
REMARK VINA RESULT:      -7.4      2.438      8.887
REMARK  Name = 
REMARK  10 active torsions:
REMARK  status: ('A' for Active; 'I' for Inactive)
REMARK    1  A    between atoms: C_1  and  O_2
REMARK    2  A    between atoms: O_2  and  C_3
REMARK    3  A    between atoms: C_8  and  C_9
REMARK    4  A    between atoms: C_10  and  C_11
REMARK    5  A    between atoms: C_11  and  C_12
REMARK    6  A    between atoms: C_12  and  N_13
REMARK    7  A    between atoms: N_13  and  C_14
REMARK    8  A    between atoms: C_14  and  C_15
REMARK    9  A    between atoms: C_17  and  O_18
REMARK   10  A    between atoms: O_18  and  C_19
REMARK                            x       y       z     vdW  Elec       q    Type
REMARK                         _______ _______ _______ _____ _____    ______ ____
ROOT
ATOM      1  C   UNL     1       3.528   4.705  17.179  0.00  0.00    +0.000 C 
ENDROOT
BRANCH   1   2
ATOM      2  N   UNL     1       3.511   5.680  18.285  0.00  0.00    +0.000 NA
ATOM      3  H   UNL     1       4.403   5.667  18.778  0.00  0.00    +0.000 HD
BRANCH   2   4
ATOM      4  C   UNL     1       3.278   7.030  17.758  0.00  0.00    +0.000 C 
BRANCH   4   5
ATOM      5  C   UNL     1       2.316   7.839  18.601  0.00  0.00    +0.000 A 
ATOM      6  C   UNL     1       1.588   8.912  18.035  0.00  0.00    +0.000 A 
ATOM      7  C   UNL     1       0.729   9.717  18.803  0.00  0.00    +0.000 A 
ATOM      8  C   UNL     1       0.624   9.427  20.153  0.00  0.00    +0.000 A 
ATOM      9  C   UNL     1       1.337   8.387  20.712  0.00  0.00    +0.000 A 
ATOM     10  C   UNL     1       2.183   7.582  19.973  0.00  0.00    +0.000 A 
ATOM     11  O   UNL     1       1.123   8.257  22.051  0.00  0.00    +0.000 OA
ATOM     12  C   UNL     1       0.207   9.342  22.285  0.00  0.00    +0.000 C 
ATOM     13  O   UNL     1      -0.131  10.068  21.091  0.00  0.00    +0.000 OA
BRANCH   7  14
ATOM     14  O   UNL     1       0.104  10.709  18.104  0.00  0.00    +0.000 OA
ATOM     15  C   UNL     1      -1.299  10.586  17.910  0.00  0.00    +0.000 C 
ENDBRANCH   7  14
ENDBRANCH   4   5
ENDBRANCH   2   4
ENDBRANCH   1   2
BRANCH   1  16
ATOM     16  C   UNL     1       4.855   3.944  17.066  0.00  0.00    +0.000 C 
BRANCH  16  24
ATOM     17  C   UNL     1       5.878   3.431  12.473  0.00  0.00    +0.000 A 
ATOM     18  C   UNL     1       7.037   4.108  12.113  0.00  0.00    +0.000 A 
ATOM     19  C   UNL     1       7.688   4.941  13.024  0.00  0.00    +0.000 A 
ATOM     20  C   UNL     1       7.156   5.042  14.314  0.00  0.00    +0.000 A 
ATOM     21  N   UNL     1       7.592   5.777  15.384  0.00  0.00    +0.000 N 
ATOM     22  C   UNL     1       6.796   5.561  16.480  0.00  0.00    +0.000 A 
ATOM     23  C   UNL     1       7.052   6.290  17.748  0.00  0.00    +0.000 C 
ATOM     24  C   UNL     1       5.845   4.608  16.136  0.00  0.00    +0.000 A 
ATOM     25  C   UNL     1       6.015   4.361  14.727  0.00  0.00    +0.000 A 
ATOM     26  C   UNL     1       5.335   3.590  13.763  0.00  0.00    +0.000 A 
ATOM     27  H   UNL     1       8.394   6.391  15.360  0.00  0.00    +0.000 HD
BRANCH  17  29
ATOM     28  C   UNL     1       5.995   1.401  11.219  0.00  0.00    +0.000 C 
ATOM     29  O   UNL     1       5.230   2.516  11.681  0.00  0.00    +0.000 OA
ENDBRANCH  17  29
ENDBRANCH  16  24
ENDBRANCH   1  16
TORSDOF 7
ENDMDL
MODEL 9
REMARK VINA RESULT:      -7.3      4.380      7.492
REMARK  Name = 
REMARK  10 active torsions:
REMARK  status: ('A' for Active; 'I' for Inactive)
REMARK    1  A    between atoms: C_1  and  O_2
REMARK    2  A    between atoms: O_2  and  C_3
REMARK    3  A    between atoms: C_8  and  C_9
REMARK    4  A    between atoms: C_10  and  C_11
REMARK    5  A    between atoms: C_11  and  C_12
REMARK    6  A    between atoms: C_12  and  N_13
REMARK    7  A    between atoms: N_13  and  C_14
REMARK    8  A    between atoms: C_14  and  C_15
REMARK    9  A    between atoms: C_17  and  O_18
REMARK   10  A    between atoms: O_18  and  C_19
REMARK                            x       y       z     vdW  Elec       q    Type
REMARK                         _______ _______ _______ _____ _____    ______ ____
ROOT
ATOM      1  C   UNL     1       7.340   7.283  17.440  0.00  0.00    +0.000 C 
ENDROOT
BRANCH   1   2
ATOM      2  N   UNL     1       7.710   8.692  17.670  0.00  0.00    +0.000 NA
ATOM      3  H   UNL     1       6.886   9.236  17.921  0.00  0.00    +0.000 HD
BRANCH   2   4
ATOM      4  C   UNL     1       8.690   8.779  18.759  0.00  0.00    +0.000 C 
BRANCH   4   5
ATOM      5  C   UNL     1       9.211  10.183  18.978  0.00  0.00    +0.000 A 
ATOM      6  C   UNL     1       9.334  10.712  20.285  0.00  0.00    +0.000 A 
ATOM      7  C   UNL     1       9.761  12.030  20.519  0.00  0.00    +0.000 A 
ATOM      8  C   UNL     1      10.055  12.809  19.412  0.00  0.00    +0.000 A 
ATOM      9  C   UNL     1       9.930  12.302  18.136  0.00  0.00    +0.000 A 
ATOM     10  C   UNL     1       9.515  11.008  17.885  0.00  0.00    +0.000 A 
ATOM     11  O   UNL     1      10.246  13.211  17.172  0.00  0.00    +0.000 OA
ATOM     12  C   UNL     1      10.569  14.359  17.977  0.00  0.00    +0.000 C 
ATOM     13  O   UNL     1      10.473  14.107  19.389  0.00  0.00    +0.000 OA
BRANCH   7  14
ATOM     14  O   UNL     1       9.823  12.381  21.836  0.00  0.00    +0.000 OA
ATOM     15  C   UNL     1       8.721  13.101  22.372  0.00  0.00    +0.000 C 
ENDBRANCH   7  14
ENDBRANCH   4   5
ENDBRANCH   2   4
ENDBRANCH   1   2
BRANCH   1  16
ATOM     16  C   UNL     1       5.928   7.119  16.861  0.00  0.00    +0.000 C 
BRANCH  16  24
ATOM     17  C   UNL     1       2.638   4.410  18.923  0.00  0.00    +0.000 A 
ATOM     18  C   UNL     1       2.791   3.064  18.608  0.00  0.00    +0.000 A 
ATOM     19  C   UNL     1       3.739   2.656  17.668  0.00  0.00    +0.000 A 
ATOM     20  C   UNL     1       4.547   3.637  17.085  0.00  0.00    +0.000 A 
ATOM     21  N   UNL     1       5.540   3.509  16.151  0.00  0.00    +0.000 N 
ATOM     22  C   UNL     1       6.110   4.726  15.876  0.00  0.00    +0.000 A 
ATOM     23  C   UNL     1       7.182   4.839  14.854  0.00  0.00    +0.000 C 
ATOM     24  C   UNL     1       5.515   5.673  16.701  0.00  0.00    +0.000 A 
ATOM     25  C   UNL     1       4.450   4.991  17.391  0.00  0.00    +0.000 A 
ATOM     26  C   UNL     1       3.432   5.383  18.283  0.00  0.00    +0.000 A 
ATOM     27  H   UNL     1       5.810   2.632  15.728  0.00  0.00    +0.000 HD
BRANCH  17  29
ATOM     28  C   UNL     1       0.974   3.945  20.573  0.00  0.00    +0.000 C 
ATOM     29  O   UNL     1       1.808   4.893  19.903  0.00  0.00    +0.000 OA
ENDBRANCH  17  29
ENDBRANCH  16  24
ENDBRANCH   1  16
TORSDOF 7
ENDMDL
