MODEL 1
REMARK VINA RESULT:      -8.1      0.000      0.000
REMARK  Name = 
REMARK  5 active torsions:
REMARK  status: ('A' for Active; 'I' for Inactive)
REMARK    1  A    between atoms: C_1  and  C_2
REMARK    2  A    between atoms: C_2  and  C_3
REMARK    3  A    between atoms: C_8  and  N_9
REMARK    4  A    between atoms: C_13  and  C_14
REMARK    5  A    between atoms: C_18  and  C_19
REMARK                            x       y       z     vdW  Elec       q    Type
REMARK                         _______ _______ _______ _____ _____    ______ ____
ROOT
ATOM      1  N   UNL     1       3.248   7.037  17.603  0.00  0.00    +0.000 N 
ATOM      2  C   UNL     1       2.450   7.647  18.563  0.00  0.00    +0.000 A 
ATOM      3  N   UNL     1       2.386   7.114  19.783  0.00  0.00    +0.000 NA
ATOM      4  C   UNL     1       1.672   7.779  20.706  0.00  0.00    +0.000 A 
ATOM      5  C   UNL     1       0.998   8.958  20.474  0.00  0.00    +0.000 A 
ATOM      6  C   UNL     1       1.061   9.415  19.170  0.00  0.00    +0.000 A 
ATOM      7  N   UNL     1       1.804   8.775  18.219  0.00  0.00    +0.000 NA
ATOM      8  H   UNL     1       3.409   7.687  16.848  0.00  0.00    +0.000 HD
ENDROOT
BRANCH   6   9
ATOM      9  C   UNL     1       0.401  10.656  18.726  0.00  0.00    +0.000 A 
ATOM     10  C   UNL     1      -0.812  10.704  18.052  0.00  0.00    +0.000 A 
ATOM     11  N   UNL     1      -1.197  12.012  17.924  0.00  0.00    +0.000 N 
ATOM     12  C   UNL     1      -0.212  12.842  18.391  0.00  0.00    +0.000 A 
ATOM     13  C   UNL     1      -0.170  14.241  18.438  0.00  0.00    +0.000 A 
ATOM     14  C   UNL     1       0.992  14.838  18.929  0.00  0.00    +0.000 A 
ATOM     15  C   UNL     1       2.065  14.062  19.357  0.00  0.00    +0.000 A 
ATOM     16  C   UNL     1       1.992  12.662  19.332  0.00  0.00    +0.000 A 
ATOM     17  C   UNL     1       0.829  12.025  18.848  0.00  0.00    +0.000 A 
ATOM     18  H   UNL     1      -2.071  12.328  17.521  0.00  0.00    +0.000 HD
ENDBRANCH   6   9
BRANCH   1  26
ATOM     19  C   UNL     1       5.340   3.842  18.250  0.00  0.00    +0.000 C 
ATOM     20  C   UNL     1       4.277   4.739  17.560  0.00  0.00    +0.000 C 
ATOM     21  C   UNL     1       2.907   4.126  17.907  0.00  0.00    +0.000 C 
ATOM     22  C   UNL     1       4.498   4.694  16.029  0.00  0.00    +0.000 C 
ATOM     23  C   UNL     1       5.788   5.394  15.593  0.00  0.00    +0.000 C 
ATOM     24  N   UNL     1       5.899   6.762  16.097  0.00  0.00    +0.000 NA
ATOM     25  C   UNL     1       5.739   6.826  17.559  0.00  0.00    +0.000 C 
ATOM     26  C   UNL     1       4.396   6.223  18.063  0.00  0.00    +0.000 C 
ATOM     27  H   UNL     1       5.176   7.341  15.671  0.00  0.00    +0.000 HD
ENDBRANCH   1  26
BRANCH   5  28
ATOM     28  C   UNL     1       0.326   9.636  21.615  0.00  0.00    +0.000 C 
ATOM     29  F   UNL     1       0.904  10.838  21.922  0.00  0.00    +0.000 F 
ATOM     30  F   UNL     1      -0.983   9.929  21.391  0.00  0.00    +0.000 F 
ATOM     31  F   UNL     1       0.377   8.935  22.782  0.00  0.00    +0.000 F 
ENDBRANCH   5  28
TORSDOF 3
ENDMDL
MODEL 2
REMARK VINA RESULT:      -8.1      2.769      7.732
REMARK  Name = 
REMARK  5 active torsions:
REMARK  status: ('A' for Active; 'I' for Inactive)
REMARK    1  A    between atoms: C_1  and  C_2
REMARK    2  A    between atoms: C_2  and  C_3
REMARK    3  A    between atoms: C_8  and  N_9
REMARK    4  A    between atoms: C_13  and  C_14
REMARK    5  A    between atoms: C_18  and  C_19
REMARK                            x       y       z     vdW  Elec       q    Type
REMARK                         _______ _______ _______ _____ _____    ______ ____
ROOT
ATOM      1  N   UNL     1       1.533   9.046  19.555  0.00  0.00    +0.000 N 
ATOM      2  C   UNL     1       1.792   7.707  19.819  0.00  0.00    +0.000 A 
ATOM      3  N   UNL     1       1.178   7.120  20.847  0.00  0.00    +0.000 NA
ATOM      4  C   UNL     1       1.388   5.805  21.019  0.00  0.00    +0.000 A 
ATOM      5  C   UNL     1       2.200   5.032  20.218  0.00  0.00    +0.000 A 
ATOM      6  C   UNL     1       2.850   5.723  19.211  0.00  0.00    +0.000 A 
ATOM      7  N   UNL     1       2.631   7.054  18.996  0.00  0.00    +0.000 NA
ATOM      8  H   UNL     1       1.841   9.261  18.619  0.00  0.00    +0.000 HD
ENDROOT
BRANCH   6   9
ATOM      9  C   UNL     1       3.763   5.070  18.256  0.00  0.00    +0.000 A 
ATOM     10  C   UNL     1       3.353   4.332  17.154  0.00  0.00    +0.000 A 
ATOM     11  N   UNL     1       4.453   3.998  16.409  0.00  0.00    +0.000 N 
ATOM     12  C   UNL     1       5.596   4.394  17.052  0.00  0.00    +0.000 A 
ATOM     13  C   UNL     1       6.935   4.242  16.670  0.00  0.00    +0.000 A 
ATOM     14  C   UNL     1       7.916   4.705  17.548  0.00  0.00    +0.000 A 
ATOM     15  C   UNL     1       7.566   5.297  18.758  0.00  0.00    +0.000 A 
ATOM     16  C   UNL     1       6.220   5.469  19.109  0.00  0.00    +0.000 A 
ATOM     17  C   UNL     1       5.202   5.018  18.241  0.00  0.00    +0.000 A 
ATOM     18  H   UNL     1       4.433   3.507  15.523  0.00  0.00    +0.000 HD
ENDBRANCH   6   9
BRANCH   1  26
ATOM     19  C   UNL     1      -0.936  11.020  21.793  0.00  0.00    +0.000 C 
ATOM     20  C   UNL     1       0.433  10.631  21.173  0.00  0.00    +0.000 C 
ATOM     21  C   UNL     1       1.269  10.030  22.320  0.00  0.00    +0.000 C 
ATOM     22  C   UNL     1       1.123  11.908  20.636  0.00  0.00    +0.000 C 
ATOM     23  C   UNL     1       0.413  12.498  19.414  0.00  0.00    +0.000 C 
ATOM     24  N   UNL     1       0.209  11.524  18.342  0.00  0.00    +0.000 NA
ATOM     25  C   UNL     1      -0.489  10.318  18.819  0.00  0.00    +0.000 C 
ATOM     26  C   UNL     1       0.237   9.607  19.998  0.00  0.00    +0.000 C 
ATOM     27  H   UNL     1       1.111  11.242  17.961  0.00  0.00    +0.000 HD
ENDBRANCH   1  26
BRANCH   5  28
ATOM     28  C   UNL     1       2.266   3.566  20.466  0.00  0.00    +0.000 C 
ATOM     29  F   UNL     1       1.692   3.210  21.657  0.00  0.00    +0.000 F 
ATOM     30  F   UNL     1       1.619   2.818  19.533  0.00  0.00    +0.000 F 
ATOM     31  F   UNL     1       3.534   3.077  20.550  0.00  0.00    +0.000 F 
ENDBRANCH   5  28
TORSDOF 3
ENDMDL
MODEL 3
REMARK VINA RESULT:      -7.9      3.022      7.908
REMARK  Name = 
REMARK  5 active torsions:
REMARK  status: ('A' for Active; 'I' for Inactive)
REMARK    1  A    between atoms: C_1  and  C_2
REMARK    2  A    between atoms: C_2  and  C_3
REMARK    3  A    between atoms: C_8  and  N_9
REMARK    4  A    between atoms: C_13  and  C_14
REMARK    5  A    between atoms: C_18  and  C_19
REMARK                            x       y       z     vdW  Elec       q    Type
REMARK                         _______ _______ _______ _____ _____    ______ ____
ROOT
ATOM      1  N   UNL     1       2.026   8.742  19.857  0.00  0.00    +0.000 N 
ATOM      2  C   UNL     1       2.286   7.377  19.899  0.00  0.00    +0.000 A 
ATOM      3  N   UNL     1       1.375   6.563  20.432  0.00  0.00    +0.000 NA
ATOM      4  C   UNL     1       1.625   5.244  20.379  0.00  0.00    +0.000 A 
ATOM      5  C   UNL     1       2.756   4.684  19.826  0.00  0.00    +0.000 A 
ATOM      6  C   UNL     1       3.681   5.595  19.348  0.00  0.00    +0.000 A 
ATOM      7  N   UNL     1       3.439   6.939  19.364  0.00  0.00    +0.000 NA
ATOM      8  H   UNL     1       2.655   9.175  19.198  0.00  0.00    +0.000 HD
ENDROOT
BRANCH   6   9
ATOM      9  C   UNL     1       4.953   5.190  18.726  0.00  0.00    +0.000 A 
ATOM     10  C   UNL     1       6.083   4.795  19.429  0.00  0.00    +0.000 A 
ATOM     11  N   UNL     1       7.027   4.351  18.541  0.00  0.00    +0.000 N 
ATOM     12  C   UNL     1       6.597   4.552  17.256  0.00  0.00    +0.000 A 
ATOM     13  C   UNL     1       7.239   4.270  16.044  0.00  0.00    +0.000 A 
ATOM     14  C   UNL     1       6.583   4.625  14.865  0.00  0.00    +0.000 A 
ATOM     15  C   UNL     1       5.333   5.236  14.902  0.00  0.00    +0.000 A 
ATOM     16  C   UNL     1       4.692   5.483  16.124  0.00  0.00    +0.000 A 
ATOM     17  C   UNL     1       5.325   5.131  17.335  0.00  0.00    +0.000 A 
ATOM     18  H   UNL     1       7.924   3.953  18.791  0.00  0.00    +0.000 HD
ENDBRANCH   6   9
BRANCH   1  26
ATOM     19  C   UNL     1      -1.195  10.460  21.150  0.00  0.00    +0.000 C 
ATOM     20  C   UNL     1       0.329  10.199  21.013  0.00  0.00    +0.000 C 
ATOM     21  C   UNL     1       0.796   9.651  22.375  0.00  0.00    +0.000 C 
ATOM     22  C   UNL     1       1.045  11.539  20.715  0.00  0.00    +0.000 C 
ATOM     23  C   UNL     1       0.722  12.089  19.322  0.00  0.00    +0.000 C 
ATOM     24  N   UNL     1       0.959  11.121  18.253  0.00  0.00    +0.000 NA
ATOM     25  C   UNL     1       0.251   9.851  18.490  0.00  0.00    +0.000 C 
ATOM     26  C   UNL     1       0.613   9.183  19.848  0.00  0.00    +0.000 C 
ATOM     27  H   UNL     1       1.957  10.922  18.189  0.00  0.00    +0.000 HD
ENDBRANCH   1  26
BRANCH   5  28
ATOM     28  C   UNL     1       2.857   3.202  19.748  0.00  0.00    +0.000 C 
ATOM     29  F   UNL     1       1.707   2.576  20.148  0.00  0.00    +0.000 F 
ATOM     30  F   UNL     1       3.089   2.729  18.494  0.00  0.00    +0.000 F 
ATOM     31  F   UNL     1       3.821   2.671  20.551  0.00  0.00    +0.000 F 
ENDBRANCH   5  28
TORSDOF 3
ENDMDL
MODEL 4
REMARK VINA RESULT:      -7.7      2.494      7.492
REMARK  Name = 
REMARK  5 active torsions:
REMARK  status: ('A' for Active; 'I' for Inactive)
REMARK    1  A    between atoms: C_1  and  C_2
REMARK    2  A    between atoms: C_2  and  C_3
REMARK    3  A    between atoms: C_8  and  N_9
REMARK    4  A    between atoms: C_13  and  C_14
REMARK    5  A    between atoms: C_18  and  C_19
REMARK                            x       y       z     vdW  Elec       q    Type
REMARK                         _______ _______ _______ _____ _____    ______ ____
ROOT
ATOM      1  N   UNL     1       1.194   9.624  19.140  0.00  0.00    +0.000 N 
ATOM      2  C   UNL     1       1.561   8.353  19.567  0.00  0.00    +0.000 A 
ATOM      3  N   UNL     1       1.218   7.959  20.793  0.00  0.00    +0.000 NA
ATOM      4  C   UNL     1       1.516   6.697  21.138  0.00  0.00    +0.000 A 
ATOM      5  C   UNL     1       2.159   5.793  20.320  0.00  0.00    +0.000 A 
ATOM      6  C   UNL     1       2.537   6.294  19.087  0.00  0.00    +0.000 A 
ATOM      7  N   UNL     1       2.221   7.565  18.700  0.00  0.00    +0.000 NA
ATOM      8  H   UNL     1       1.274   9.669  18.136  0.00  0.00    +0.000 HD
ENDROOT
BRANCH   6   9
ATOM      9  C   UNL     1       3.239   5.483  18.077  0.00  0.00    +0.000 A 
ATOM     10  C   UNL     1       2.698   4.372  17.444  0.00  0.00    +0.000 A 
ATOM     11  N   UNL     1       3.561   3.952  16.468  0.00  0.00    +0.000 N 
ATOM     12  C   UNL     1       4.719   4.684  16.515  0.00  0.00    +0.000 A 
ATOM     13  C   UNL     1       5.871   4.586  15.725  0.00  0.00    +0.000 A 
ATOM     14  C   UNL     1       6.935   5.438  16.023  0.00  0.00    +0.000 A 
ATOM     15  C   UNL     1       6.845   6.351  17.069  0.00  0.00    +0.000 A 
ATOM     16  C   UNL     1       5.672   6.456  17.830  0.00  0.00    +0.000 A 
ATOM     17  C   UNL     1       4.574   5.614  17.551  0.00  0.00    +0.000 A 
ATOM     18  H   UNL     1       3.387   3.195  15.818  0.00  0.00    +0.000 HD
ENDBRANCH   6   9
BRANCH   1  26
ATOM     19  C   UNL     1      -0.894  12.376  20.892  0.00  0.00    +0.000 C 
ATOM     20  C   UNL     1       0.246  11.785  20.020  0.00  0.00    +0.000 C 
ATOM     21  C   UNL     1       1.555  12.036  20.794  0.00  0.00    +0.000 C 
ATOM     22  C   UNL     1       0.286  12.536  18.667  0.00  0.00    +0.000 C 
ATOM     23  C   UNL     1      -0.932  12.239  17.786  0.00  0.00    +0.000 C 
ATOM     24  N   UNL     1      -1.161  10.809  17.583  0.00  0.00    +0.000 NA
ATOM     25  C   UNL     1      -1.248  10.078  18.859  0.00  0.00    +0.000 C 
ATOM     26  C   UNL     1       0.007  10.253  19.762  0.00  0.00    +0.000 C 
ATOM     27  H   UNL     1      -0.392  10.414  17.043  0.00  0.00    +0.000 HD
ENDBRANCH   1  26
BRANCH   5  28
ATOM     28  C   UNL     1       2.340   4.396  20.797  0.00  0.00    +0.000 C 
ATOM     29  F   UNL     1       1.363   3.555  20.338  0.00  0.00    +0.000 F 
ATOM     30  F   UNL     1       3.507   3.822  20.397  0.00  0.00    +0.000 F 
ATOM     31  F   UNL     1       2.283   4.263  22.152  0.00  0.00    +0.000 F 
ENDBRANCH   5  28
TORSDOF 3
ENDMDL
MODEL 5
REMARK VINA RESULT:      -7.6      3.071      8.134
REMARK  Name = 
REMARK  5 active torsions:
REMARK  status: ('A' for Active; 'I' for Inactive)
REMARK    1  A    between atoms: C_1  and  C_2
REMARK    2  A    between atoms: C_2  and  C_3
REMARK    3  A    between atoms: C_8  and  N_9
REMARK    4  A    between atoms: C_13  and  C_14
REMARK    5  A    between atoms: C_18  and  C_19
REMARK                            x       y       z     vdW  Elec       q    Type
REMARK                         _______ _______ _______ _____ _____    ______ ____
ROOT
ATOM      1  N   UNL     1       0.330  10.108  19.138  0.00  0.00    +0.000 N 
ATOM      2  C   UNL     1       1.291   9.197  18.716  0.00  0.00    +0.000 A 
ATOM      3  N   UNL     1       2.154   9.561  17.767  0.00  0.00    +0.000 NA
ATOM      4  C   UNL     1       3.120   8.685  17.447  0.00  0.00    +0.000 A 
ATOM      5  C   UNL     1       3.269   7.441  18.020  0.00  0.00    +0.000 A 
ATOM      6  C   UNL     1       2.301   7.112  18.952  0.00  0.00    +0.000 A 
ATOM      7  N   UNL     1       1.325   7.995  19.317  0.00  0.00    +0.000 NA
ATOM      8  H   UNL     1      -0.050   9.799  20.019  0.00  0.00    +0.000 HD
ENDROOT
BRANCH   6   9
ATOM      9  C   UNL     1       2.289   5.825  19.669  0.00  0.00    +0.000 A 
ATOM     10  C   UNL     1       2.448   5.687  21.041  0.00  0.00    +0.000 A 
ATOM     11  N   UNL     1       2.238   4.377  21.384  0.00  0.00    +0.000 N 
ATOM     12  C   UNL     1       2.060   3.618  20.257  0.00  0.00    +0.000 A 
ATOM     13  C   UNL     1       1.837   2.241  20.133  0.00  0.00    +0.000 A 
ATOM     14  C   UNL     1       1.735   1.714  18.845  0.00  0.00    +0.000 A 
ATOM     15  C   UNL     1       1.851   2.537  17.728  0.00  0.00    +0.000 A 
ATOM     16  C   UNL     1       2.044   3.918  17.872  0.00  0.00    +0.000 A 
ATOM     17  C   UNL     1       2.144   4.485  19.161  0.00  0.00    +0.000 A 
ATOM     18  H   UNL     1       2.238   4.011  22.328  0.00  0.00    +0.000 HD
ENDBRANCH   6   9
BRANCH   1  26
ATOM     19  C   UNL     1      -0.398  13.857  18.492  0.00  0.00    +0.000 C 
ATOM     20  C   UNL     1      -0.705  12.391  18.902  0.00  0.00    +0.000 C 
ATOM     21  C   UNL     1      -1.667  11.838  17.834  0.00  0.00    +0.000 C 
ATOM     22  C   UNL     1      -1.402  12.391  20.284  0.00  0.00    +0.000 C 
ATOM     23  C   UNL     1      -0.468  12.817  21.421  0.00  0.00    +0.000 C 
ATOM     24  N   UNL     1       0.775  12.048  21.463  0.00  0.00    +0.000 NA
ATOM     25  C   UNL     1       1.481  12.072  20.171  0.00  0.00    +0.000 C 
ATOM     26  C   UNL     1       0.620  11.551  18.983  0.00  0.00    +0.000 C 
ATOM     27  H   UNL     1       0.568  11.078  21.696  0.00  0.00    +0.000 HD
ENDBRANCH   1  26
BRANCH   5  28
ATOM     28  C   UNL     1       4.443   6.612  17.638  0.00  0.00    +0.000 C 
ATOM     29  F   UNL     1       5.468   7.360  17.123  0.00  0.00    +0.000 F 
ATOM     30  F   UNL     1       5.000   5.931  18.675  0.00  0.00    +0.000 F 
ATOM     31  F   UNL     1       4.179   5.696  16.665  0.00  0.00    +0.000 F 
ENDBRANCH   5  28
TORSDOF 3
ENDMDL
MODEL 6
REMARK VINA RESULT:      -7.4      1.185      2.284
REMARK  Name = 
REMARK  5 active torsions:
REMARK  status: ('A' for Active; 'I' for Inactive)
REMARK    1  A    between atoms: C_1  and  C_2
REMARK    2  A    between atoms: C_2  and  C_3
REMARK    3  A    between atoms: C_8  and  N_9
REMARK    4  A    between atoms: C_13  and  C_14
REMARK    5  A    between atoms: C_18  and  C_19
REMARK                            x       y       z     vdW  Elec       q    Type
REMARK                         _______ _______ _______ _____ _____    ______ ____
ROOT
ATOM      1  N   UNL     1       3.431   6.853  17.566  0.00  0.00    +0.000 N 
ATOM      2  C   UNL     1       2.606   7.377  18.554  0.00  0.00    +0.000 A 
ATOM      3  N   UNL     1       2.594   6.801  19.756  0.00  0.00    +0.000 NA
ATOM      4  C   UNL     1       1.849   7.386  20.709  0.00  0.00    +0.000 A 
ATOM      5  C   UNL     1       1.093   8.523  20.524  0.00  0.00    +0.000 A 
ATOM      6  C   UNL     1       1.109   9.026  19.235  0.00  0.00    +0.000 A 
ATOM      7  N   UNL     1       1.880   8.469  18.255  0.00  0.00    +0.000 NA
ATOM      8  H   UNL     1       3.538   7.537  16.832  0.00  0.00    +0.000 HD
ENDROOT
BRANCH   6   9
ATOM      9  C   UNL     1       0.361  10.232  18.840  0.00  0.00    +0.000 A 
ATOM     10  C   UNL     1       0.877  11.521  18.859  0.00  0.00    +0.000 A 
ATOM     11  N   UNL     1      -0.034  12.373  18.295  0.00  0.00    +0.000 N 
ATOM     12  C   UNL     1      -1.194  11.702  18.009  0.00  0.00    +0.000 A 
ATOM     13  C   UNL     1      -2.386  12.176  17.448  0.00  0.00    +0.000 A 
ATOM     14  C   UNL     1      -3.440  11.273  17.307  0.00  0.00    +0.000 A 
ATOM     15  C   UNL     1      -3.302   9.948  17.710  0.00  0.00    +0.000 A 
ATOM     16  C   UNL     1      -2.090   9.484  18.242  0.00  0.00    +0.000 A 
ATOM     17  C   UNL     1      -1.001  10.370  18.392  0.00  0.00    +0.000 A 
ATOM     18  H   UNL     1       0.111  13.363  18.132  0.00  0.00    +0.000 HD
ENDBRANCH   6   9
BRANCH   1  26
ATOM     19  C   UNL     1       5.715   3.779  18.143  0.00  0.00    +0.000 C 
ATOM     20  C   UNL     1       4.580   4.614  17.490  0.00  0.00    +0.000 C 
ATOM     21  C   UNL     1       3.259   3.929  17.887  0.00  0.00    +0.000 C 
ATOM     22  C   UNL     1       4.748   4.576  15.952  0.00  0.00    +0.000 C 
ATOM     23  C   UNL     1       5.983   5.343  15.470  0.00  0.00    +0.000 C 
ATOM     24  N   UNL     1       6.037   6.717  15.967  0.00  0.00    +0.000 NA
ATOM     25  C   UNL     1       5.926   6.778  17.434  0.00  0.00    +0.000 C 
ATOM     26  C   UNL     1       4.636   6.104  17.987  0.00  0.00    +0.000 C 
ATOM     27  H   UNL     1       5.269   7.255  15.566  0.00  0.00    +0.000 HD
ENDBRANCH   1  26
BRANCH   5  28
ATOM     28  C   UNL     1       0.393   9.117  21.693  0.00  0.00    +0.000 C 
ATOM     29  F   UNL     1       1.121   9.016  22.847  0.00  0.00    +0.000 F 
ATOM     30  F   UNL     1       0.132  10.446  21.565  0.00  0.00    +0.000 F 
ATOM     31  F   UNL     1      -0.791   8.513  21.994  0.00  0.00    +0.000 F 
ENDBRANCH   5  28
TORSDOF 3
ENDMDL
MODEL 7
REMARK VINA RESULT:      -7.3      3.031      8.056
REMARK  Name = 
REMARK  5 active torsions:
REMARK  status: ('A' for Active; 'I' for Inactive)
REMARK    1  A    between atoms: C_1  and  C_2
REMARK    2  A    between atoms: C_2  and  C_3
REMARK    3  A    between atoms: C_8  and  N_9
REMARK    4  A    between atoms: C_13  and  C_14
REMARK    5  A    between atoms: C_18  and  C_19
REMARK                            x       y       z     vdW  Elec       q    Type
REMARK                         _______ _______ _______ _____ _____    ______ ____
ROOT
ATOM      1  N   UNL     1       2.177   8.951  18.873  0.00  0.00    +0.000 N 
ATOM      2  C   UNL     1       2.751   7.685  18.859  0.00  0.00    +0.000 A 
ATOM      3  N   UNL     1       2.218   6.726  19.616  0.00  0.00    +0.000 NA
ATOM      4  C   UNL     1       2.747   5.496  19.512  0.00  0.00    +0.000 A 
ATOM      5  C   UNL     1       3.802   5.166  18.690  0.00  0.00    +0.000 A 
ATOM      6  C   UNL     1       4.340   6.226  17.981  0.00  0.00    +0.000 A 
ATOM      7  N   UNL     1       3.803   7.480  18.047  0.00  0.00    +0.000 NA
ATOM      8  H   UNL     1       2.503   9.467  18.070  0.00  0.00    +0.000 HD
ENDROOT
BRANCH   6   9
ATOM      9  C   UNL     1       5.474   6.073  17.053  0.00  0.00    +0.000 A 
ATOM     10  C   UNL     1       6.714   6.674  17.220  0.00  0.00    +0.000 A 
ATOM     11  N   UNL     1       7.570   6.204  16.260  0.00  0.00    +0.000 N 
ATOM     12  C   UNL     1       6.896   5.393  15.385  0.00  0.00    +0.000 A 
ATOM     13  C   UNL     1       7.365   4.717  14.251  0.00  0.00    +0.000 A 
ATOM     14  C   UNL     1       6.440   3.987  13.504  0.00  0.00    +0.000 A 
ATOM     15  C   UNL     1       5.101   3.936  13.881  0.00  0.00    +0.000 A 
ATOM     16  C   UNL     1       4.656   4.593  15.037  0.00  0.00    +0.000 A 
ATOM     17  C   UNL     1       5.567   5.336  15.819  0.00  0.00    +0.000 A 
ATOM     18  H   UNL     1       8.553   6.437  16.186  0.00  0.00    +0.000 HD
ENDBRANCH   6   9
BRANCH   1  26
ATOM     19  C   UNL     1      -0.916   9.660  21.093  0.00  0.00    +0.000 C 
ATOM     20  C   UNL     1       0.558   9.770  20.619  0.00  0.00    +0.000 C 
ATOM     21  C   UNL     1       1.414   9.106  21.715  0.00  0.00    +0.000 C 
ATOM     22  C   UNL     1       0.936  11.266  20.494  0.00  0.00    +0.000 C 
ATOM     23  C   UNL     1       0.211  11.968  19.341  0.00  0.00    +0.000 C 
ATOM     24  N   UNL     1       0.366  11.281  18.060  0.00  0.00    +0.000 NA
ATOM     25  C   UNL     1      -0.031   9.865  18.141  0.00  0.00    +0.000 C 
ATOM     26  C   UNL     1       0.744   9.064  19.227  0.00  0.00    +0.000 C 
ATOM     27  H   UNL     1       1.342  11.321  17.768  0.00  0.00    +0.000 HD
ENDBRANCH   1  26
BRANCH   5  28
ATOM     28  C   UNL     1       4.224   3.742  18.601  0.00  0.00    +0.000 C 
ATOM     29  F   UNL     1       3.825   3.009  19.686  0.00  0.00    +0.000 F 
ATOM     30  F   UNL     1       3.713   3.079  17.529  0.00  0.00    +0.000 F 
ATOM     31  F   UNL     1       5.575   3.568  18.561  0.00  0.00    +0.000 F 
ENDBRANCH   5  28
TORSDOF 3
ENDMDL
MODEL 8
REMARK VINA RESULT:      -7.2      3.486      8.184
REMARK  Name = 
REMARK  5 active torsions:
REMARK  status: ('A' for Active; 'I' for Inactive)
REMARK    1  A    between atoms: C_1  and  C_2
REMARK    2  A    between atoms: C_2  and  C_3
REMARK    3  A    between atoms: C_8  and  N_9
REMARK    4  A    between atoms: C_13  and  C_14
REMARK    5  A    between atoms: C_18  and  C_19
REMARK                            x       y       z     vdW  Elec       q    Type
REMARK                         _______ _______ _______ _____ _____    ______ ____
ROOT
ATOM      1  N   UNL     1       0.842   9.484  19.592  0.00  0.00    +0.000 N 
ATOM      2  C   UNL     1       1.722   8.722  18.832  0.00  0.00    +0.000 A 
ATOM      3  N   UNL     1       2.143   9.198  17.660  0.00  0.00    +0.000 NA
ATOM      4  C   UNL     1       3.056   8.473  16.995  0.00  0.00    +0.000 A 
ATOM      5  C   UNL     1       3.574   7.274  17.434  0.00  0.00    +0.000 A 
ATOM      6  C   UNL     1       3.045   6.816  18.628  0.00  0.00    +0.000 A 
ATOM      7  N   UNL     1       2.137   7.547  19.339  0.00  0.00    +0.000 NA
ATOM      8  H   UNL     1       0.838   9.134  20.538  0.00  0.00    +0.000 HD
ENDROOT
BRANCH   6   9
ATOM      9  C   UNL     1       3.469   5.552  19.257  0.00  0.00    +0.000 A 
ATOM     10  C   UNL     1       4.785   5.121  19.349  0.00  0.00    +0.000 A 
ATOM     11  N   UNL     1       4.828   3.987  20.115  0.00  0.00    +0.000 N 
ATOM     12  C   UNL     1       3.558   3.586  20.437  0.00  0.00    +0.000 A 
ATOM     13  C   UNL     1       3.132   2.479  21.181  0.00  0.00    +0.000 A 
ATOM     14  C   UNL     1       1.758   2.281  21.318  0.00  0.00    +0.000 A 
ATOM     15  C   UNL     1       0.850   3.158  20.733  0.00  0.00    +0.000 A 
ATOM     16  C   UNL     1       1.295   4.278  20.017  0.00  0.00    +0.000 A 
ATOM     17  C   UNL     1       2.679   4.513  19.865  0.00  0.00    +0.000 A 
ATOM     18  H   UNL     1       5.672   3.496  20.388  0.00  0.00    +0.000 HD
ENDBRANCH   6   9
BRANCH   1  26
ATOM     19  C   UNL     1      -0.536  12.974  18.636  0.00  0.00    +0.000 C 
ATOM     20  C   UNL     1      -0.593  11.487  19.076  0.00  0.00    +0.000 C 
ATOM     21  C   UNL     1      -1.237  10.717  17.907  0.00  0.00    +0.000 C 
ATOM     22  C   UNL     1      -1.486  11.369  20.335  0.00  0.00    +0.000 C 
ATOM     23  C   UNL     1      -0.854  12.010  21.574  0.00  0.00    +0.000 C 
ATOM     24  N   UNL     1       0.499  11.526  21.846  0.00  0.00    +0.000 NA
ATOM     25  C   UNL     1       1.381  11.671  20.676  0.00  0.00    +0.000 C 
ATOM     26  C   UNL     1       0.848  10.952  19.403  0.00  0.00    +0.000 C 
ATOM     27  H   UNL     1       0.464  10.539  22.098  0.00  0.00    +0.000 HD
ENDBRANCH   1  26
BRANCH   5  28
ATOM     28  C   UNL     1       4.653   6.625  16.642  0.00  0.00    +0.000 C 
ATOM     29  F   UNL     1       4.783   7.167  15.392  0.00  0.00    +0.000 F 
ATOM     30  F   UNL     1       5.890   6.736  17.197  0.00  0.00    +0.000 F 
ATOM     31  F   UNL     1       4.446   5.299  16.409  0.00  0.00    +0.000 F 
ENDBRANCH   5  28
TORSDOF 3
ENDMDL
MODEL 9
REMARK VINA RESULT:      -7.2      3.492      8.565
REMARK  Name = 
REMARK  5 active torsions:
REMARK  status: ('A' for Active; 'I' for Inactive)
REMARK    1  A    between atoms: C_1  and  C_2
REMARK    2  A    between atoms: C_2  and  C_3
REMARK    3  A    between atoms: C_8  and  N_9
REMARK    4  A    between atoms: C_13  and  C_14
REMARK    5  A    between atoms: C_18  and  C_19
REMARK                            x       y       z     vdW  Elec       q    Type
REMARK                         _______ _______ _______ _____ _____    ______ ____
ROOT
ATOM      1  N   UNL     1      -3.741  11.629  19.098  0.00  0.00    +0.000 N 
ATOM      2  C   UNL     1      -2.369  11.848  19.131  0.00  0.00    +0.000 A 
ATOM      3  N   UNL     1      -1.901  13.058  18.826  0.00  0.00    +0.000 NA
ATOM      4  C   UNL     1      -0.578  13.254  18.951  0.00  0.00    +0.000 A 
ATOM      5  C   UNL     1       0.321  12.292  19.358  0.00  0.00    +0.000 A 
ATOM      6  C   UNL     1      -0.232  11.047  19.597  0.00  0.00    +0.000 A 
ATOM      7  N   UNL     1      -1.577  10.828  19.506  0.00  0.00    +0.000 NA
ATOM      8  H   UNL     1      -3.950  10.782  19.605  0.00  0.00    +0.000 HD
ENDROOT
BRANCH   6   9
ATOM      9  C   UNL     1       0.567   9.889  20.036  0.00  0.00    +0.000 A 
ATOM     10  C   UNL     1       0.667   9.454  21.350  0.00  0.00    +0.000 A 
ATOM     11  N   UNL     1       1.367   8.277  21.376  0.00  0.00    +0.000 N 
ATOM     12  C   UNL     1       1.838   7.980  20.124  0.00  0.00    +0.000 A 
ATOM     13  C   UNL     1       2.611   6.895  19.694  0.00  0.00    +0.000 A 
ATOM     14  C   UNL     1       2.994   6.863  18.353  0.00  0.00    +0.000 A 
ATOM     15  C   UNL     1       2.615   7.878  17.479  0.00  0.00    +0.000 A 
ATOM     16  C   UNL     1       1.815   8.942  17.921  0.00  0.00    +0.000 A 
ATOM     17  C   UNL     1       1.404   9.001  19.271  0.00  0.00    +0.000 A 
ATOM     18  H   UNL     1       1.538   7.715  22.202  0.00  0.00    +0.000 HD
ENDBRANCH   6   9
BRANCH   1  26
ATOM     19  C   UNL     1      -6.765  13.965  18.472  0.00  0.00    +0.000 C 
ATOM     20  C   UNL     1      -5.953  12.643  18.451  0.00  0.00    +0.000 C 
ATOM     21  C   UNL     1      -5.647  12.349  16.970  0.00  0.00    +0.000 C 
ATOM     22  C   UNL     1      -6.824  11.507  19.041  0.00  0.00    +0.000 C 
ATOM     23  C   UNL     1      -7.072  11.668  20.544  0.00  0.00    +0.000 C 
ATOM     24  N   UNL     1      -5.841  11.836  21.315  0.00  0.00    +0.000 NA
ATOM     25  C   UNL     1      -5.015  12.941  20.801  0.00  0.00    +0.000 C 
ATOM     26  C   UNL     1      -4.638  12.789  19.299  0.00  0.00    +0.000 C 
ATOM     27  H   UNL     1      -5.290  10.979  21.269  0.00  0.00    +0.000 HD
ENDBRANCH   1  26
BRANCH   5  28
ATOM     28  C   UNL     1       1.746  12.675  19.545  0.00  0.00    +0.000 C 
ATOM     29  F   UNL     1       1.958  14.014  19.355  0.00  0.00    +0.000 F 
ATOM     30  F   UNL     1       2.227  12.422  20.792  0.00  0.00    +0.000 F 
ATOM     31  F   UNL     1       2.598  12.076  18.667  0.00  0.00    +0.000 F 
ENDBRANCH   5  28
TORSDOF 3
ENDMDL
