MODEL 1
REMARK VINA RESULT:      -7.5      0.000      0.000
REMARK  Name = 
REMARK  7 active torsions:
REMARK  status: ('A' for Active; 'I' for Inactive)
REMARK    1  A    between atoms: N_1  and  C_2
REMARK    2  A    between atoms: C_3  and  N_4
REMARK    3  A    between atoms: N_4  and  C_5
REMARK    4  A    between atoms: C_5  and  C_6
REMARK    5  A    between atoms: C_6  and  O_7
REMARK    6  A    between atoms: C_9  and  N_10
REMARK    7  A    between atoms: N_10  and  C_11
REMARK                            x       y       z     vdW  Elec       q    Type
REMARK                         _______ _______ _______ _____ _____    ______ ____
ROOT
ATOM      1  C   UNL     1      -4.118  11.857  17.852  0.00  0.00    +0.000 A 
ATOM      2  C   UNL     1      -3.119  11.493  16.924  0.00  0.00    +0.000 A 
ATOM      3  C   UNL     1      -1.801  11.424  17.383  0.00  0.00    +0.000 A 
ATOM      4  C   UNL     1      -1.424  11.621  18.717  0.00  0.00    +0.000 A 
ATOM      5  C   UNL     1      -2.428  11.964  19.645  0.00  0.00    +0.000 A 
ATOM      6  C   UNL     1      -3.762  12.082  19.217  0.00  0.00    +0.000 A 
ATOM      7  C   UNL     1      -4.806  12.491  20.194  0.00  0.00    +0.000 C 
ATOM      8  O   UNL     1      -5.963  12.712  19.836  0.00  0.00    +0.000 OA
ATOM      9  C   UNL     1      -4.471  12.676  21.613  0.00  0.00    +0.000 A 
ATOM     10  C   UNL     1      -5.479  12.990  22.529  0.00  0.00    +0.000 A 
ATOM     11  C   UNL     1      -5.166  13.197  23.876  0.00  0.00    +0.000 A 
ATOM     12  C   UNL     1      -3.846  13.093  24.300  0.00  0.00    +0.000 A 
ATOM     13  C   UNL     1      -2.840  12.772  23.388  0.00  0.00    +0.000 A 
ATOM     14  C   UNL     1      -3.146  12.552  22.037  0.00  0.00    +0.000 A 
ATOM     15  C   UNL     1      -2.085  12.197  21.072  0.00  0.00    +0.000 C 
ATOM     16  O   UNL     1      -0.927  12.093  21.470  0.00  0.00    +0.000 OA
ENDROOT
BRANCH   1  17
ATOM     17  N   UNL     1      -5.485  11.782  17.457  0.00  0.00    +0.000 N 
ATOM     18  H   UNL     1      -5.932  12.689  17.425  0.00  0.00    +0.000 HD
ATOM     19  H   UNL     1      -6.011  11.150  18.083  0.00  0.00    +0.000 HD
ENDBRANCH   1  17
BRANCH   2  20
ATOM     20  N   UNL     1      -3.402  11.221  15.582  0.00  0.00    +0.000 N 
ATOM     21  H   UNL     1      -4.308  11.538  15.249  0.00  0.00    +0.000 HD
BRANCH  20  22
ATOM     22  C   UNL     1      -2.869  10.014  14.920  0.00  0.00    +0.000 C 
BRANCH  22  23
ATOM     23  C   UNL     1      -3.372   9.846  13.475  0.00  0.00    +0.000 C 
BRANCH  23  24
ATOM     24  O   UNL     1      -2.283   9.545  12.606  0.00  0.00    +0.000 OA
ATOM     25  H   UNL     1      -1.563  10.143  12.885  0.00  0.00    +0.000 HD
ENDBRANCH  23  24
ENDBRANCH  22  23
ENDBRANCH  20  22
ENDBRANCH   2  20
BRANCH   4  26
ATOM     26  N   UNL     1      -0.069  11.410  19.065  0.00  0.00    +0.000 N 
ATOM     27  H   UNL     1       0.513  12.249  18.968  0.00  0.00    +0.000 HD
BRANCH  26  28
ATOM     28  C   UNL     1       0.679  10.213  19.075  0.00  0.00    +0.000 A 
ATOM     29  C   UNL     1       1.336   9.725  17.936  0.00  0.00    +0.000 A 
ATOM     30  C   UNL     1       2.062   8.532  17.972  0.00  0.00    +0.000 A 
ATOM     31  C   UNL     1       2.138   7.802  19.154  0.00  0.00    +0.000 A 
ATOM     32  C   UNL     1       1.473   8.259  20.291  0.00  0.00    +0.000 A 
ATOM     33  C   UNL     1       0.747   9.455  20.250  0.00  0.00    +0.000 A 
ENDBRANCH  26  28
ENDBRANCH   4  26
TORSDOF 7
ENDMDL
MODEL 2
REMARK VINA RESULT:      -7.1      5.975      9.354
REMARK  Name = 
REMARK  7 active torsions:
REMARK  status: ('A' for Active; 'I' for Inactive)
REMARK    1  A    between atoms: N_1  and  C_2
REMARK    2  A    between atoms: C_3  and  N_4
REMARK    3  A    between atoms: N_4  and  C_5
REMARK    4  A    between atoms: C_5  and  C_6
REMARK    5  A    between atoms: C_6  and  O_7
REMARK    6  A    between atoms: C_9  and  N_10
REMARK    7  A    between atoms: N_10  and  C_11
REMARK                            x       y       z     vdW  Elec       q    Type
REMARK                         _______ _______ _______ _____ _____    ______ ____
ROOT
ATOM      1  C   UNL     1       3.467   4.506  19.774  0.00  0.00    +0.000 A 
ATOM      2  C   UNL     1       4.431   3.728  19.099  0.00  0.00    +0.000 A 
ATOM      3  C   UNL     1       4.984   4.253  17.928  0.00  0.00    +0.000 A 
ATOM      4  C   UNL     1       4.695   5.529  17.429  0.00  0.00    +0.000 A 
ATOM      5  C   UNL     1       3.747   6.310  18.117  0.00  0.00    +0.000 A 
ATOM      6  C   UNL     1       3.137   5.804  19.279  0.00  0.00    +0.000 A 
ATOM      7  C   UNL     1       2.103   6.617  19.973  0.00  0.00    +0.000 C 
ATOM      8  O   UNL     1       1.469   6.166  20.925  0.00  0.00    +0.000 OA
ATOM      9  C   UNL     1       1.788   7.976  19.510  0.00  0.00    +0.000 A 
ATOM     10  C   UNL     1       0.865   8.753  20.217  0.00  0.00    +0.000 A 
ATOM     11  C   UNL     1       0.536  10.036  19.769  0.00  0.00    +0.000 A 
ATOM     12  C   UNL     1       1.127  10.535  18.614  0.00  0.00    +0.000 A 
ATOM     13  C   UNL     1       2.054   9.764  17.912  0.00  0.00    +0.000 A 
ATOM     14  C   UNL     1       2.399   8.480  18.359  0.00  0.00    +0.000 A 
ATOM     15  C   UNL     1       3.391   7.668  17.626  0.00  0.00    +0.000 C 
ATOM     16  O   UNL     1       3.915   8.134  16.617  0.00  0.00    +0.000 OA
ENDROOT
BRANCH   1  17
ATOM     17  N   UNL     1       3.003   4.071  21.050  0.00  0.00    +0.000 N 
ATOM     18  H   UNL     1       3.518   4.485  21.815  0.00  0.00    +0.000 HD
ATOM     19  H   UNL     1       3.037   3.040  21.118  0.00  0.00    +0.000 HD
ENDBRANCH   1  17
BRANCH   2  20
ATOM     20  N   UNL     1       4.829   2.465  19.549  0.00  0.00    +0.000 N 
ATOM     21  H   UNL     1       5.814   2.367  19.775  0.00  0.00    +0.000 HD
BRANCH  20  22
ATOM     22  C   UNL     1       4.164   1.239  19.065  0.00  0.00    +0.000 C 
BRANCH  22  23
ATOM     23  C   UNL     1       2.948   1.527  18.166  0.00  0.00    +0.000 C 
BRANCH  23  24
ATOM     24  O   UNL     1       1.742   1.421  18.918  0.00  0.00    +0.000 OA
ATOM     25  H   UNL     1       1.759   2.180  19.532  0.00  0.00    +0.000 HD
ENDBRANCH  23  24
ENDBRANCH  22  23
ENDBRANCH  20  22
ENDBRANCH   2  20
BRANCH   4  26
ATOM     26  N   UNL     1       5.411   5.978  16.294  0.00  0.00    +0.000 N 
ATOM     27  H   UNL     1       5.332   6.988  16.134  0.00  0.00    +0.000 HD
BRANCH  26  28
ATOM     28  C   UNL     1       5.811   5.263  15.145  0.00  0.00    +0.000 A 
ATOM     29  C   UNL     1       7.091   5.389  14.586  0.00  0.00    +0.000 A 
ATOM     30  C   UNL     1       7.457   4.677  13.441  0.00  0.00    +0.000 A 
ATOM     31  C   UNL     1       6.541   3.825  12.833  0.00  0.00    +0.000 A 
ATOM     32  C   UNL     1       5.257   3.703  13.360  0.00  0.00    +0.000 A 
ATOM     33  C   UNL     1       4.895   4.419  14.506  0.00  0.00    +0.000 A 
ENDBRANCH  26  28
ENDBRANCH   4  26
TORSDOF 7
ENDMDL
MODEL 3
REMARK VINA RESULT:      -7.0      5.617     10.684
REMARK  Name = 
REMARK  7 active torsions:
REMARK  status: ('A' for Active; 'I' for Inactive)
REMARK    1  A    between atoms: N_1  and  C_2
REMARK    2  A    between atoms: C_3  and  N_4
REMARK    3  A    between atoms: N_4  and  C_5
REMARK    4  A    between atoms: C_5  and  C_6
REMARK    5  A    between atoms: C_6  and  O_7
REMARK    6  A    between atoms: C_9  and  N_10
REMARK    7  A    between atoms: N_10  and  C_11
REMARK                            x       y       z     vdW  Elec       q    Type
REMARK                         _______ _______ _______ _____ _____    ______ ____
ROOT
ATOM      1  C   UNL     1       2.300   3.397  18.702  0.00  0.00    +0.000 A 
ATOM      2  C   UNL     1       1.507   4.081  19.647  0.00  0.00    +0.000 A 
ATOM      3  C   UNL     1       1.725   5.453  19.806  0.00  0.00    +0.000 A 
ATOM      4  C   UNL     1       2.627   6.197  19.035  0.00  0.00    +0.000 A 
ATOM      5  C   UNL     1       3.403   5.512  18.079  0.00  0.00    +0.000 A 
ATOM      6  C   UNL     1       3.242   4.125  17.914  0.00  0.00    +0.000 A 
ATOM      7  C   UNL     1       4.098   3.404  16.935  0.00  0.00    +0.000 C 
ATOM      8  O   UNL     1       4.065   2.178  16.840  0.00  0.00    +0.000 OA
ATOM      9  C   UNL     1       5.036   4.142  16.077  0.00  0.00    +0.000 A 
ATOM     10  C   UNL     1       5.781   3.456  15.113  0.00  0.00    +0.000 A 
ATOM     11  C   UNL     1       6.697   4.145  14.311  0.00  0.00    +0.000 A 
ATOM     12  C   UNL     1       6.867   5.514  14.481  0.00  0.00    +0.000 A 
ATOM     13  C   UNL     1       6.119   6.200  15.436  0.00  0.00    +0.000 A 
ATOM     14  C   UNL     1       5.190   5.521  16.238  0.00  0.00    +0.000 A 
ATOM     15  C   UNL     1       4.386   6.248  17.241  0.00  0.00    +0.000 C 
ATOM     16  O   UNL     1       4.538   7.461  17.363  0.00  0.00    +0.000 OA
ENDROOT
BRANCH   1  17
ATOM     17  N   UNL     1       1.995   2.037  18.404  0.00  0.00    +0.000 N 
ATOM     18  H   UNL     1       1.087   1.755  18.751  0.00  0.00    +0.000 HD
ATOM     19  H   UNL     1       2.726   1.409  18.778  0.00  0.00    +0.000 HD
ENDBRANCH   1  17
BRANCH   2  20
ATOM     20  N   UNL     1       0.539   3.438  20.426  0.00  0.00    +0.000 N 
ATOM     21  H   UNL     1      -0.357   3.909  20.494  0.00  0.00    +0.000 HD
BRANCH  20  22
ATOM     22  C   UNL     1       0.921   2.627  21.599  0.00  0.00    +0.000 C 
BRANCH  22  23
ATOM     23  C   UNL     1       2.270   3.048  22.210  0.00  0.00    +0.000 C 
BRANCH  23  24
ATOM     24  O   UNL     1       3.288   2.118  21.847  0.00  0.00    +0.000 OA
ATOM     25  H   UNL     1       2.992   1.737  20.999  0.00  0.00    +0.000 HD
ENDBRANCH  23  24
ENDBRANCH  22  23
ENDBRANCH  20  22
ENDBRANCH   2  20
BRANCH   4  26
ATOM     26  N   UNL     1       2.667   7.598  19.225  0.00  0.00    +0.000 N 
ATOM     27  H   UNL     1       3.496   7.918  19.738  0.00  0.00    +0.000 HD
BRANCH  26  28
ATOM     28  C   UNL     1       1.608   8.532  19.243  0.00  0.00    +0.000 A 
ATOM     29  C   UNL     1       0.963   8.918  20.427  0.00  0.00    +0.000 A 
ATOM     30  C   UNL     1      -0.089   9.837  20.414  0.00  0.00    +0.000 A 
ATOM     31  C   UNL     1      -0.516  10.384  19.209  0.00  0.00    +0.000 A 
ATOM     32  C   UNL     1       0.097   9.996  18.019  0.00  0.00    +0.000 A 
ATOM     33  C   UNL     1       1.150   9.075  18.037  0.00  0.00    +0.000 A 
ENDBRANCH  26  28
ENDBRANCH   4  26
TORSDOF 7
ENDMDL
MODEL 4
REMARK VINA RESULT:      -7.0      5.539      8.772
REMARK  Name = 
REMARK  7 active torsions:
REMARK  status: ('A' for Active; 'I' for Inactive)
REMARK    1  A    between atoms: N_1  and  C_2
REMARK    2  A    between atoms: C_3  and  N_4
REMARK    3  A    between atoms: N_4  and  C_5
REMARK    4  A    between atoms: C_5  and  C_6
REMARK    5  A    between atoms: C_6  and  O_7
REMARK    6  A    between atoms: C_9  and  N_10
REMARK    7  A    between atoms: N_10  and  C_11
REMARK                            x       y       z     vdW  Elec       q    Type
REMARK                         _______ _______ _______ _____ _____    ______ ____
ROOT
ATOM      1  C   UNL     1       3.016   4.968  20.085  0.00  0.00    +0.000 A 
ATOM      2  C   UNL     1       3.919   4.159  19.364  0.00  0.00    +0.000 A 
ATOM      3  C   UNL     1       4.397   4.648  18.144  0.00  0.00    +0.000 A 
ATOM      4  C   UNL     1       4.092   5.917  17.636  0.00  0.00    +0.000 A 
ATOM      5  C   UNL     1       3.205   6.729  18.369  0.00  0.00    +0.000 A 
ATOM      6  C   UNL     1       2.671   6.259  19.582  0.00  0.00    +0.000 A 
ATOM      7  C   UNL     1       1.700   7.105  20.326  0.00  0.00    +0.000 C 
ATOM      8  O   UNL     1       1.127   6.686  21.331  0.00  0.00    +0.000 OA
ATOM      9  C   UNL     1       1.372   8.458  19.854  0.00  0.00    +0.000 A 
ATOM     10  C   UNL     1       0.512   9.266  20.604  0.00  0.00    +0.000 A 
ATOM     11  C   UNL     1       0.171  10.543  20.149  0.00  0.00    +0.000 A 
ATOM     12  C   UNL     1       0.687  11.005  18.944  0.00  0.00    +0.000 A 
ATOM     13  C   UNL     1       1.552  10.204  18.198  0.00  0.00    +0.000 A 
ATOM     14  C   UNL     1       1.908   8.925  18.652  0.00  0.00    +0.000 A 
ATOM     15  C   UNL     1       2.835   8.080  17.871  0.00  0.00    +0.000 C 
ATOM     16  O   UNL     1       3.295   8.514  16.817  0.00  0.00    +0.000 OA
ENDROOT
BRANCH   1  17
ATOM     17  N   UNL     1       2.636   4.571  21.400  0.00  0.00    +0.000 N 
ATOM     18  H   UNL     1       3.071   5.134  22.119  0.00  0.00    +0.000 HD
ATOM     19  H   UNL     1       2.851   3.572  21.555  0.00  0.00    +0.000 HD
ENDBRANCH   1  17
BRANCH   2  20
ATOM     20  N   UNL     1       4.329   2.901  19.816  0.00  0.00    +0.000 N 
ATOM     21  H   UNL     1       5.295   2.836  20.123  0.00  0.00    +0.000 HD
BRANCH  20  22
ATOM     22  C   UNL     1       3.760   1.664  19.246  0.00  0.00    +0.000 C 
BRANCH  22  23
ATOM     23  C   UNL     1       2.267   1.794  18.891  0.00  0.00    +0.000 C 
BRANCH  23  24
ATOM     24  O   UNL     1       2.098   1.827  17.476  0.00  0.00    +0.000 OA
ATOM     25  H   UNL     1       2.996   1.959  17.116  0.00  0.00    +0.000 HD
ENDBRANCH  23  24
ENDBRANCH  22  23
ENDBRANCH  20  22
ENDBRANCH   2  20
BRANCH   4  26
ATOM     26  N   UNL     1       4.733   6.328  16.444  0.00  0.00    +0.000 N 
ATOM     27  H   UNL     1       4.361   7.203  16.060  0.00  0.00    +0.000 HD
BRANCH  26  28
ATOM     28  C   UNL     1       5.436   5.558  15.492  0.00  0.00    +0.000 A 
ATOM     29  C   UNL     1       4.794   4.666  14.622  0.00  0.00    +0.000 A 
ATOM     30  C   UNL     1       5.516   3.909  13.695  0.00  0.00    +0.000 A 
ATOM     31  C   UNL     1       6.899   4.032  13.627  0.00  0.00    +0.000 A 
ATOM     32  C   UNL     1       7.559   4.897  14.499  0.00  0.00    +0.000 A 
ATOM     33  C   UNL     1       6.832   5.653  15.425  0.00  0.00    +0.000 A 
ENDBRANCH  26  28
ENDBRANCH   4  26
TORSDOF 7
ENDMDL
MODEL 5
REMARK VINA RESULT:      -6.9      1.159      1.770
REMARK  Name = 
REMARK  7 active torsions:
REMARK  status: ('A' for Active; 'I' for Inactive)
REMARK    1  A    between atoms: N_1  and  C_2
REMARK    2  A    between atoms: C_3  and  N_4
REMARK    3  A    between atoms: N_4  and  C_5
REMARK    4  A    between atoms: C_5  and  C_6
REMARK    5  A    between atoms: C_6  and  O_7
REMARK    6  A    between atoms: C_9  and  N_10
REMARK    7  A    between atoms: N_10  and  C_11
REMARK                            x       y       z     vdW  Elec       q    Type
REMARK                         _______ _______ _______ _____ _____    ______ ____
ROOT
ATOM      1  C   UNL     1      -5.394  11.651  18.029  0.00  0.00    +0.000 A 
ATOM      2  C   UNL     1      -4.266  11.378  17.227  0.00  0.00    +0.000 A 
ATOM      3  C   UNL     1      -3.004  11.546  17.803  0.00  0.00    +0.000 A 
ATOM      4  C   UNL     1      -2.795  11.894  19.143  0.00  0.00    +0.000 A 
ATOM      5  C   UNL     1      -3.924  12.145  19.946  0.00  0.00    +0.000 A 
ATOM      6  C   UNL     1      -5.212  12.026  19.395  0.00  0.00    +0.000 A 
ATOM      7  C   UNL     1      -6.397  12.339  20.238  0.00  0.00    +0.000 C 
ATOM      8  O   UNL     1      -7.532  12.354  19.763  0.00  0.00    +0.000 OA
ATOM      9  C   UNL     1      -6.235  12.676  21.659  0.00  0.00    +0.000 A 
ATOM     10  C   UNL     1      -7.364  12.897  22.454  0.00  0.00    +0.000 A 
ATOM     11  C   UNL     1      -7.219  13.246  23.800  0.00  0.00    +0.000 A 
ATOM     12  C   UNL     1      -5.947  13.377  24.345  0.00  0.00    +0.000 A 
ATOM     13  C   UNL     1      -4.820  13.149  23.556  0.00  0.00    +0.000 A 
ATOM     14  C   UNL     1      -4.954  12.788  22.207  0.00  0.00    +0.000 A 
ATOM     15  C   UNL     1      -3.763  12.531  21.373  0.00  0.00    +0.000 C 
ATOM     16  O   UNL     1      -2.647  12.635  21.878  0.00  0.00    +0.000 OA
ENDROOT
BRANCH   1  17
ATOM     17  N   UNL     1      -6.690  11.339  17.524  0.00  0.00    +0.000 N 
ATOM     18  H   UNL     1      -6.860  10.343  17.475  0.00  0.00    +0.000 HD
ATOM     19  H   UNL     1      -6.831  11.768  16.594  0.00  0.00    +0.000 HD
ENDBRANCH   1  17
BRANCH   2  20
ATOM     20  N   UNL     1      -4.372  10.970  15.893  0.00  0.00    +0.000 N 
ATOM     21  H   UNL     1      -5.215  10.457  15.654  0.00  0.00    +0.000 HD
BRANCH  20  22
ATOM     22  C   UNL     1      -3.173  10.623  15.106  0.00  0.00    +0.000 C 
BRANCH  22  23
ATOM     23  C   UNL     1      -3.507   9.959  13.758  0.00  0.00    +0.000 C 
BRANCH  23  24
ATOM     24  O   UNL     1      -2.309   9.649  13.050  0.00  0.00    +0.000 OA
ATOM     25  H   UNL     1      -1.656   9.430  13.742  0.00  0.00    +0.000 HD
ENDBRANCH  23  24
ENDBRANCH  22  23
ENDBRANCH  20  22
ENDBRANCH   2  20
BRANCH   4  26
ATOM     26  N   UNL     1      -1.465  11.919  19.625  0.00  0.00    +0.000 N 
ATOM     27  H   UNL     1      -1.032  12.849  19.583  0.00  0.00    +0.000 HD
BRANCH  26  28
ATOM     28  C   UNL     1      -0.522  10.872  19.713  0.00  0.00    +0.000 A 
ATOM     29  C   UNL     1      -0.269  10.185  20.909  0.00  0.00    +0.000 A 
ATOM     30  C   UNL     1       0.676   9.158  20.971  0.00  0.00    +0.000 A 
ATOM     31  C   UNL     1       1.390   8.804  19.831  0.00  0.00    +0.000 A 
ATOM     32  C   UNL     1       1.170   9.491  18.638  0.00  0.00    +0.000 A 
ATOM     33  C   UNL     1       0.222  10.518  18.581  0.00  0.00    +0.000 A 
ENDBRANCH  26  28
ENDBRANCH   4  26
TORSDOF 7
ENDMDL
MODEL 6
REMARK VINA RESULT:      -6.9      1.507      2.002
REMARK  Name = 
REMARK  7 active torsions:
REMARK  status: ('A' for Active; 'I' for Inactive)
REMARK    1  A    between atoms: N_1  and  C_2
REMARK    2  A    between atoms: C_3  and  N_4
REMARK    3  A    between atoms: N_4  and  C_5
REMARK    4  A    between atoms: C_5  and  C_6
REMARK    5  A    between atoms: C_6  and  O_7
REMARK    6  A    between atoms: C_9  and  N_10
REMARK    7  A    between atoms: N_10  and  C_11
REMARK                            x       y       z     vdW  Elec       q    Type
REMARK                         _______ _______ _______ _____ _____    ______ ____
ROOT
ATOM      1  C   UNL     1      -4.526  11.849  17.740  0.00  0.00    +0.000 A 
ATOM      2  C   UNL     1      -3.215  11.618  17.272  0.00  0.00    +0.000 A 
ATOM      3  C   UNL     1      -2.166  11.751  18.186  0.00  0.00    +0.000 A 
ATOM      4  C   UNL     1      -2.345  12.024  19.548  0.00  0.00    +0.000 A 
ATOM      5  C   UNL     1      -3.658  12.234  20.015  0.00  0.00    +0.000 A 
ATOM      6  C   UNL     1      -4.738  12.148  19.119  0.00  0.00    +0.000 A 
ATOM      7  C   UNL     1      -6.116  12.417  19.612  0.00  0.00    +0.000 C 
ATOM      8  O   UNL     1      -7.072  12.461  18.840  0.00  0.00    +0.000 OA
ATOM      9  C   UNL     1      -6.362  12.675  21.038  0.00  0.00    +0.000 A 
ATOM     10  C   UNL     1      -7.671  12.855  21.495  0.00  0.00    +0.000 A 
ATOM     11  C   UNL     1      -7.914  13.129  22.845  0.00  0.00    +0.000 A 
ATOM     12  C   UNL     1      -6.846  13.227  23.730  0.00  0.00    +0.000 A 
ATOM     13  C   UNL     1      -5.541  13.039  23.278  0.00  0.00    +0.000 A 
ATOM     14  C   UNL     1      -5.288  12.753  21.928  0.00  0.00    +0.000 A 
ATOM     15  C   UNL     1      -3.907  12.540  21.448  0.00  0.00    +0.000 C 
ATOM     16  O   UNL     1      -2.978  12.613  22.251  0.00  0.00    +0.000 OA
ENDROOT
BRANCH   1  17
ATOM     17  N   UNL     1      -5.624  11.569  16.876  0.00  0.00    +0.000 N 
ATOM     18  H   UNL     1      -5.336  11.151  16.001  0.00  0.00    +0.000 HD
ATOM     19  H   UNL     1      -6.173  12.426  16.693  0.00  0.00    +0.000 HD
ENDBRANCH   1  17
BRANCH   2  20
ATOM     20  N   UNL     1      -2.938  11.284  15.942  0.00  0.00    +0.000 N 
ATOM     21  H   UNL     1      -3.191  11.983  15.250  0.00  0.00    +0.000 HD
BRANCH  20  22
ATOM     22  C   UNL     1      -2.997   9.883  15.481  0.00  0.00    +0.000 C 
BRANCH  22  23
ATOM     23  C   UNL     1      -3.259   9.756  13.969  0.00  0.00    +0.000 C 
BRANCH  23  24
ATOM     24  O   UNL     1      -4.652   9.893  13.697  0.00  0.00    +0.000 OA
ATOM     25  H   UNL     1      -5.092   9.269  14.304  0.00  0.00    +0.000 HD
ENDBRANCH  23  24
ENDBRANCH  22  23
ENDBRANCH  20  22
ENDBRANCH   2  20
BRANCH   4  26
ATOM     26  N   UNL     1      -1.204  12.019  20.384  0.00  0.00    +0.000 N 
ATOM     27  H   UNL     1      -0.686  12.905  20.373  0.00  0.00    +0.000 HD
BRANCH  26  28
ATOM     28  C   UNL     1      -0.432  10.930  20.843  0.00  0.00    +0.000 A 
ATOM     29  C   UNL     1       0.315  10.117  19.979  0.00  0.00    +0.000 A 
ATOM     30  C   UNL     1       1.062   9.039  20.460  0.00  0.00    +0.000 A 
ATOM     31  C   UNL     1       1.070   8.754  21.821  0.00  0.00    +0.000 A 
ATOM     32  C   UNL     1       0.315   9.536  22.694  0.00  0.00    +0.000 A 
ATOM     33  C   UNL     1      -0.432  10.615  22.207  0.00  0.00    +0.000 A 
ENDBRANCH  26  28
ENDBRANCH   4  26
TORSDOF 7
ENDMDL
MODEL 7
REMARK VINA RESULT:      -6.9      1.279      1.712
REMARK  Name = 
REMARK  7 active torsions:
REMARK  status: ('A' for Active; 'I' for Inactive)
REMARK    1  A    between atoms: N_1  and  C_2
REMARK    2  A    between atoms: C_3  and  N_4
REMARK    3  A    between atoms: N_4  and  C_5
REMARK    4  A    between atoms: C_5  and  C_6
REMARK    5  A    between atoms: C_6  and  O_7
REMARK    6  A    between atoms: C_9  and  N_10
REMARK    7  A    between atoms: N_10  and  C_11
REMARK                            x       y       z     vdW  Elec       q    Type
REMARK                         _______ _______ _______ _____ _____    ______ ____
ROOT
ATOM      1  C   UNL     1      -3.566  12.052  18.833  0.00  0.00    +0.000 A 
ATOM      2  C   UNL     1      -2.855  11.275  17.894  0.00  0.00    +0.000 A 
ATOM      3  C   UNL     1      -1.492  11.065  18.124  0.00  0.00    +0.000 A 
ATOM      4  C   UNL     1      -0.812  11.515  19.263  0.00  0.00    +0.000 A 
ATOM      5  C   UNL     1      -1.531  12.274  20.207  0.00  0.00    +0.000 A 
ATOM      6  C   UNL     1      -2.895  12.541  19.995  0.00  0.00    +0.000 A 
ATOM      7  C   UNL     1      -3.633  13.382  20.974  0.00  0.00    +0.000 C 
ATOM      8  O   UNL     1      -4.795  13.730  20.769  0.00  0.00    +0.000 OA
ATOM      9  C   UNL     1      -2.975  13.850  22.203  0.00  0.00    +0.000 A 
ATOM     10  C   UNL     1      -3.706  14.580  23.146  0.00  0.00    +0.000 A 
ATOM     11  C   UNL     1      -3.082  15.055  24.304  0.00  0.00    +0.000 A 
ATOM     12  C   UNL     1      -1.730  14.802  24.511  0.00  0.00    +0.000 A 
ATOM     13  C   UNL     1      -1.003  14.069  23.575  0.00  0.00    +0.000 A 
ATOM     14  C   UNL     1      -1.622  13.578  22.415  0.00  0.00    +0.000 A 
ATOM     15  C   UNL     1      -0.857  12.788  21.429  0.00  0.00    +0.000 C 
ATOM     16  O   UNL     1       0.332  12.561  21.639  0.00  0.00    +0.000 OA
ENDROOT
BRANCH   1  17
ATOM     17  N   UNL     1      -4.982  12.152  18.712  0.00  0.00    +0.000 N 
ATOM     18  H   UNL     1      -5.302  13.109  18.635  0.00  0.00    +0.000 HD
ATOM     19  H   UNL     1      -5.450  11.687  19.508  0.00  0.00    +0.000 HD
ENDBRANCH   1  17
BRANCH   2  20
ATOM     20  N   UNL     1      -3.458  10.734  16.754  0.00  0.00    +0.000 N 
ATOM     21  H   UNL     1      -3.971   9.869  16.895  0.00  0.00    +0.000 HD
BRANCH  20  22
ATOM     22  C   UNL     1      -2.852  10.903  15.419  0.00  0.00    +0.000 C 
BRANCH  22  23
ATOM     23  C   UNL     1      -3.348   9.866  14.395  0.00  0.00    +0.000 C 
BRANCH  23  24
ATOM     24  O   UNL     1      -2.541   9.907  13.221  0.00  0.00    +0.000 OA
ATOM     25  H   UNL     1      -2.150  10.802  13.213  0.00  0.00    +0.000 HD
ENDBRANCH  23  24
ENDBRANCH  22  23
ENDBRANCH  20  22
ENDBRANCH   2  20
BRANCH   4  26
ATOM     26  N   UNL     1       0.541  11.136  19.423  0.00  0.00    +0.000 N 
ATOM     27  H   UNL     1       1.202  11.908  19.284  0.00  0.00    +0.000 HD
BRANCH  26  28
ATOM     28  C   UNL     1       1.139   9.863  19.288  0.00  0.00    +0.000 A 
ATOM     29  C   UNL     1       1.155   8.925  20.330  0.00  0.00    +0.000 A 
ATOM     30  C   UNL     1       1.762   7.676  20.172  0.00  0.00    +0.000 A 
ATOM     31  C   UNL     1       2.368   7.348  18.964  0.00  0.00    +0.000 A 
ATOM     32  C   UNL     1       2.383   8.276  17.925  0.00  0.00    +0.000 A 
ATOM     33  C   UNL     1       1.773   9.525  18.087  0.00  0.00    +0.000 A 
ENDBRANCH  26  28
ENDBRANCH   4  26
TORSDOF 7
ENDMDL
MODEL 8
REMARK VINA RESULT:      -6.9      3.939      7.378
REMARK  Name = 
REMARK  7 active torsions:
REMARK  status: ('A' for Active; 'I' for Inactive)
REMARK    1  A    between atoms: N_1  and  C_2
REMARK    2  A    between atoms: C_3  and  N_4
REMARK    3  A    between atoms: N_4  and  C_5
REMARK    4  A    between atoms: C_5  and  C_6
REMARK    5  A    between atoms: C_6  and  O_7
REMARK    6  A    between atoms: C_9  and  N_10
REMARK    7  A    between atoms: N_10  and  C_11
REMARK                            x       y       z     vdW  Elec       q    Type
REMARK                         _______ _______ _______ _____ _____    ______ ____
ROOT
ATOM      1  C   UNL     1       1.475  12.076  18.591  0.00  0.00    +0.000 A 
ATOM      2  C   UNL     1       0.925  13.189  19.260  0.00  0.00    +0.000 A 
ATOM      3  C   UNL     1       0.289  12.962  20.484  0.00  0.00    +0.000 A 
ATOM      4  C   UNL     1       0.232  11.714  21.117  0.00  0.00    +0.000 A 
ATOM      5  C   UNL     1       0.800  10.608  20.454  0.00  0.00    +0.000 A 
ATOM      6  C   UNL     1       1.416  10.787  19.202  0.00  0.00    +0.000 A 
ATOM      7  C   UNL     1       1.972   9.606  18.490  0.00  0.00    +0.000 C 
ATOM      8  O   UNL     1       2.418   9.702  17.347  0.00  0.00    +0.000 OA
ATOM      9  C   UNL     1       1.968   8.280  19.124  0.00  0.00    +0.000 A 
ATOM     10  C   UNL     1       2.559   7.195  18.469  0.00  0.00    +0.000 A 
ATOM     11  C   UNL     1       2.536   5.924  19.051  0.00  0.00    +0.000 A 
ATOM     12  C   UNL     1       1.917   5.742  20.283  0.00  0.00    +0.000 A 
ATOM     13  C   UNL     1       1.334   6.824  20.941  0.00  0.00    +0.000 A 
ATOM     14  C   UNL     1       1.362   8.106  20.371  0.00  0.00    +0.000 A 
ATOM     15  C   UNL     1       0.758   9.257  21.072  0.00  0.00    +0.000 C 
ATOM     16  O   UNL     1       0.231   9.078  22.168  0.00  0.00    +0.000 OA
ENDROOT
BRANCH   1  17
ATOM     17  N   UNL     1       2.265  12.295  17.425  0.00  0.00    +0.000 N 
ATOM     18  H   UNL     1       2.945  13.034  17.547  0.00  0.00    +0.000 HD
ATOM     19  H   UNL     1       1.662  12.501  16.611  0.00  0.00    +0.000 HD
ENDBRANCH   1  17
BRANCH   2  20
ATOM     20  N   UNL     1       0.981  14.485  18.738  0.00  0.00    +0.000 N 
ATOM     21  H   UNL     1       0.675  14.586  17.775  0.00  0.00    +0.000 HD
BRANCH  20  22
ATOM     22  C   UNL     1       2.017  15.440  19.178  0.00  0.00    +0.000 C 
BRANCH  22  23
ATOM     23  C   UNL     1       2.860  15.995  18.015  0.00  0.00    +0.000 C 
BRANCH  23  24
ATOM     24  O   UNL     1       3.482  14.928  17.304  0.00  0.00    +0.000 OA
ATOM     25  H   UNL     1       3.598  14.217  17.962  0.00  0.00    +0.000 HD
ENDBRANCH  23  24
ENDBRANCH  22  23
ENDBRANCH  20  22
ENDBRANCH   2  20
BRANCH   4  26
ATOM     26  N   UNL     1      -0.345  11.647  22.407  0.00  0.00    +0.000 N 
ATOM     27  H   UNL     1      -0.270  10.721  22.841  0.00  0.00    +0.000 HD
BRANCH  26  28
ATOM     28  C   UNL     1      -1.356  12.449  22.980  0.00  0.00    +0.000 A 
ATOM     29  C   UNL     1      -1.115  13.751  23.440  0.00  0.00    +0.000 A 
ATOM     30  C   UNL     1      -2.131  14.520  24.012  0.00  0.00    +0.000 A 
ATOM     31  C   UNL     1      -3.412  13.992  24.137  0.00  0.00    +0.000 A 
ATOM     32  C   UNL     1      -3.667  12.690  23.707  0.00  0.00    +0.000 A 
ATOM     33  C   UNL     1      -2.645  11.925  23.134  0.00  0.00    +0.000 A 
ENDBRANCH  26  28
ENDBRANCH   4  26
TORSDOF 7
ENDMDL
MODEL 9
REMARK VINA RESULT:      -6.8      3.468      7.686
REMARK  Name = 
REMARK  7 active torsions:
REMARK  status: ('A' for Active; 'I' for Inactive)
REMARK    1  A    between atoms: N_1  and  C_2
REMARK    2  A    between atoms: C_3  and  N_4
REMARK    3  A    between atoms: N_4  and  C_5
REMARK    4  A    between atoms: C_5  and  C_6
REMARK    5  A    between atoms: C_6  and  O_7
REMARK    6  A    between atoms: C_9  and  N_10
REMARK    7  A    between atoms: N_10  and  C_11
REMARK                            x       y       z     vdW  Elec       q    Type
REMARK                         _______ _______ _______ _____ _____    ______ ____
ROOT
ATOM      1  C   UNL     1      -0.195   9.817  21.760  0.00  0.00    +0.000 A 
ATOM      2  C   UNL     1      -0.747  11.114  21.710  0.00  0.00    +0.000 A 
ATOM      3  C   UNL     1      -0.402  11.926  20.625  0.00  0.00    +0.000 A 
ATOM      4  C   UNL     1       0.396  11.504  19.554  0.00  0.00    +0.000 A 
ATOM      5  C   UNL     1       0.930  10.200  19.599  0.00  0.00    +0.000 A 
ATOM      6  C   UNL     1       0.638   9.365  20.692  0.00  0.00    +0.000 A 
ATOM      7  C   UNL     1       1.244   8.008  20.753  0.00  0.00    +0.000 C 
ATOM      8  O   UNL     1       1.103   7.290  21.742  0.00  0.00    +0.000 OA
ATOM      9  C   UNL     1       2.061   7.504  19.640  0.00  0.00    +0.000 A 
ATOM     10  C   UNL     1       2.563   6.199  19.683  0.00  0.00    +0.000 A 
ATOM     11  C   UNL     1       3.365   5.720  18.643  0.00  0.00    +0.000 A 
ATOM     12  C   UNL     1       3.666   6.548  17.567  0.00  0.00    +0.000 A 
ATOM     13  C   UNL     1       3.159   7.846  17.519  0.00  0.00    +0.000 A 
ATOM     14  C   UNL     1       2.345   8.333  18.552  0.00  0.00    +0.000 A 
ATOM     15  C   UNL     1       1.795   9.703  18.497  0.00  0.00    +0.000 C 
ATOM     16  O   UNL     1       2.058  10.413  17.529  0.00  0.00    +0.000 OA
ENDROOT
BRANCH   1  17
ATOM     17  N   UNL     1      -0.650   8.914  22.764  0.00  0.00    +0.000 N 
ATOM     18  H   UNL     1      -1.154   8.126  22.380  0.00  0.00    +0.000 HD
ATOM     19  H   UNL     1      -1.239   9.406  23.457  0.00  0.00    +0.000 HD
ENDBRANCH   1  17
BRANCH   2  20
ATOM     20  N   UNL     1      -1.601  11.608  22.701  0.00  0.00    +0.000 N 
ATOM     21  H   UNL     1      -1.926  10.929  23.382  0.00  0.00    +0.000 HD
BRANCH  20  22
ATOM     22  C   UNL     1      -2.529  12.721  22.422  0.00  0.00    +0.000 C 
BRANCH  22  23
ATOM     23  C   UNL     1      -3.437  13.065  23.617  0.00  0.00    +0.000 C 
BRANCH  23  24
ATOM     24  O   UNL     1      -3.952  11.872  24.204  0.00  0.00    +0.000 OA
ATOM     25  H   UNL     1      -4.497  11.461  23.506  0.00  0.00    +0.000 HD
ENDBRANCH  23  24
ENDBRANCH  22  23
ENDBRANCH  20  22
ENDBRANCH   2  20
BRANCH   4  26
ATOM     26  N   UNL     1       0.575  12.390  18.467  0.00  0.00    +0.000 N 
ATOM     27  H   UNL     1       0.614  11.919  17.557  0.00  0.00    +0.000 HD
BRANCH  26  28
ATOM     28  C   UNL     1       1.142  13.683  18.448  0.00  0.00    +0.000 A 
ATOM     29  C   UNL     1       0.403  14.835  18.753  0.00  0.00    +0.000 A 
ATOM     30  C   UNL     1       0.987  16.104  18.717  0.00  0.00    +0.000 A 
ATOM     31  C   UNL     1       2.326  16.240  18.368  0.00  0.00    +0.000 A 
ATOM     32  C   UNL     1       3.072  15.110  18.039  0.00  0.00    +0.000 A 
ATOM     33  C   UNL     1       2.483  13.841  18.076  0.00  0.00    +0.000 A 
ENDBRANCH  26  28
ENDBRANCH   4  26
TORSDOF 7
ENDMDL
