MODEL 1
REMARK VINA RESULT:      -8.8      0.000      0.000
REMARK  Name = 
REMARK  5 active torsions:
REMARK  status: ('A' for Active; 'I' for Inactive)
REMARK    1  A    between atoms: C_1  and  C_2
REMARK    2  A    between atoms: C_6  and  C_7
REMARK    3  A    between atoms: C_7  and  N_8
REMARK    4  A    between atoms: N_12  and  C_13
REMARK    5  A    between atoms: C_19  and  C_20
REMARK                            x       y       z     vdW  Elec       q    Type
REMARK                         _______ _______ _______ _____ _____    ______ ____
ROOT
ATOM      1  N   UNL     1       1.759   4.417  21.244  0.00  0.00    +0.000 N 
ATOM      2  C   UNL     1       1.955   5.525  20.477  0.00  0.00    +0.000 A 
ATOM      3  N   UNL     1       1.388   6.695  20.941  0.00  0.00    +0.000 NA
ATOM      4  C   UNL     1       1.548   7.801  20.273  0.00  0.00    +0.000 A 
ATOM      5  N   UNL     1       1.024   9.032  20.642  0.00  0.00    +0.000 N 
ATOM      6  N   UNL     1       2.332   7.753  19.104  0.00  0.00    +0.000 N 
ATOM      7  N   UNL     1       2.648   8.812  18.316  0.00  0.00    +0.000 NA
ATOM      8  C   UNL     1       3.423   8.265  17.372  0.00  0.00    +0.000 A 
ATOM      9  C   UNL     1       3.641   6.875  17.577  0.00  0.00    +0.000 A 
ATOM     10  C   UNL     1       2.906   6.581  18.706  0.00  0.00    +0.000 A 
ATOM     11  N   UNL     1       2.685   5.445  19.406  0.00  0.00    +0.000 NA
ATOM     12  H   UNL     1       2.239   4.501  22.131  0.00  0.00    +0.000 HD
ATOM     13  H   UNL     1       1.132   9.785  19.966  0.00  0.00    +0.000 HD
ENDROOT
BRANCH   9  14
ATOM     14  C   UNL     1       4.413   5.946  16.821  0.00  0.00    +0.000 C 
ATOM     15  C   UNL     1       5.632   5.492  17.148  0.00  0.00    +0.000 C 
ATOM     16  N   UNL     1       6.391   5.826  18.243  0.00  0.00    +0.000 N 
ATOM     17  C   UNL     1       7.532   5.067  18.275  0.00  0.00    +0.000 C 
ATOM     18  O   UNL     1       8.354   5.060  19.180  0.00  0.00    +0.000 OA
ATOM     19  N   UNL     1       7.555   4.299  17.148  0.00  0.00    +0.000 N 
ATOM     20  C   UNL     1       6.427   4.478  16.394  0.00  0.00    +0.000 C 
ATOM     21  O   UNL     1       6.124   3.936  15.354  0.00  0.00    +0.000 OA
ATOM     22  H   UNL     1       6.064   6.408  19.006  0.00  0.00    +0.000 HD
ATOM     23  H   UNL     1       8.285   3.643  16.930  0.00  0.00    +0.000 HD
ENDBRANCH   9  14
BRANCH   5  24
ATOM     24  C   UNL     1       0.690   9.306  22.042  0.00  0.00    +0.000 C 
ATOM     25  C   UNL     1      -0.169  10.470  22.469  0.00  0.00    +0.000 C 
ATOM     26  C   UNL     1      -0.710   9.076  22.555  0.00  0.00    +0.000 C 
ENDBRANCH   5  24
BRANCH   1  27
ATOM     27  C   UNL     1       1.821   3.075  20.682  0.00  0.00    +0.000 C 
BRANCH  27  33
ATOM     28  C   UNL     1       3.626   2.318  18.027  0.00  0.00    +0.000 C 
ATOM     29  C   UNL     1       3.942   2.133  19.457  0.00  0.00    +0.000 A 
ATOM     30  N   UNL     1       5.099   1.589  19.840  0.00  0.00    +0.000 NA
ATOM     31  O   UNL     1       5.049   1.572  21.229  0.00  0.00    +0.000 OA
ATOM     32  N   UNL     1       3.853   2.105  21.694  0.00  0.00    +0.000 NA
ATOM     33  C   UNL     1       3.177   2.455  20.595  0.00  0.00    +0.000 A 
ENDBRANCH  27  33
ENDBRANCH   1  27
TORSDOF 4
ENDMDL
MODEL 2
REMARK VINA RESULT:      -8.8      1.416      1.568
REMARK  Name = 
REMARK  5 active torsions:
REMARK  status: ('A' for Active; 'I' for Inactive)
REMARK    1  A    between atoms: C_1  and  C_2
REMARK    2  A    between atoms: C_6  and  C_7
REMARK    3  A    between atoms: C_7  and  N_8
REMARK    4  A    between atoms: N_12  and  C_13
REMARK    5  A    between atoms: C_19  and  C_20
REMARK                            x       y       z     vdW  Elec       q    Type
REMARK                         _______ _______ _______ _____ _____    ______ ____
ROOT
ATOM      1  N   UNL     1       2.406   4.531  21.529  0.00  0.00    +0.000 N 
ATOM      2  C   UNL     1       2.405   5.573  20.653  0.00  0.00    +0.000 A 
ATOM      3  N   UNL     1       1.704   6.697  21.044  0.00  0.00    +0.000 NA
ATOM      4  C   UNL     1       1.674   7.743  20.267  0.00  0.00    +0.000 A 
ATOM      5  N   UNL     1       1.003   8.922  20.556  0.00  0.00    +0.000 N 
ATOM      6  N   UNL     1       2.396   7.685  19.060  0.00  0.00    +0.000 N 
ATOM      7  N   UNL     1       2.520   8.693  18.160  0.00  0.00    +0.000 NA
ATOM      8  C   UNL     1       3.314   8.164  17.222  0.00  0.00    +0.000 A 
ATOM      9  C   UNL     1       3.736   6.843  17.539  0.00  0.00    +0.000 A 
ATOM     10  C   UNL     1       3.107   6.567  18.734  0.00  0.00    +0.000 A 
ATOM     11  N   UNL     1       3.083   5.486  19.548  0.00  0.00    +0.000 NA
ATOM     12  H   UNL     1       2.914   4.767  22.372  0.00  0.00    +0.000 HD
ATOM     13  H   UNL     1       0.969   9.612  19.808  0.00  0.00    +0.000 HD
ENDROOT
BRANCH   9  14
ATOM     14  C   UNL     1       4.590   5.955  16.823  0.00  0.00    +0.000 C 
ATOM     15  C   UNL     1       5.791   5.523  17.235  0.00  0.00    +0.000 C 
ATOM     16  N   UNL     1       6.451   5.845  18.395  0.00  0.00    +0.000 N 
ATOM     17  C   UNL     1       7.607   5.114  18.498  0.00  0.00    +0.000 C 
ATOM     18  O   UNL     1       8.354   5.103  19.466  0.00  0.00    +0.000 OA
ATOM     19  N   UNL     1       7.740   4.380  17.357  0.00  0.00    +0.000 N 
ATOM     20  C   UNL     1       6.671   4.551  16.520  0.00  0.00    +0.000 C 
ATOM     21  O   UNL     1       6.467   4.032  15.445  0.00  0.00    +0.000 OA
ATOM     22  H   UNL     1       6.048   6.396  19.145  0.00  0.00    +0.000 HD
ATOM     23  H   UNL     1       8.503   3.749  17.181  0.00  0.00    +0.000 HD
ENDBRANCH   9  14
BRANCH   5  24
ATOM     24  C   UNL     1       0.705   9.287  21.944  0.00  0.00    +0.000 C 
ATOM     25  C   UNL     1      -0.188  10.444  22.316  0.00  0.00    +0.000 C 
ATOM     26  C   UNL     1      -0.665   9.039  22.524  0.00  0.00    +0.000 C 
ENDBRANCH   5  24
BRANCH   1  27
ATOM     27  C   UNL     1       2.626   3.160  21.089  0.00  0.00    +0.000 C 
BRANCH  27  33
ATOM     28  C   UNL     1       3.846   2.235  18.167  0.00  0.00    +0.000 C 
ATOM     29  C   UNL     1       2.439   2.347  18.601  0.00  0.00    +0.000 A 
ATOM     30  N   UNL     1       1.438   2.056  17.767  0.00  0.00    +0.000 NA
ATOM     31  O   UNL     1       0.279   2.274  18.504  0.00  0.00    +0.000 OA
ATOM     32  N   UNL     1       0.576   2.703  19.791  0.00  0.00    +0.000 NA
ATOM     33  C   UNL     1       1.912   2.740  19.847  0.00  0.00    +0.000 A 
ENDBRANCH  27  33
ENDBRANCH   1  27
TORSDOF 4
ENDMDL
MODEL 3
REMARK VINA RESULT:      -8.0      1.359      1.560
REMARK  Name = 
REMARK  5 active torsions:
REMARK  status: ('A' for Active; 'I' for Inactive)
REMARK    1  A    between atoms: C_1  and  C_2
REMARK    2  A    between atoms: C_6  and  C_7
REMARK    3  A    between atoms: C_7  and  N_8
REMARK    4  A    between atoms: N_12  and  C_13
REMARK    5  A    between atoms: C_19  and  C_20
REMARK                            x       y       z     vdW  Elec       q    Type
REMARK                         _______ _______ _______ _____ _____    ______ ____
ROOT
ATOM      1  N   UNL     1       2.359   4.166  21.529  0.00  0.00    +0.000 N 
ATOM      2  C   UNL     1       2.331   5.234  20.686  0.00  0.00    +0.000 A 
ATOM      3  N   UNL     1       1.454   6.249  21.016  0.00  0.00    +0.000 NA
ATOM      4  C   UNL     1       1.385   7.313  20.268  0.00  0.00    +0.000 A 
ATOM      5  N   UNL     1       0.542   8.390  20.501  0.00  0.00    +0.000 N 
ATOM      6  N   UNL     1       2.246   7.390  19.156  0.00  0.00    +0.000 N 
ATOM      7  N   UNL     1       2.348   8.441  18.303  0.00  0.00    +0.000 NA
ATOM      8  C   UNL     1       3.307   8.050  17.456  0.00  0.00    +0.000 A 
ATOM      9  C   UNL     1       3.850   6.778  17.789  0.00  0.00    +0.000 A 
ATOM     10  C   UNL     1       3.125   6.381  18.892  0.00  0.00    +0.000 A 
ATOM     11  N   UNL     1       3.140   5.274  19.670  0.00  0.00    +0.000 NA
ATOM     12  H   UNL     1       2.730   4.428  22.433  0.00  0.00    +0.000 HD
ATOM     13  H   UNL     1       0.511   9.100  19.772  0.00  0.00    +0.000 HD
ENDROOT
BRANCH   9  14
ATOM     14  C   UNL     1       4.887   6.030  17.161  0.00  0.00    +0.000 C 
ATOM     15  C   UNL     1       6.033   5.640  17.741  0.00  0.00    +0.000 C 
ATOM     16  N   UNL     1       6.454   5.886  19.024  0.00  0.00    +0.000 N 
ATOM     17  C   UNL     1       7.633   5.228  19.267  0.00  0.00    +0.000 C 
ATOM     18  O   UNL     1       8.201   5.168  20.348  0.00  0.00    +0.000 OA
ATOM     19  N   UNL     1       8.022   4.627  18.107  0.00  0.00    +0.000 N 
ATOM     20  C   UNL     1       7.101   4.810  17.110  0.00  0.00    +0.000 C 
ATOM     21  O   UNL     1       7.130   4.392  15.974  0.00  0.00    +0.000 OA
ATOM     22  H   UNL     1       5.883   6.327  19.736  0.00  0.00    +0.000 HD
ATOM     23  H   UNL     1       8.855   4.070  18.014  0.00  0.00    +0.000 HD
ENDBRANCH   9  14
BRANCH   5  24
ATOM     24  C   UNL     1       0.040   8.661  21.851  0.00  0.00    +0.000 C 
ATOM     25  C   UNL     1       0.833   9.420  22.885  0.00  0.00    +0.000 C 
ATOM     26  C   UNL     1      -0.365  10.058  22.251  0.00  0.00    +0.000 C 
ENDBRANCH   5  24
BRANCH   1  27
ATOM     27  C   UNL     1       2.799   2.850  21.085  0.00  0.00    +0.000 C 
BRANCH  27  33
ATOM     28  C   UNL     1       0.367   2.506  18.884  0.00  0.00    +0.000 C 
ATOM     29  C   UNL     1       1.828   2.492  18.674  0.00  0.00    +0.000 A 
ATOM     30  N   UNL     1       2.345   2.319  17.456  0.00  0.00    +0.000 NA
ATOM     31  O   UNL     1       3.722   2.358  17.638  0.00  0.00    +0.000 OA
ATOM     32  N   UNL     1       4.046   2.551  18.976  0.00  0.00    +0.000 NA
ATOM     33  C   UNL     1       2.871   2.639  19.609  0.00  0.00    +0.000 A 
ENDBRANCH  27  33
ENDBRANCH   1  27
TORSDOF 4
ENDMDL
MODEL 4
REMARK VINA RESULT:      -7.8      3.094      6.572
REMARK  Name = 
REMARK  5 active torsions:
REMARK  status: ('A' for Active; 'I' for Inactive)
REMARK    1  A    between atoms: C_1  and  C_2
REMARK    2  A    between atoms: C_6  and  C_7
REMARK    3  A    between atoms: C_7  and  N_8
REMARK    4  A    between atoms: N_12  and  C_13
REMARK    5  A    between atoms: C_19  and  C_20
REMARK                            x       y       z     vdW  Elec       q    Type
REMARK                         _______ _______ _______ _____ _____    ______ ____
ROOT
ATOM      1  N   UNL     1       4.460   2.323  18.603  0.00  0.00    +0.000 N 
ATOM      2  C   UNL     1       4.506   3.544  18.003  0.00  0.00    +0.000 A 
ATOM      3  N   UNL     1       5.115   3.592  16.765  0.00  0.00    +0.000 NA
ATOM      4  C   UNL     1       5.180   4.721  16.119  0.00  0.00    +0.000 A 
ATOM      5  N   UNL     1       5.768   4.886  14.873  0.00  0.00    +0.000 N 
ATOM      6  N   UNL     1       4.588   5.852  16.713  0.00  0.00    +0.000 N 
ATOM      7  N   UNL     1       4.514   7.090  16.163  0.00  0.00    +0.000 NA
ATOM      8  C   UNL     1       3.843   7.790  17.085  0.00  0.00    +0.000 A 
ATOM      9  C   UNL     1       3.447   6.997  18.197  0.00  0.00    +0.000 A 
ATOM     10  C   UNL     1       3.962   5.748  17.921  0.00  0.00    +0.000 A 
ATOM     11  N   UNL     1       3.948   4.566  18.579  0.00  0.00    +0.000 NA
ATOM     12  H   UNL     1       3.859   1.690  18.091  0.00  0.00    +0.000 HD
ATOM     13  H   UNL     1       5.849   5.845  14.540  0.00  0.00    +0.000 HD
ENDROOT
BRANCH   9  14
ATOM     14  C   UNL     1       2.709   7.353  19.363  0.00  0.00    +0.000 C 
ATOM     15  C   UNL     1       1.814   8.349  19.449  0.00  0.00    +0.000 C 
ATOM     16  N   UNL     1       1.438   9.231  18.466  0.00  0.00    +0.000 N 
ATOM     17  C   UNL     1       0.420  10.032  18.916  0.00  0.00    +0.000 C 
ATOM     18  O   UNL     1      -0.196  10.844  18.240  0.00  0.00    +0.000 OA
ATOM     19  N   UNL     1       0.197   9.727  20.227  0.00  0.00    +0.000 N 
ATOM     20  C   UNL     1       0.995   8.697  20.647  0.00  0.00    +0.000 C 
ATOM     21  O   UNL     1       1.031   8.172  21.737  0.00  0.00    +0.000 OA
ATOM     22  H   UNL     1       1.737   9.169  17.499  0.00  0.00    +0.000 HD
ATOM     23  H   UNL     1      -0.507  10.168  20.794  0.00  0.00    +0.000 HD
ENDBRANCH   9  14
BRANCH   5  24
ATOM     24  C   UNL     1       5.907   3.748  13.960  0.00  0.00    +0.000 C 
ATOM     25  C   UNL     1       5.167   3.651  12.650  0.00  0.00    +0.000 C 
ATOM     26  C   UNL     1       6.644   3.900  12.653  0.00  0.00    +0.000 C 
ENDBRANCH   5  24
BRANCH   1  27
ATOM     27  C   UNL     1       4.344   2.184  20.049  0.00  0.00    +0.000 C 
BRANCH  27  33
ATOM     28  C   UNL     1       1.374   2.128  18.614  0.00  0.00    +0.000 C 
ATOM     29  C   UNL     1       1.731   2.428  20.015  0.00  0.00    +0.000 A 
ATOM     30  N   UNL     1       0.792   2.735  20.913  0.00  0.00    +0.000 NA
ATOM     31  O   UNL     1       1.483   2.955  22.099  0.00  0.00    +0.000 OA
ATOM     32  N   UNL     1       2.851   2.784  21.921  0.00  0.00    +0.000 NA
ATOM     33  C   UNL     1       2.996   2.453  20.634  0.00  0.00    +0.000 A 
ENDBRANCH  27  33
ENDBRANCH   1  27
TORSDOF 4
ENDMDL
MODEL 5
REMARK VINA RESULT:      -7.8      3.228      6.747
REMARK  Name = 
REMARK  5 active torsions:
REMARK  status: ('A' for Active; 'I' for Inactive)
REMARK    1  A    between atoms: C_1  and  C_2
REMARK    2  A    between atoms: C_6  and  C_7
REMARK    3  A    between atoms: C_7  and  N_8
REMARK    4  A    between atoms: N_12  and  C_13
REMARK    5  A    between atoms: C_19  and  C_20
REMARK                            x       y       z     vdW  Elec       q    Type
REMARK                         _______ _______ _______ _____ _____    ______ ____
ROOT
ATOM      1  N   UNL     1       3.959   1.922  17.469  0.00  0.00    +0.000 N 
ATOM      2  C   UNL     1       4.316   3.190  17.124  0.00  0.00    +0.000 A 
ATOM      3  N   UNL     1       5.165   3.312  16.042  0.00  0.00    +0.000 NA
ATOM      4  C   UNL     1       5.535   4.494  15.640  0.00  0.00    +0.000 A 
ATOM      5  N   UNL     1       6.383   4.735  14.569  0.00  0.00    +0.000 N 
ATOM      6  N   UNL     1       5.017   5.611  16.323  0.00  0.00    +0.000 N 
ATOM      7  N   UNL     1       5.250   6.911  16.010  0.00  0.00    +0.000 NA
ATOM      8  C   UNL     1       4.521   7.575  16.915  0.00  0.00    +0.000 A 
ATOM      9  C   UNL     1       3.789   6.709  17.774  0.00  0.00    +0.000 A 
ATOM     10  C   UNL     1       4.149   5.443  17.362  0.00  0.00    +0.000 A 
ATOM     11  N   UNL     1       3.818   4.198  17.775  0.00  0.00    +0.000 NA
ATOM     12  H   UNL     1       3.385   1.500  16.750  0.00  0.00    +0.000 HD
ATOM     13  H   UNL     1       6.678   5.701  14.440  0.00  0.00    +0.000 HD
ENDROOT
BRANCH   9  14
ATOM     14  C   UNL     1       2.892   7.014  18.838  0.00  0.00    +0.000 C 
ATOM     15  C   UNL     1       2.218   8.165  18.989  0.00  0.00    +0.000 C 
ATOM     16  N   UNL     1       2.257   9.276  18.183  0.00  0.00    +0.000 N 
ATOM     17  C   UNL     1       1.345  10.203  18.615  0.00  0.00    +0.000 C 
ATOM     18  O   UNL     1       1.071  11.250  18.044  0.00  0.00    +0.000 OA
ATOM     19  N   UNL     1       0.775   9.727  19.759  0.00  0.00    +0.000 N 
ATOM     20  C   UNL     1       1.236   8.476  20.068  0.00  0.00    +0.000 C 
ATOM     21  O   UNL     1       0.919   7.767  20.998  0.00  0.00    +0.000 OA
ATOM     22  H   UNL     1       2.748   9.320  17.297  0.00  0.00    +0.000 HD
ATOM     23  H   UNL     1       0.063  10.214  20.278  0.00  0.00    +0.000 HD
ENDBRANCH   9  14
BRANCH   5  24
ATOM     24  C   UNL     1       6.527   3.745  13.498  0.00  0.00    +0.000 C 
ATOM     25  C   UNL     1       5.534   3.604  12.372  0.00  0.00    +0.000 C 
ATOM     26  C   UNL     1       6.890   4.178  12.100  0.00  0.00    +0.000 C 
ENDBRANCH   5  24
BRANCH   1  27
ATOM     27  C   UNL     1       3.530   1.586  18.820  0.00  0.00    +0.000 C 
BRANCH  27  33
ATOM     28  C   UNL     1       2.566   2.880  21.697  0.00  0.00    +0.000 C 
ATOM     29  C   UNL     1       1.784   2.648  20.466  0.00  0.00    +0.000 A 
ATOM     30  N   UNL     1       0.490   2.971  20.403  0.00  0.00    +0.000 NA
ATOM     31  O   UNL     1       0.090   2.615  19.120  0.00  0.00    +0.000 OA
ATOM     32  N   UNL     1       1.145   2.068  18.400  0.00  0.00    +0.000 NA
ATOM     33  C   UNL     1       2.189   2.097  19.235  0.00  0.00    +0.000 A 
ENDBRANCH  27  33
ENDBRANCH   1  27
TORSDOF 4
ENDMDL
MODEL 6
REMARK VINA RESULT:      -7.6      1.845      1.955
REMARK  Name = 
REMARK  5 active torsions:
REMARK  status: ('A' for Active; 'I' for Inactive)
REMARK    1  A    between atoms: C_1  and  C_2
REMARK    2  A    between atoms: C_6  and  C_7
REMARK    3  A    between atoms: C_7  and  N_8
REMARK    4  A    between atoms: N_12  and  C_13
REMARK    5  A    between atoms: C_19  and  C_20
REMARK                            x       y       z     vdW  Elec       q    Type
REMARK                         _______ _______ _______ _____ _____    ______ ____
ROOT
ATOM      1  N   UNL     1       2.227   4.524  21.559  0.00  0.00    +0.000 N 
ATOM      2  C   UNL     1       2.089   5.615  20.758  0.00  0.00    +0.000 A 
ATOM      3  N   UNL     1       1.218   6.591  21.202  0.00  0.00    +0.000 NA
ATOM      4  C   UNL     1       1.048   7.674  20.499  0.00  0.00    +0.000 A 
ATOM      5  N   UNL     1       0.200   8.716  20.846  0.00  0.00    +0.000 N 
ATOM      6  N   UNL     1       1.797   7.812  19.314  0.00  0.00    +0.000 N 
ATOM      7  N   UNL     1       1.787   8.891  18.491  0.00  0.00    +0.000 NA
ATOM      8  C   UNL     1       2.672   8.556  17.545  0.00  0.00    +0.000 A 
ATOM      9  C   UNL     1       3.281   7.293  17.783  0.00  0.00    +0.000 A 
ATOM     10  C   UNL     1       2.675   6.839  18.936  0.00  0.00    +0.000 A 
ATOM     11  N   UNL     1       2.796   5.711  19.672  0.00  0.00    +0.000 NA
ATOM     12  H   UNL     1       2.675   4.771  22.433  0.00  0.00    +0.000 HD
ATOM     13  H   UNL     1       0.080   9.447  20.147  0.00  0.00    +0.000 HD
ENDROOT
BRANCH   9  14
ATOM     14  C   UNL     1       4.274   6.596  17.036  0.00  0.00    +0.000 C 
ATOM     15  C   UNL     1       5.592   6.845  17.065  0.00  0.00    +0.000 C 
ATOM     16  N   UNL     1       6.253   7.809  17.786  0.00  0.00    +0.000 N 
ATOM     17  C   UNL     1       7.608   7.671  17.626  0.00  0.00    +0.000 C 
ATOM     18  O   UNL     1       8.462   8.313  18.221  0.00  0.00    +0.000 OA
ATOM     19  N   UNL     1       7.822   6.668  16.727  0.00  0.00    +0.000 N 
ATOM     20  C   UNL     1       6.648   6.088  16.329  0.00  0.00    +0.000 C 
ATOM     21  O   UNL     1       6.488   5.163  15.564  0.00  0.00    +0.000 OA
ATOM     22  H   UNL     1       5.812   8.406  18.477  0.00  0.00    +0.000 HD
ATOM     23  H   UNL     1       8.735   6.358  16.437  0.00  0.00    +0.000 HD
ENDBRANCH   9  14
BRANCH   5  24
ATOM     24  C   UNL     1      -0.179   8.931  22.245  0.00  0.00    +0.000 C 
ATOM     25  C   UNL     1       0.753   9.536  23.265  0.00  0.00    +0.000 C 
ATOM     26  C   UNL     1      -0.419  10.325  22.768  0.00  0.00    +0.000 C 
ENDBRANCH   5  24
BRANCH   1  27
ATOM     27  C   UNL     1       2.661   3.236  21.034  0.00  0.00    +0.000 C 
BRANCH  27  33
ATOM     28  C   UNL     1       4.051   2.807  18.073  0.00  0.00    +0.000 C 
ATOM     29  C   UNL     1       2.644   2.625  18.482  0.00  0.00    +0.000 A 
ATOM     30  N   UNL     1       1.719   2.234  17.603  0.00  0.00    +0.000 NA
ATOM     31  O   UNL     1       0.534   2.174  18.327  0.00  0.00    +0.000 OA
ATOM     32  N   UNL     1       0.739   2.534  19.653  0.00  0.00    +0.000 NA
ATOM     33  C   UNL     1       2.045   2.806  19.743  0.00  0.00    +0.000 A 
ENDBRANCH  27  33
ENDBRANCH   1  27
TORSDOF 4
ENDMDL
MODEL 7
REMARK VINA RESULT:      -7.5      6.924     11.141
REMARK  Name = 
REMARK  5 active torsions:
REMARK  status: ('A' for Active; 'I' for Inactive)
REMARK    1  A    between atoms: C_1  and  C_2
REMARK    2  A    between atoms: C_6  and  C_7
REMARK    3  A    between atoms: C_7  and  N_8
REMARK    4  A    between atoms: N_12  and  C_13
REMARK    5  A    between atoms: C_19  and  C_20
REMARK                            x       y       z     vdW  Elec       q    Type
REMARK                         _______ _______ _______ _____ _____    ______ ____
ROOT
ATOM      1  N   UNL     1      -0.684  12.089  21.561  0.00  0.00    +0.000 N 
ATOM      2  C   UNL     1      -0.989  11.615  20.322  0.00  0.00    +0.000 A 
ATOM      3  N   UNL     1       0.000  10.893  19.685  0.00  0.00    +0.000 NA
ATOM      4  C   UNL     1      -0.224  10.391  18.504  0.00  0.00    +0.000 A 
ATOM      5  N   UNL     1       0.695   9.652  17.772  0.00  0.00    +0.000 N 
ATOM      6  N   UNL     1      -1.498  10.587  17.938  0.00  0.00    +0.000 N 
ATOM      7  N   UNL     1      -1.923  10.092  16.748  0.00  0.00    +0.000 NA
ATOM      8  C   UNL     1      -3.189  10.519  16.679  0.00  0.00    +0.000 A 
ATOM      9  C   UNL     1      -3.590  11.243  17.836  0.00  0.00    +0.000 A 
ATOM     10  C   UNL     1      -2.458  11.273  18.623  0.00  0.00    +0.000 A 
ATOM     11  N   UNL     1      -2.176  11.813  19.831  0.00  0.00    +0.000 NA
ATOM     12  H   UNL     1      -0.573  11.330  22.221  0.00  0.00    +0.000 HD
ATOM     13  H   UNL     1       0.425   9.421  16.818  0.00  0.00    +0.000 HD
ENDROOT
BRANCH   9  14
ATOM     14  C   UNL     1      -4.844  11.837  18.158  0.00  0.00    +0.000 C 
ATOM     15  C   UNL     1      -5.879  11.214  18.742  0.00  0.00    +0.000 C 
ATOM     16  N   UNL     1      -5.961   9.900  19.130  0.00  0.00    +0.000 N 
ATOM     17  C   UNL     1      -7.144   9.676  19.786  0.00  0.00    +0.000 C 
ATOM     18  O   UNL     1      -7.461   8.632  20.341  0.00  0.00    +0.000 OA
ATOM     19  N   UNL     1      -7.870  10.829  19.745  0.00  0.00    +0.000 N 
ATOM     20  C   UNL     1      -7.176  11.839  19.134  0.00  0.00    +0.000 C 
ATOM     21  O   UNL     1      -7.521  12.986  18.955  0.00  0.00    +0.000 OA
ATOM     22  H   UNL     1      -5.185   9.248  19.103  0.00  0.00    +0.000 HD
ATOM     23  H   UNL     1      -8.779  10.937  20.162  0.00  0.00    +0.000 HD
ENDBRANCH   9  14
BRANCH   5  24
ATOM     24  C   UNL     1       1.786   8.945  18.448  0.00  0.00    +0.000 C 
ATOM     25  C   UNL     1       1.997   7.456  18.330  0.00  0.00    +0.000 C 
ATOM     26  C   UNL     1       2.949   8.398  17.657  0.00  0.00    +0.000 C 
ENDBRANCH   5  24
BRANCH   1  27
ATOM     27  C   UNL     1      -1.361  13.248  22.127  0.00  0.00    +0.000 C 
BRANCH  27  33
ATOM     28  C   UNL     1      -3.222  15.337  23.875  0.00  0.00    +0.000 C 
ATOM     29  C   UNL     1      -3.262  13.862  23.829  0.00  0.00    +0.000 A 
ATOM     30  N   UNL     1      -4.139  13.176  24.564  0.00  0.00    +0.000 NA
ATOM     31  O   UNL     1      -3.888  11.840  24.273  0.00  0.00    +0.000 OA
ATOM     32  N   UNL     1      -2.850  11.712  23.360  0.00  0.00    +0.000 NA
ATOM     33  C   UNL     1      -2.471  12.965  23.085  0.00  0.00    +0.000 A 
ENDBRANCH  27  33
ENDBRANCH   1  27
TORSDOF 4
ENDMDL
MODEL 8
REMARK VINA RESULT:      -7.5      7.057     10.903
REMARK  Name = 
REMARK  5 active torsions:
REMARK  status: ('A' for Active; 'I' for Inactive)
REMARK    1  A    between atoms: C_1  and  C_2
REMARK    2  A    between atoms: C_6  and  C_7
REMARK    3  A    between atoms: C_7  and  N_8
REMARK    4  A    between atoms: N_12  and  C_13
REMARK    5  A    between atoms: C_19  and  C_20
REMARK                            x       y       z     vdW  Elec       q    Type
REMARK                         _______ _______ _______ _____ _____    ______ ____
ROOT
ATOM      1  N   UNL     1      -0.273  10.449  18.418  0.00  0.00    +0.000 N 
ATOM      2  C   UNL     1      -1.537  10.939  18.293  0.00  0.00    +0.000 A 
ATOM      3  N   UNL     1      -2.177  10.677  17.097  0.00  0.00    +0.000 NA
ATOM      4  C   UNL     1      -3.396  11.096  16.911  0.00  0.00    +0.000 A 
ATOM      5  N   UNL     1      -4.133  10.893  15.753  0.00  0.00    +0.000 N 
ATOM      6  N   UNL     1      -4.024  11.781  17.969  0.00  0.00    +0.000 N 
ATOM      7  N   UNL     1      -5.301  12.239  17.971  0.00  0.00    +0.000 NA
ATOM      8  C   UNL     1      -5.427  12.775  19.190  0.00  0.00    +0.000 A 
ATOM      9  C   UNL     1      -4.257  12.622  19.983  0.00  0.00    +0.000 A 
ATOM     10  C   UNL     1      -3.366  11.982  19.147  0.00  0.00    +0.000 A 
ATOM     11  N   UNL     1      -2.087  11.565  19.290  0.00  0.00    +0.000 NA
ATOM     12  H   UNL     1      -0.278   9.438  18.442  0.00  0.00    +0.000 HD
ATOM     13  H   UNL     1      -5.029  11.375  15.703  0.00  0.00    +0.000 HD
ENDROOT
BRANCH   9  14
ATOM     14  C   UNL     1      -3.996  13.027  21.324  0.00  0.00    +0.000 C 
ATOM     15  C   UNL     1      -4.828  12.872  22.365  0.00  0.00    +0.000 C 
ATOM     16  N   UNL     1      -6.085  12.321  22.364  0.00  0.00    +0.000 N 
ATOM     17  C   UNL     1      -6.568  12.247  23.645  0.00  0.00    +0.000 C 
ATOM     18  O   UNL     1      -7.615  11.711  23.979  0.00  0.00    +0.000 OA
ATOM     19  N   UNL     1      -5.655  12.835  24.470  0.00  0.00    +0.000 N 
ATOM     20  C   UNL     1      -4.544  13.243  23.783  0.00  0.00    +0.000 C 
ATOM     21  O   UNL     1      -3.546  13.775  24.215  0.00  0.00    +0.000 OA
ATOM     22  H   UNL     1      -6.507  11.866  21.562  0.00  0.00    +0.000 HD
ATOM     23  H   UNL     1      -5.764  12.908  25.467  0.00  0.00    +0.000 HD
ENDBRANCH   9  14
BRANCH   5  24
ATOM     24  C   UNL     1      -3.816   9.778  14.857  0.00  0.00    +0.000 C 
ATOM     25  C   UNL     1      -4.309   9.702  13.433  0.00  0.00    +0.000 C 
ATOM     26  C   UNL     1      -2.860   9.970  13.705  0.00  0.00    +0.000 C 
ENDBRANCH   5  24
BRANCH   1  27
ATOM     27  C   UNL     1       0.692  11.043  19.334  0.00  0.00    +0.000 C 
BRANCH  27  33
ATOM     28  C   UNL     1       1.591   8.049  20.388  0.00  0.00    +0.000 C 
ATOM     29  C   UNL     1       1.102   9.207  21.163  0.00  0.00    +0.000 A 
ATOM     30  N   UNL     1       0.966   9.138  22.489  0.00  0.00    +0.000 NA
ATOM     31  O   UNL     1       0.490  10.387  22.870  0.00  0.00    +0.000 OA
ATOM     32  N   UNL     1       0.332  11.220  21.770  0.00  0.00    +0.000 NA
ATOM     33  C   UNL     1       0.718  10.487  20.720  0.00  0.00    +0.000 A 
ENDBRANCH  27  33
ENDBRANCH   1  27
TORSDOF 4
ENDMDL
MODEL 9
REMARK VINA RESULT:      -7.4      7.950     11.620
REMARK  Name = 
REMARK  5 active torsions:
REMARK  status: ('A' for Active; 'I' for Inactive)
REMARK    1  A    between atoms: C_1  and  C_2
REMARK    2  A    between atoms: C_6  and  C_7
REMARK    3  A    between atoms: C_7  and  N_8
REMARK    4  A    between atoms: N_12  and  C_13
REMARK    5  A    between atoms: C_19  and  C_20
REMARK                            x       y       z     vdW  Elec       q    Type
REMARK                         _______ _______ _______ _____ _____    ______ ____
ROOT
ATOM      1  N   UNL     1      -1.162  11.784  19.404  0.00  0.00    +0.000 N 
ATOM      2  C   UNL     1      -2.452  11.854  18.976  0.00  0.00    +0.000 A 
ATOM      3  N   UNL     1      -2.654  11.692  17.619  0.00  0.00    +0.000 NA
ATOM      4  C   UNL     1      -3.863  11.727  17.137  0.00  0.00    +0.000 A 
ATOM      5  N   UNL     1      -4.184  11.579  15.795  0.00  0.00    +0.000 N 
ATOM      6  N   UNL     1      -4.927  11.900  18.043  0.00  0.00    +0.000 N 
ATOM      7  N   UNL     1      -6.246  11.907  17.727  0.00  0.00    +0.000 NA
ATOM      8  C   UNL     1      -6.841  12.067  18.915  0.00  0.00    +0.000 A 
ATOM      9  C   UNL     1      -5.913  12.116  19.992  0.00  0.00    +0.000 A 
ATOM     10  C   UNL     1      -4.681  12.016  19.380  0.00  0.00    +0.000 A 
ATOM     11  N   UNL     1      -3.409  12.013  19.839  0.00  0.00    +0.000 NA
ATOM     12  H   UNL     1      -0.791  10.850  19.284  0.00  0.00    +0.000 HD
ATOM     13  H   UNL     1      -5.157  11.742  15.546  0.00  0.00    +0.000 HD
ENDROOT
BRANCH   9  14
ATOM     14  C   UNL     1      -6.139  12.253  21.392  0.00  0.00    +0.000 C 
ATOM     15  C   UNL     1      -5.625  13.211  22.178  0.00  0.00    +0.000 C 
ATOM     16  N   UNL     1      -4.780  14.232  21.820  0.00  0.00    +0.000 N 
ATOM     17  C   UNL     1      -4.568  15.065  22.888  0.00  0.00    +0.000 C 
ATOM     18  O   UNL     1      -3.946  16.118  22.854  0.00  0.00    +0.000 OA
ATOM     19  N   UNL     1      -5.208  14.531  23.967  0.00  0.00    +0.000 N 
ATOM     20  C   UNL     1      -5.897  13.397  23.634  0.00  0.00    +0.000 C 
ATOM     21  O   UNL     1      -6.584  12.698  24.346  0.00  0.00    +0.000 OA
ATOM     22  H   UNL     1      -4.511  14.440  20.864  0.00  0.00    +0.000 HD
ATOM     23  H   UNL     1      -5.217  14.953  24.881  0.00  0.00    +0.000 HD
ENDBRANCH   9  14
BRANCH   5  24
ATOM     24  C   UNL     1      -3.274  10.873  14.888  0.00  0.00    +0.000 C 
ATOM     25  C   UNL     1      -2.962   9.403  15.018  0.00  0.00    +0.000 C 
ATOM     26  C   UNL     1      -3.810   9.886  13.881  0.00  0.00    +0.000 C 
ENDBRANCH   5  24
BRANCH   1  27
ATOM     27  C   UNL     1      -0.728  12.421  20.640  0.00  0.00    +0.000 C 
BRANCH  27  33
ATOM     28  C   UNL     1      -2.425  11.733  23.383  0.00  0.00    +0.000 C 
ATOM     29  C   UNL     1      -1.114  11.219  22.940  0.00  0.00    +0.000 A 
ATOM     30  N   UNL     1      -0.431  10.346  23.684  0.00  0.00    +0.000 NA
ATOM     31  O   UNL     1       0.734  10.094  22.969  0.00  0.00    +0.000 OA
ATOM     32  N   UNL     1       0.762  10.820  21.785  0.00  0.00    +0.000 NA
ATOM     33  C   UNL     1      -0.384  11.508  21.770  0.00  0.00    +0.000 A 
ENDBRANCH  27  33
ENDBRANCH   1  27
TORSDOF 4
ENDMDL
