MODEL 1
REMARK VINA RESULT:      -9.1      0.000      0.000
REMARK  Name = 
REMARK  7 active torsions:
REMARK  status: ('A' for Active; 'I' for Inactive)
REMARK    1  A    between atoms: C_1  and  C_2
REMARK    2  A    between atoms: C_4  and  C_5
REMARK    3  A    between atoms: C_10  and  C_11
REMARK    4  A    between atoms: N_19  and  C_20
REMARK    5  A    between atoms: C_20  and  C_21
REMARK    6  A    between atoms: C_20  and  C_22
REMARK    7  A    between atoms: N_29  and  C_30
REMARK                            x       y       z     vdW  Elec       q    Type
REMARK                         _______ _______ _______ _____ _____    ______ ____
ROOT
ATOM      1  C   UNL     1       3.637   7.278  18.037  0.00  0.00    +0.000 A 
ATOM      2  N   UNL     1       3.363   8.392  17.401  0.00  0.00    +0.000 NA
ATOM      3  C   UNL     1       2.361   8.985  18.099  0.00  0.00    +0.000 A 
ATOM      4  C   UNL     1       1.796  10.228  17.841  0.00  0.00    +0.000 A 
ATOM      5  N   UNL     1       0.817  10.710  18.619  0.00  0.00    +0.000 NA
ATOM      6  C   UNL     1       0.372  10.000  19.688  0.00  0.00    +0.000 A 
ATOM      7  C   UNL     1       0.909   8.734  20.037  0.00  0.00    +0.000 A 
ATOM      8  C   UNL     1       1.925   8.205  19.181  0.00  0.00    +0.000 A 
ATOM      9  N   UNL     1       2.690   7.038  19.056  0.00  0.00    +0.000 N 
ENDROOT
BRANCH   1  13
ATOM     10  C   UNL     1       5.624   4.336  14.527  0.00  0.00    +0.000 C 
ATOM     11  C   UNL     1       5.649   5.049  15.842  0.00  0.00    +0.000 A 
ATOM     12  C   UNL     1       4.681   5.876  16.250  0.00  0.00    +0.000 A 
ATOM     13  C   UNL     1       4.778   6.468  17.603  0.00  0.00    +0.000 A 
ATOM     14  N   UNL     1       5.803   6.303  18.385  0.00  0.00    +0.000 NA
ATOM     15  N   UNL     1       6.830   5.500  17.933  0.00  0.00    +0.000 N 
ATOM     16  C   UNL     1       7.987   5.368  18.794  0.00  0.00    +0.000 C 
ATOM     17  C   UNL     1       6.822   4.808  16.728  0.00  0.00    +0.000 A 
ATOM     18  O   UNL     1       7.728   4.062  16.349  0.00  0.00    +0.000 OA
ENDBRANCH   1  13
BRANCH   6  19
ATOM     19  C   UNL     1      -0.782  10.739  20.350  0.00  0.00    +0.000 C 
ATOM     20  C   UNL     1      -1.441  11.927  19.647  0.00  0.00    +0.000 C 
ATOM     21  C   UNL     1      -2.591  12.463  20.511  0.00  0.00    +0.000 C 
ATOM     22  O   UNL     1      -2.126  12.822  21.812  0.00  0.00    +0.000 OA
ATOM     23  C   UNL     1      -1.629  11.694  22.528  0.00  0.00    +0.000 C 
ATOM     24  C   UNL     1      -0.428  11.098  21.807  0.00  0.00    +0.000 C 
ENDBRANCH   6  19
BRANCH   9  25
ATOM     25  C   UNL     1       2.721   5.748  19.783  0.00  0.00    +0.000 C 
ATOM     26  C   UNL     1       1.736   5.666  20.951  0.00  0.00    +0.000 C 
BRANCH  25  27
ATOM     27  C   UNL     1       2.886   4.418  19.054  0.00  0.00    +0.000 A 
ATOM     28  C   UNL     1       3.872   3.535  19.560  0.00  0.00    +0.000 A 
ATOM     29  C   UNL     1       4.067   2.259  19.033  0.00  0.00    +0.000 A 
ATOM     30  C   UNL     1       3.270   1.828  17.982  0.00  0.00    +0.000 A 
ATOM     31  C   UNL     1       2.305   2.683  17.455  0.00  0.00    +0.000 A 
ATOM     32  C   UNL     1       2.115   3.969  17.978  0.00  0.00    +0.000 A 
ENDBRANCH  25  27
ENDBRANCH   9  25
TORSDOF 4
ENDMDL
MODEL 2
REMARK VINA RESULT:      -9.0      0.686      1.524
REMARK  Name = 
REMARK  7 active torsions:
REMARK  status: ('A' for Active; 'I' for Inactive)
REMARK    1  A    between atoms: C_1  and  C_2
REMARK    2  A    between atoms: C_4  and  C_5
REMARK    3  A    between atoms: C_10  and  C_11
REMARK    4  A    between atoms: N_19  and  C_20
REMARK    5  A    between atoms: C_20  and  C_21
REMARK    6  A    between atoms: C_20  and  C_22
REMARK    7  A    between atoms: N_29  and  C_30
REMARK                            x       y       z     vdW  Elec       q    Type
REMARK                         _______ _______ _______ _____ _____    ______ ____
ROOT
ATOM      1  C   UNL     1       3.543   7.222  18.032  0.00  0.00    +0.000 A 
ATOM      2  N   UNL     1       3.263   8.338  17.402  0.00  0.00    +0.000 NA
ATOM      3  C   UNL     1       2.293   8.946  18.133  0.00  0.00    +0.000 A 
ATOM      4  C   UNL     1       1.736  10.196  17.889  0.00  0.00    +0.000 A 
ATOM      5  N   UNL     1       0.791  10.694  18.700  0.00  0.00    +0.000 NA
ATOM      6  C   UNL     1       0.374   9.993  19.785  0.00  0.00    +0.000 A 
ATOM      7  C   UNL     1       0.906   8.721  20.119  0.00  0.00    +0.000 A 
ATOM      8  C   UNL     1       1.884   8.176  19.231  0.00  0.00    +0.000 A 
ATOM      9  N   UNL     1       2.629   6.997  19.084  0.00  0.00    +0.000 N 
ENDROOT
BRANCH   1  13
ATOM     10  C   UNL     1       8.117   5.424  18.909  0.00  0.00    +0.000 C 
ATOM     11  C   UNL     1       6.880   5.581  18.082  0.00  0.00    +0.000 A 
ATOM     12  C   UNL     1       5.795   6.243  18.497  0.00  0.00    +0.000 A 
ATOM     13  C   UNL     1       4.657   6.395  17.563  0.00  0.00    +0.000 A 
ATOM     14  N   UNL     1       4.615   5.838  16.390  0.00  0.00    +0.000 NA
ATOM     15  N   UNL     1       5.711   5.102  15.990  0.00  0.00    +0.000 N 
ATOM     16  C   UNL     1       5.627   4.446  14.703  0.00  0.00    +0.000 C 
ATOM     17  C   UNL     1       6.881   4.960  16.728  0.00  0.00    +0.000 A 
ATOM     18  O   UNL     1       7.870   4.331  16.347  0.00  0.00    +0.000 OA
ENDBRANCH   1  13
BRANCH   6  19
ATOM     19  C   UNL     1      -0.747  10.750  20.484  0.00  0.00    +0.000 C 
ATOM     20  C   UNL     1      -1.360  11.992  19.835  0.00  0.00    +0.000 C 
ATOM     21  C   UNL     1      -2.484  12.537  20.727  0.00  0.00    +0.000 C 
ATOM     22  O   UNL     1      -2.000  12.822  22.039  0.00  0.00    +0.000 OA
ATOM     23  C   UNL     1      -1.546  11.645  22.705  0.00  0.00    +0.000 C 
ATOM     24  C   UNL     1      -0.373  11.032  21.953  0.00  0.00    +0.000 C 
ENDBRANCH   6  19
BRANCH   9  25
ATOM     25  C   UNL     1       2.667   5.709  19.814  0.00  0.00    +0.000 C 
ATOM     26  C   UNL     1       1.682   5.624  20.982  0.00  0.00    +0.000 C 
BRANCH  25  27
ATOM     27  C   UNL     1       2.840   4.378  19.088  0.00  0.00    +0.000 A 
ATOM     28  C   UNL     1       3.818   3.495  19.607  0.00  0.00    +0.000 A 
ATOM     29  C   UNL     1       4.019   2.219  19.083  0.00  0.00    +0.000 A 
ATOM     30  C   UNL     1       3.235   1.788  18.023  0.00  0.00    +0.000 A 
ATOM     31  C   UNL     1       2.277   2.643  17.482  0.00  0.00    +0.000 A 
ATOM     32  C   UNL     1       2.083   3.930  18.002  0.00  0.00    +0.000 A 
ENDBRANCH  25  27
ENDBRANCH   9  25
TORSDOF 4
ENDMDL
MODEL 3
REMARK VINA RESULT:      -8.6      2.633      9.735
REMARK  Name = 
REMARK  7 active torsions:
REMARK  status: ('A' for Active; 'I' for Inactive)
REMARK    1  A    between atoms: C_1  and  C_2
REMARK    2  A    between atoms: C_4  and  C_5
REMARK    3  A    between atoms: C_10  and  C_11
REMARK    4  A    between atoms: N_19  and  C_20
REMARK    5  A    between atoms: C_20  and  C_21
REMARK    6  A    between atoms: C_20  and  C_22
REMARK    7  A    between atoms: N_29  and  C_30
REMARK                            x       y       z     vdW  Elec       q    Type
REMARK                         _______ _______ _______ _____ _____    ______ ____
ROOT
ATOM      1  C   UNL     1      -0.381  11.035  21.545  0.00  0.00    +0.000 A 
ATOM      2  N   UNL     1       0.150  10.020  22.185  0.00  0.00    +0.000 NA
ATOM      3  C   UNL     1       0.751   9.254  21.237  0.00  0.00    +0.000 A 
ATOM      4  C   UNL     1       1.511   8.112  21.457  0.00  0.00    +0.000 A 
ATOM      5  N   UNL     1       2.067   7.452  20.432  0.00  0.00    +0.000 NA
ATOM      6  C   UNL     1       1.915   7.900  19.159  0.00  0.00    +0.000 A 
ATOM      7  C   UNL     1       1.176   9.070  18.848  0.00  0.00    +0.000 A 
ATOM      8  C   UNL     1       0.551   9.748  19.939  0.00  0.00    +0.000 A 
ATOM      9  N   UNL     1      -0.292  10.849  20.148  0.00  0.00    +0.000 N 
ENDROOT
BRANCH   1  13
ATOM     10  C   UNL     1      -4.207  12.566  24.364  0.00  0.00    +0.000 C 
ATOM     11  C   UNL     1      -2.898  12.767  23.665  0.00  0.00    +0.000 A 
ATOM     12  C   UNL     1      -2.245  11.788  23.030  0.00  0.00    +0.000 A 
ATOM     13  C   UNL     1      -0.994  12.122  22.312  0.00  0.00    +0.000 A 
ATOM     14  N   UNL     1      -0.443  13.298  22.343  0.00  0.00    +0.000 NA
ATOM     15  N   UNL     1      -1.087  14.289  23.053  0.00  0.00    +0.000 N 
ATOM     16  C   UNL     1      -0.434  15.579  23.120  0.00  0.00    +0.000 C 
ATOM     17  C   UNL     1      -2.314  14.136  23.690  0.00  0.00    +0.000 A 
ATOM     18  O   UNL     1      -2.901  15.039  24.291  0.00  0.00    +0.000 OA
ENDBRANCH   1  13
BRANCH   6  19
ATOM     19  C   UNL     1       2.583   6.932  18.192  0.00  0.00    +0.000 C 
ATOM     20  C   UNL     1       2.673   5.443  18.530  0.00  0.00    +0.000 C 
ATOM     21  C   UNL     1       3.357   4.694  17.378  0.00  0.00    +0.000 C 
ATOM     22  O   UNL     1       4.646   5.244  17.107  0.00  0.00    +0.000 OA
ATOM     23  C   UNL     1       4.563   6.596  16.662  0.00  0.00    +0.000 C 
ATOM     24  C   UNL     1       3.957   7.474  17.749  0.00  0.00    +0.000 C 
ENDBRANCH   6  19
BRANCH   9  25
ATOM     25  C   UNL     1      -0.982  11.799  19.246  0.00  0.00    +0.000 C 
ATOM     26  C   UNL     1      -0.069  12.877  18.659  0.00  0.00    +0.000 C 
BRANCH  25  27
ATOM     27  C   UNL     1      -2.062  11.342  18.270  0.00  0.00    +0.000 A 
ATOM     28  C   UNL     1      -3.377  11.812  18.512  0.00  0.00    +0.000 A 
ATOM     29  C   UNL     1      -4.435  11.531  17.650  0.00  0.00    +0.000 A 
ATOM     30  C   UNL     1      -4.203  10.772  16.512  0.00  0.00    +0.000 A 
ATOM     31  C   UNL     1      -2.923  10.283  16.259  0.00  0.00    +0.000 A 
ATOM     32  C   UNL     1      -1.861  10.557  17.131  0.00  0.00    +0.000 A 
ENDBRANCH  25  27
ENDBRANCH   9  25
TORSDOF 4
ENDMDL
MODEL 4
REMARK VINA RESULT:      -8.4      3.404     10.464
REMARK  Name = 
REMARK  7 active torsions:
REMARK  status: ('A' for Active; 'I' for Inactive)
REMARK    1  A    between atoms: C_1  and  C_2
REMARK    2  A    between atoms: C_4  and  C_5
REMARK    3  A    between atoms: C_10  and  C_11
REMARK    4  A    between atoms: N_19  and  C_20
REMARK    5  A    between atoms: C_20  and  C_21
REMARK    6  A    between atoms: C_20  and  C_22
REMARK    7  A    between atoms: N_29  and  C_30
REMARK                            x       y       z     vdW  Elec       q    Type
REMARK                         _______ _______ _______ _____ _____    ______ ____
ROOT
ATOM      1  C   UNL     1      -1.620  11.970  22.495  0.00  0.00    +0.000 A 
ATOM      2  N   UNL     1      -1.121  11.041  23.276  0.00  0.00    +0.000 NA
ATOM      3  C   UNL     1      -0.333  10.270  22.482  0.00  0.00    +0.000 A 
ATOM      4  C   UNL     1       0.463   9.207  22.891  0.00  0.00    +0.000 A 
ATOM      5  N   UNL     1       1.211   8.532  22.006  0.00  0.00    +0.000 NA
ATOM      6  C   UNL     1       1.219   8.888  20.696  0.00  0.00    +0.000 A 
ATOM      7  C   UNL     1       0.455   9.975  20.198  0.00  0.00    +0.000 A 
ATOM      8  C   UNL     1      -0.372  10.666  21.137  0.00  0.00    +0.000 A 
ATOM      9  N   UNL     1      -1.311  11.707  21.143  0.00  0.00    +0.000 N 
ENDROOT
BRANCH   1  13
ATOM     10  C   UNL     1      -6.146  13.682  23.725  0.00  0.00    +0.000 C 
ATOM     11  C   UNL     1      -4.655  13.790  23.638  0.00  0.00    +0.000 A 
ATOM     12  C   UNL     1      -3.870  12.801  23.197  0.00  0.00    +0.000 A 
ATOM     13  C   UNL     1      -2.415  13.049  23.086  0.00  0.00    +0.000 A 
ATOM     14  N   UNL     1      -1.843  14.146  23.484  0.00  0.00    +0.000 NA
ATOM     15  N   UNL     1      -2.650  15.139  23.998  0.00  0.00    +0.000 N 
ATOM     16  C   UNL     1      -1.993  16.334  24.483  0.00  0.00    +0.000 C 
ATOM     17  C   UNL     1      -4.037  15.074  24.068  0.00  0.00    +0.000 A 
ATOM     18  O   UNL     1      -4.754  15.983  24.494  0.00  0.00    +0.000 OA
ENDBRANCH   1  13
BRANCH   6  19
ATOM     19  C   UNL     1       2.089   7.920  19.907  0.00  0.00    +0.000 C 
ATOM     20  C   UNL     1       2.201   8.046  18.387  0.00  0.00    +0.000 C 
ATOM     21  C   UNL     1       3.160   6.975  17.850  0.00  0.00    +0.000 C 
ATOM     22  O   UNL     1       2.731   5.669  18.233  0.00  0.00    +0.000 OA
ATOM     23  C   UNL     1       2.750   5.497  19.648  0.00  0.00    +0.000 C 
ATOM     24  C   UNL     1       1.778   6.465  20.310  0.00  0.00    +0.000 C 
ENDBRANCH   6  19
BRANCH   9  25
ATOM     25  C   UNL     1      -1.924  12.543  20.085  0.00  0.00    +0.000 C 
ATOM     26  C   UNL     1      -1.136  13.813  19.759  0.00  0.00    +0.000 C 
BRANCH  25  27
ATOM     27  C   UNL     1      -2.588  11.928  18.857  0.00  0.00    +0.000 A 
ATOM     28  C   UNL     1      -4.003  11.868  18.863  0.00  0.00    +0.000 A 
ATOM     29  C   UNL     1      -4.732  11.402  17.771  0.00  0.00    +0.000 A 
ATOM     30  C   UNL     1      -4.057  10.986  16.631  0.00  0.00    +0.000 A 
ATOM     31  C   UNL     1      -2.665  11.018  16.605  0.00  0.00    +0.000 A 
ATOM     32  C   UNL     1      -1.932  11.478  17.708  0.00  0.00    +0.000 A 
ENDBRANCH  25  27
ENDBRANCH   9  25
TORSDOF 4
ENDMDL
MODEL 5
REMARK VINA RESULT:      -8.4      2.747      9.687
REMARK  Name = 
REMARK  7 active torsions:
REMARK  status: ('A' for Active; 'I' for Inactive)
REMARK    1  A    between atoms: C_1  and  C_2
REMARK    2  A    between atoms: C_4  and  C_5
REMARK    3  A    between atoms: C_10  and  C_11
REMARK    4  A    between atoms: N_19  and  C_20
REMARK    5  A    between atoms: C_20  and  C_21
REMARK    6  A    between atoms: C_20  and  C_22
REMARK    7  A    between atoms: N_29  and  C_30
REMARK                            x       y       z     vdW  Elec       q    Type
REMARK                         _______ _______ _______ _____ _____    ______ ____
ROOT
ATOM      1  C   UNL     1      -0.399  10.916  21.431  0.00  0.00    +0.000 A 
ATOM      2  N   UNL     1       0.134   9.905  22.076  0.00  0.00    +0.000 NA
ATOM      3  C   UNL     1       0.766   9.154  21.137  0.00  0.00    +0.000 A 
ATOM      4  C   UNL     1       1.537   8.022  21.367  0.00  0.00    +0.000 A 
ATOM      5  N   UNL     1       2.124   7.375  20.349  0.00  0.00    +0.000 NA
ATOM      6  C   UNL     1       1.991   7.828  19.076  0.00  0.00    +0.000 A 
ATOM      7  C   UNL     1       1.241   8.989  18.756  0.00  0.00    +0.000 A 
ATOM      8  C   UNL     1       0.584   9.652  19.838  0.00  0.00    +0.000 A 
ATOM      9  N   UNL     1      -0.279  10.739  20.035  0.00  0.00    +0.000 N 
ENDROOT
BRANCH   1  13
ATOM     10  C   UNL     1      -0.189  15.625  23.074  0.00  0.00    +0.000 C 
ATOM     11  C   UNL     1      -0.842  14.285  22.942  0.00  0.00    +0.000 A 
ATOM     12  C   UNL     1      -0.350  13.298  22.186  0.00  0.00    +0.000 A 
ATOM     13  C   UNL     1      -1.043  11.990  22.191  0.00  0.00    +0.000 A 
ATOM     14  N   UNL     1      -2.161  11.774  22.817  0.00  0.00    +0.000 NA
ATOM     15  N   UNL     1      -2.699  12.815  23.544  0.00  0.00    +0.000 N 
ATOM     16  C   UNL     1      -3.970  12.575  24.194  0.00  0.00    +0.000 C 
ATOM     17  C   UNL     1      -2.102  14.061  23.702  0.00  0.00    +0.000 A 
ATOM     18  O   UNL     1      -2.572  14.974  24.386  0.00  0.00    +0.000 OA
ENDBRANCH   1  13
BRANCH   6  19
ATOM     19  C   UNL     1       2.692   6.875  18.118  0.00  0.00    +0.000 C 
ATOM     20  C   UNL     1       2.821   5.391  18.463  0.00  0.00    +0.000 C 
ATOM     21  C   UNL     1       3.534   4.656  17.319  0.00  0.00    +0.000 C 
ATOM     22  O   UNL     1       4.809   5.240  17.055  0.00  0.00    +0.000 OA
ATOM     23  C   UNL     1       4.693   6.588  16.604  0.00  0.00    +0.000 C 
ATOM     24  C   UNL     1       4.054   7.453  17.683  0.00  0.00    +0.000 C 
ENDBRANCH   6  19
BRANCH   9  25
ATOM     25  C   UNL     1      -0.964  11.684  19.124  0.00  0.00    +0.000 C 
ATOM     26  C   UNL     1      -0.059  12.787  18.573  0.00  0.00    +0.000 C 
BRANCH  25  27
ATOM     27  C   UNL     1      -2.007  11.215  18.114  0.00  0.00    +0.000 A 
ATOM     28  C   UNL     1      -3.305  11.771  18.236  0.00  0.00    +0.000 A 
ATOM     29  C   UNL     1      -4.323  11.484  17.329  0.00  0.00    +0.000 A 
ATOM     30  C   UNL     1      -4.066  10.632  16.264  0.00  0.00    +0.000 A 
ATOM     31  C   UNL     1      -2.804  10.058  16.131  0.00  0.00    +0.000 A 
ATOM     32  C   UNL     1      -1.782  10.339  17.049  0.00  0.00    +0.000 A 
ENDBRANCH  25  27
ENDBRANCH   9  25
TORSDOF 4
ENDMDL
MODEL 6
REMARK VINA RESULT:      -8.4      3.459     10.548
REMARK  Name = 
REMARK  7 active torsions:
REMARK  status: ('A' for Active; 'I' for Inactive)
REMARK    1  A    between atoms: C_1  and  C_2
REMARK    2  A    between atoms: C_4  and  C_5
REMARK    3  A    between atoms: C_10  and  C_11
REMARK    4  A    between atoms: N_19  and  C_20
REMARK    5  A    between atoms: C_20  and  C_21
REMARK    6  A    between atoms: C_20  and  C_22
REMARK    7  A    between atoms: N_29  and  C_30
REMARK                            x       y       z     vdW  Elec       q    Type
REMARK                         _______ _______ _______ _____ _____    ______ ____
ROOT
ATOM      1  C   UNL     1      -1.622  12.035  22.494  0.00  0.00    +0.000 A 
ATOM      2  N   UNL     1      -1.144  11.106  23.288  0.00  0.00    +0.000 NA
ATOM      3  C   UNL     1      -0.365  10.313  22.509  0.00  0.00    +0.000 A 
ATOM      4  C   UNL     1       0.410   9.241  22.936  0.00  0.00    +0.000 A 
ATOM      5  N   UNL     1       1.152   8.543  22.064  0.00  0.00    +0.000 NA
ATOM      6  C   UNL     1       1.176   8.884  20.750  0.00  0.00    +0.000 A 
ATOM      7  C   UNL     1       0.434   9.978  20.235  0.00  0.00    +0.000 A 
ATOM      8  C   UNL     1      -0.387  10.695  21.159  0.00  0.00    +0.000 A 
ATOM      9  N   UNL     1      -1.308  11.751  21.147  0.00  0.00    +0.000 N 
ENDROOT
BRANCH   1  13
ATOM     10  C   UNL     1      -1.607  16.345  25.012  0.00  0.00    +0.000 C 
ATOM     11  C   UNL     1      -2.286  15.218  24.299  0.00  0.00    +0.000 A 
ATOM     12  C   UNL     1      -1.624  14.237  23.675  0.00  0.00    +0.000 A 
ATOM     13  C   UNL     1      -2.402  13.134  23.066  0.00  0.00    +0.000 A 
ATOM     14  N   UNL     1      -3.700  13.114  23.021  0.00  0.00    +0.000 NA
ATOM     15  N   UNL     1      -4.378  14.161  23.610  0.00  0.00    +0.000 N 
ATOM     16  C   UNL     1      -5.822  14.150  23.505  0.00  0.00    +0.000 C 
ATOM     17  C   UNL     1      -3.775  15.208  24.298  0.00  0.00    +0.000 A 
ATOM     18  O   UNL     1      -4.391  16.119  24.854  0.00  0.00    +0.000 OA
ENDBRANCH   1  13
BRANCH   6  19
ATOM     19  C   UNL     1       2.034   7.892  19.978  0.00  0.00    +0.000 C 
ATOM     20  C   UNL     1       2.108   7.960  18.452  0.00  0.00    +0.000 C 
ATOM     21  C   UNL     1       3.064   6.875  17.935  0.00  0.00    +0.000 C 
ATOM     22  O   UNL     1       2.654   5.582  18.378  0.00  0.00    +0.000 OA
ATOM     23  C   UNL     1       2.708   5.465  19.798  0.00  0.00    +0.000 C 
ATOM     24  C   UNL     1       1.745   6.451  20.445  0.00  0.00    +0.000 C 
ENDBRANCH   6  19
BRANCH   9  25
ATOM     25  C   UNL     1      -1.898  12.586  20.075  0.00  0.00    +0.000 C 
ATOM     26  C   UNL     1      -1.080  13.833  19.733  0.00  0.00    +0.000 C 
BRANCH  25  27
ATOM     27  C   UNL     1      -2.573  11.968  18.854  0.00  0.00    +0.000 A 
ATOM     28  C   UNL     1      -3.990  11.941  18.858  0.00  0.00    +0.000 A 
ATOM     29  C   UNL     1      -4.727  11.475  17.770  0.00  0.00    +0.000 A 
ATOM     30  C   UNL     1      -4.059  11.028  16.638  0.00  0.00    +0.000 A 
ATOM     31  C   UNL     1      -2.667  11.028  16.615  0.00  0.00    +0.000 A 
ATOM     32  C   UNL     1      -1.926  11.487  17.713  0.00  0.00    +0.000 A 
ENDBRANCH  25  27
ENDBRANCH   9  25
TORSDOF 4
ENDMDL
MODEL 7
REMARK VINA RESULT:      -8.3      2.544      9.798
REMARK  Name = 
REMARK  7 active torsions:
REMARK  status: ('A' for Active; 'I' for Inactive)
REMARK    1  A    between atoms: C_1  and  C_2
REMARK    2  A    between atoms: C_4  and  C_5
REMARK    3  A    between atoms: C_10  and  C_11
REMARK    4  A    between atoms: N_19  and  C_20
REMARK    5  A    between atoms: C_20  and  C_21
REMARK    6  A    between atoms: C_20  and  C_22
REMARK    7  A    between atoms: N_29  and  C_30
REMARK                            x       y       z     vdW  Elec       q    Type
REMARK                         _______ _______ _______ _____ _____    ______ ____
ROOT
ATOM      1  C   UNL     1       0.174  10.763  21.068  0.00  0.00    +0.000 A 
ATOM      2  N   UNL     1       0.496   9.659  21.699  0.00  0.00    +0.000 NA
ATOM      3  C   UNL     1       1.110   8.869  20.780  0.00  0.00    +0.000 A 
ATOM      4  C   UNL     1       1.692   7.629  21.013  0.00  0.00    +0.000 A 
ATOM      5  N   UNL     1       2.284   6.953  20.018  0.00  0.00    +0.000 NA
ATOM      6  C   UNL     1       2.342   7.477  18.766  0.00  0.00    +0.000 A 
ATOM      7  C   UNL     1       1.795   8.746  18.448  0.00  0.00    +0.000 A 
ATOM      8  C   UNL     1       1.130   9.446  19.501  0.00  0.00    +0.000 A 
ATOM      9  N   UNL     1       0.409  10.634  19.681  0.00  0.00    +0.000 N 
ENDROOT
BRANCH   1  13
ATOM     10  C   UNL     1      -3.598  12.498  23.840  0.00  0.00    +0.000 C 
ATOM     11  C   UNL     1      -2.272  12.628  23.157  0.00  0.00    +0.000 A 
ATOM     12  C   UNL     1      -1.664  11.616  22.531  0.00  0.00    +0.000 A 
ATOM     13  C   UNL     1      -0.389  11.882  21.827  0.00  0.00    +0.000 A 
ATOM     14  N   UNL     1       0.223  13.027  21.863  0.00  0.00    +0.000 NA
ATOM     15  N   UNL     1      -0.377  14.052  22.565  0.00  0.00    +0.000 N 
ATOM     16  C   UNL     1       0.342  15.306  22.638  0.00  0.00    +0.000 C 
ATOM     17  C   UNL     1      -1.617  13.965  23.188  0.00  0.00    +0.000 A 
ATOM     18  O   UNL     1      -2.163  14.898  23.781  0.00  0.00    +0.000 OA
ENDBRANCH   1  13
BRANCH   6  19
ATOM     19  C   UNL     1       2.999   6.479  17.823  0.00  0.00    +0.000 C 
ATOM     20  C   UNL     1       3.078   4.999  18.200  0.00  0.00    +0.000 C 
ATOM     21  C   UNL     1       3.753   4.214  17.066  0.00  0.00    +0.000 C 
ATOM     22  O   UNL     1       5.045   4.746  16.776  0.00  0.00    +0.000 OA
ATOM     23  C   UNL     1       4.971   6.087  16.296  0.00  0.00    +0.000 C 
ATOM     24  C   UNL     1       4.375   6.998  17.362  0.00  0.00    +0.000 C 
ENDBRANCH   6  19
BRANCH   9  25
ATOM     25  C   UNL     1      -0.046  11.708  18.768  0.00  0.00    +0.000 C 
ATOM     26  C   UNL     1      -1.565  11.874  18.707  0.00  0.00    +0.000 C 
BRANCH  25  27
ATOM     27  C   UNL     1       0.699  13.034  18.652  0.00  0.00    +0.000 A 
ATOM     28  C   UNL     1      -0.081  14.213  18.763  0.00  0.00    +0.000 A 
ATOM     29  C   UNL     1       0.490  15.484  18.753  0.00  0.00    +0.000 A 
ATOM     30  C   UNL     1       1.867  15.611  18.637  0.00  0.00    +0.000 A 
ATOM     31  C   UNL     1       2.655  14.470  18.509  0.00  0.00    +0.000 A 
ATOM     32  C   UNL     1       2.080  13.191  18.509  0.00  0.00    +0.000 A 
ENDBRANCH  25  27
ENDBRANCH   9  25
TORSDOF 4
ENDMDL
MODEL 8
REMARK VINA RESULT:      -8.2      3.225     10.262
REMARK  Name = 
REMARK  7 active torsions:
REMARK  status: ('A' for Active; 'I' for Inactive)
REMARK    1  A    between atoms: C_1  and  C_2
REMARK    2  A    between atoms: C_4  and  C_5
REMARK    3  A    between atoms: C_10  and  C_11
REMARK    4  A    between atoms: N_19  and  C_20
REMARK    5  A    between atoms: C_20  and  C_21
REMARK    6  A    between atoms: C_20  and  C_22
REMARK    7  A    between atoms: N_29  and  C_30
REMARK                            x       y       z     vdW  Elec       q    Type
REMARK                         _______ _______ _______ _____ _____    ______ ____
ROOT
ATOM      1  C   UNL     1      -1.491  11.670  22.106  0.00  0.00    +0.000 A 
ATOM      2  N   UNL     1      -1.040  10.729  22.901  0.00  0.00    +0.000 NA
ATOM      3  C   UNL     1      -0.228   9.952  22.139  0.00  0.00    +0.000 A 
ATOM      4  C   UNL     1       0.534   8.876  22.575  0.00  0.00    +0.000 A 
ATOM      5  N   UNL     1       1.313   8.197  21.721  0.00  0.00    +0.000 NA
ATOM      6  C   UNL     1       1.386   8.562  20.415  0.00  0.00    +0.000 A 
ATOM      7  C   UNL     1       0.660   9.662  19.891  0.00  0.00    +0.000 A 
ATOM      8  C   UNL     1      -0.199  10.359  20.796  0.00  0.00    +0.000 A 
ATOM      9  N   UNL     1      -1.124  11.412  20.767  0.00  0.00    +0.000 N 
ENDROOT
BRANCH   1  13
ATOM     10  C   UNL     1      -1.683  15.659  25.102  0.00  0.00    +0.000 C 
ATOM     11  C   UNL     1      -2.285  14.674  24.149  0.00  0.00    +0.000 A 
ATOM     12  C   UNL     1      -1.580  13.720  23.532  0.00  0.00    +0.000 A 
ATOM     13  C   UNL     1      -2.297  12.756  22.667  0.00  0.00    +0.000 A 
ATOM     14  N   UNL     1      -3.565  12.842  22.397  0.00  0.00    +0.000 NA
ATOM     15  N   UNL     1      -4.277  13.867  22.986  0.00  0.00    +0.000 N 
ATOM     16  C   UNL     1      -5.677  13.980  22.635  0.00  0.00    +0.000 C 
ATOM     17  C   UNL     1      -3.748  14.780  23.891  0.00  0.00    +0.000 A 
ATOM     18  O   UNL     1      -4.401  15.669  24.441  0.00  0.00    +0.000 OA
ENDBRANCH   1  13
BRANCH   6  19
ATOM     19  C   UNL     1       2.278   7.586  19.659  0.00  0.00    +0.000 C 
ATOM     20  C   UNL     1       2.497   7.749  18.155  0.00  0.00    +0.000 C 
ATOM     21  C   UNL     1       3.458   6.661  17.654  0.00  0.00    +0.000 C 
ATOM     22  O   UNL     1       2.964   5.360  17.970  0.00  0.00    +0.000 OA
ATOM     23  C   UNL     1       2.881   5.151  19.378  0.00  0.00    +0.000 C 
ATOM     24  C   UNL     1       1.896   6.132  20.000  0.00  0.00    +0.000 C 
ENDBRANCH   6  19
BRANCH   9  25
ATOM     25  C   UNL     1      -1.675  12.264  19.688  0.00  0.00    +0.000 C 
ATOM     26  C   UNL     1      -0.725  13.365  19.215  0.00  0.00    +0.000 C 
BRANCH  25  27
ATOM     27  C   UNL     1      -2.518  11.683  18.557  0.00  0.00    +0.000 A 
ATOM     28  C   UNL     1      -1.820  10.995  17.533  0.00  0.00    +0.000 A 
ATOM     29  C   UNL     1      -2.480  10.353  16.487  0.00  0.00    +0.000 A 
ATOM     30  C   UNL     1      -3.867  10.378  16.440  0.00  0.00    +0.000 A 
ATOM     31  C   UNL     1      -4.577  11.062  17.424  0.00  0.00    +0.000 A 
ATOM     32  C   UNL     1      -3.913  11.716  18.471  0.00  0.00    +0.000 A 
ENDBRANCH  25  27
ENDBRANCH   9  25
TORSDOF 4
ENDMDL
MODEL 9
REMARK VINA RESULT:      -8.1      3.218     10.083
REMARK  Name = 
REMARK  7 active torsions:
REMARK  status: ('A' for Active; 'I' for Inactive)
REMARK    1  A    between atoms: C_1  and  C_2
REMARK    2  A    between atoms: C_4  and  C_5
REMARK    3  A    between atoms: C_10  and  C_11
REMARK    4  A    between atoms: N_19  and  C_20
REMARK    5  A    between atoms: C_20  and  C_21
REMARK    6  A    between atoms: C_20  and  C_22
REMARK    7  A    between atoms: N_29  and  C_30
REMARK                            x       y       z     vdW  Elec       q    Type
REMARK                         _______ _______ _______ _____ _____    ______ ____
ROOT
ATOM      1  C   UNL     1      -1.062  12.084  21.958  0.00  0.00    +0.000 A 
ATOM      2  N   UNL     1      -0.619  11.232  22.851  0.00  0.00    +0.000 NA
ATOM      3  C   UNL     1       0.073  10.290  22.159  0.00  0.00    +0.000 A 
ATOM      4  C   UNL     1       0.787   9.227  22.698  0.00  0.00    +0.000 A 
ATOM      5  N   UNL     1       1.444   8.371  21.903  0.00  0.00    +0.000 NA
ATOM      6  C   UNL     1       1.440   8.539  20.555  0.00  0.00    +0.000 A 
ATOM      7  C   UNL     1       0.756   9.610  19.924  0.00  0.00    +0.000 A 
ATOM      8  C   UNL     1       0.024  10.497  20.772  0.00  0.00    +0.000 A 
ATOM      9  N   UNL     1      -0.821  11.609  20.650  0.00  0.00    +0.000 N 
ENDROOT
BRANCH   1  13
ATOM     10  C   UNL     1      -5.287  14.208  23.557  0.00  0.00    +0.000 C 
ATOM     11  C   UNL     1      -3.842  14.236  23.169  0.00  0.00    +0.000 A 
ATOM     12  C   UNL     1      -3.145  13.143  22.844  0.00  0.00    +0.000 A 
ATOM     13  C   UNL     1      -1.740  13.302  22.405  0.00  0.00    +0.000 A 
ATOM     14  N   UNL     1      -1.114  14.441  22.410  0.00  0.00    +0.000 NA
ATOM     15  N   UNL     1      -1.818  15.558  22.808  0.00  0.00    +0.000 N 
ATOM     16  C   UNL     1      -1.092  16.809  22.856  0.00  0.00    +0.000 C 
ATOM     17  C   UNL     1      -3.166  15.563  23.150  0.00  0.00    +0.000 A 
ATOM     18  O   UNL     1      -3.797  16.573  23.468  0.00  0.00    +0.000 OA
ENDBRANCH   1  13
BRANCH   6  19
ATOM     19  C   UNL     1       2.196   7.395  19.894  0.00  0.00    +0.000 C 
ATOM     20  C   UNL     1       2.328   7.336  18.371  0.00  0.00    +0.000 C 
ATOM     21  C   UNL     1       3.161   6.109  17.973  0.00  0.00    +0.000 C 
ATOM     22  O   UNL     1       2.583   4.911  18.492  0.00  0.00    +0.000 OA
ATOM     23  C   UNL     1       2.576   4.899  19.918  0.00  0.00    +0.000 C 
ATOM     24  C   UNL     1       1.719   6.039  20.452  0.00  0.00    +0.000 C 
ENDBRANCH   6  19
BRANCH   9  25
ATOM     25  C   UNL     1      -1.393  12.341  19.497  0.00  0.00    +0.000 C 
ATOM     26  C   UNL     1      -0.435  13.350  18.860  0.00  0.00    +0.000 C 
BRANCH  25  27
ATOM     27  C   UNL     1      -2.294  11.654  18.475  0.00  0.00    +0.000 A 
ATOM     28  C   UNL     1      -1.648  10.894  17.469  0.00  0.00    +0.000 A 
ATOM     29  C   UNL     1      -2.360  10.156  16.524  0.00  0.00    +0.000 A 
ATOM     30  C   UNL     1      -3.746  10.154  16.566  0.00  0.00    +0.000 A 
ATOM     31  C   UNL     1      -4.407  10.908  17.534  0.00  0.00    +0.000 A 
ATOM     32  C   UNL     1      -3.692  11.658  18.478  0.00  0.00    +0.000 A 
ENDBRANCH  25  27
ENDBRANCH   9  25
TORSDOF 4
ENDMDL
