MODEL 1
REMARK VINA RESULT:      -7.8      0.000      0.000
REMARK  Name = 
REMARK  9 active torsions:
REMARK  status: ('A' for Active; 'I' for Inactive)
REMARK    1  A    between atoms: C_1  and  O_2
REMARK    2  A    between atoms: O_2  and  C_3
REMARK    3  A    between atoms: C_5  and  C_6
REMARK    4  A    between atoms: C_12  and  C_13
REMARK    5  A    between atoms: C_17  and  N_18
REMARK    6  A    between atoms: C_25  and  O_26
REMARK    7  A    between atoms: O_26  and  C_27
REMARK    8  A    between atoms: C_27  and  C_28
REMARK    9  A    between atoms: C_28  and  O_30
REMARK                            x       y       z     vdW  Elec       q    Type
REMARK                         _______ _______ _______ _____ _____    ______ ____
ROOT
ATOM      1  C   UNL     1       1.195   9.478  18.903  0.00  0.00    +0.000 C 
ATOM      2  N   UNL     1       1.564  10.655  18.493  0.00  0.00    +0.000 NA
ATOM      3  N   UNL     1       0.440  11.457  18.549  0.00  0.00    +0.000 N 
ATOM      4  C   UNL     1       0.490  12.816  18.309  0.00  0.00    +0.000 C 
ATOM      5  N   UNL     1       1.718  13.266  17.943  0.00  0.00    +0.000 N 
ATOM      6  O   UNL     1      -0.459  13.586  18.408  0.00  0.00    +0.000 OA
ATOM      7  C   UNL     1      -0.730  10.789  19.104  0.00  0.00    +0.000 C 
ATOM      8  C   UNL     1      -0.258   9.353  19.294  0.00  0.00    +0.000 C 
ATOM      9  H   UNL     1       2.424  12.569  17.756  0.00  0.00    +0.000 HD
ATOM     10  H   UNL     1       1.813  14.218  17.627  0.00  0.00    +0.000 HD
ENDROOT
BRANCH   1  13
ATOM     11  C   UNL     1       2.608   6.092  19.819  0.00  0.00    +0.000 A 
ATOM     12  C   UNL     1       1.994   7.353  19.934  0.00  0.00    +0.000 A 
ATOM     13  C   UNL     1       2.090   8.296  18.912  0.00  0.00    +0.000 A 
ATOM     14  C   UNL     1       2.938   8.046  17.836  0.00  0.00    +0.000 A 
ATOM     15  C   UNL     1       3.652   6.843  17.777  0.00  0.00    +0.000 A 
ATOM     16  C   UNL     1       3.502   5.852  18.761  0.00  0.00    +0.000 A 
BRANCH  11  18
ATOM     17  C   UNL     1       1.131   4.316  20.363  0.00  0.00    +0.000 C 
ATOM     18  O   UNL     1       2.290   5.097  20.709  0.00  0.00    +0.000 OA
ENDBRANCH  11  18
BRANCH  16  19
ATOM     19  O   UNL     1       4.243   4.724  18.488  0.00  0.00    +0.000 OA
BRANCH  19  20
ATOM     20  C   UNL     1       3.844   3.931  17.372  0.00  0.00    +0.000 C 
BRANCH  20  21
ATOM     21  C   UNL     1       3.236   2.583  17.805  0.00  0.00    +0.000 C 
ATOM     22  O   UNL     1       2.111   2.228  17.508  0.00  0.00    +0.000 OA
BRANCH  21  23
ATOM     23  O   UNL     1       4.060   1.819  18.551  0.00  0.00    +0.000 OA
ATOM     24  H   UNL     1       4.785   1.439  18.010  0.00  0.00    +0.000 HD
ENDBRANCH  21  23
ENDBRANCH  20  21
ENDBRANCH  19  20
ENDBRANCH  16  19
ENDBRANCH   1  13
BRANCH   7  25
ATOM     25  C   UNL     1      -1.970  10.884  18.235  0.00  0.00    +0.000 A 
ATOM     26  C   UNL     1      -1.983  10.265  16.973  0.00  0.00    +0.000 A 
ATOM     27  C   UNL     1      -3.108  10.337  16.148  0.00  0.00    +0.000 A 
ATOM     28  C   UNL     1      -4.240  11.033  16.566  0.00  0.00    +0.000 A 
ATOM     29  C   UNL     1      -4.245  11.643  17.827  0.00  0.00    +0.000 A 
ATOM     30  C   UNL     1      -3.122  11.566  18.664  0.00  0.00    +0.000 A 
BRANCH  29  31
ATOM     31  N   UNL     1      -5.431  12.383  18.273  0.00  0.00    +0.000 N 
ATOM     32  O   UNL     1      -6.110  12.962  17.412  0.00  0.00    +0.000 OA
ATOM     33  O   UNL     1      -5.674  12.405  19.489  0.00  0.00    +0.000 OA
ENDBRANCH  29  31
ENDBRANCH   7  25
TORSDOF 8
ENDMDL
MODEL 2
REMARK VINA RESULT:      -7.7      3.356      5.070
REMARK  Name = 
REMARK  9 active torsions:
REMARK  status: ('A' for Active; 'I' for Inactive)
REMARK    1  A    between atoms: C_1  and  O_2
REMARK    2  A    between atoms: O_2  and  C_3
REMARK    3  A    between atoms: C_5  and  C_6
REMARK    4  A    between atoms: C_12  and  C_13
REMARK    5  A    between atoms: C_17  and  N_18
REMARK    6  A    between atoms: C_25  and  O_26
REMARK    7  A    between atoms: O_26  and  C_27
REMARK    8  A    between atoms: C_27  and  C_28
REMARK    9  A    between atoms: C_28  and  O_30
REMARK                            x       y       z     vdW  Elec       q    Type
REMARK                         _______ _______ _______ _____ _____    ______ ____
ROOT
ATOM      1  C   UNL     1       1.895   8.237  18.735  0.00  0.00    +0.000 C 
ATOM      2  N   UNL     1       1.706   8.355  20.015  0.00  0.00    +0.000 NA
ATOM      3  N   UNL     1       0.874   9.445  20.187  0.00  0.00    +0.000 N 
ATOM      4  C   UNL     1       0.353   9.789  21.419  0.00  0.00    +0.000 C 
ATOM      5  N   UNL     1       0.793   9.008  22.441  0.00  0.00    +0.000 N 
ATOM      6  O   UNL     1      -0.439  10.703  21.621  0.00  0.00    +0.000 OA
ATOM      7  C   UNL     1       0.422  10.041  18.937  0.00  0.00    +0.000 C 
ATOM      8  C   UNL     1       1.190   9.261  17.878  0.00  0.00    +0.000 C 
ATOM      9  H   UNL     1       1.537   8.359  22.233  0.00  0.00    +0.000 HD
ATOM     10  H   UNL     1       0.562   9.269  23.386  0.00  0.00    +0.000 HD
ENDROOT
BRANCH   1  13
ATOM     11  C   UNL     1       4.951   6.750  17.077  0.00  0.00    +0.000 A 
ATOM     12  C   UNL     1       3.922   7.651  17.405  0.00  0.00    +0.000 A 
ATOM     13  C   UNL     1       2.805   7.235  18.130  0.00  0.00    +0.000 A 
ATOM     14  C   UNL     1       2.633   5.879  18.390  0.00  0.00    +0.000 A 
ATOM     15  C   UNL     1       3.593   4.958  17.953  0.00  0.00    +0.000 A 
ATOM     16  C   UNL     1       4.760   5.374  17.293  0.00  0.00    +0.000 A 
BRANCH  11  18
ATOM     17  C   UNL     1       7.175   7.402  17.586  0.00  0.00    +0.000 C 
ATOM     18  O   UNL     1       6.145   7.227  16.596  0.00  0.00    +0.000 OA
ENDBRANCH  11  18
BRANCH  16  19
ATOM     19  O   UNL     1       5.602   4.324  17.002  0.00  0.00    +0.000 OA
BRANCH  19  20
ATOM     20  C   UNL     1       5.485   3.728  15.711  0.00  0.00    +0.000 C 
BRANCH  20  21
ATOM     21  C   UNL     1       6.556   4.245  14.733  0.00  0.00    +0.000 C 
ATOM     22  O   UNL     1       6.467   4.142  13.524  0.00  0.00    +0.000 OA
BRANCH  21  23
ATOM     23  O   UNL     1       7.617   4.827  15.330  0.00  0.00    +0.000 OA
ATOM     24  H   UNL     1       7.672   4.585  16.278  0.00  0.00    +0.000 HD
ENDBRANCH  21  23
ENDBRANCH  20  21
ENDBRANCH  19  20
ENDBRANCH  16  19
ENDBRANCH   1  13
BRANCH   7  25
ATOM     25  C   UNL     1       0.655  11.538  18.843  0.00  0.00    +0.000 A 
ATOM     26  C   UNL     1      -0.426  12.392  18.562  0.00  0.00    +0.000 A 
ATOM     27  C   UNL     1      -0.244  13.774  18.464  0.00  0.00    +0.000 A 
ATOM     28  C   UNL     1       1.021  14.328  18.643  0.00  0.00    +0.000 A 
ATOM     29  C   UNL     1       2.104  13.489  18.937  0.00  0.00    +0.000 A 
ATOM     30  C   UNL     1       1.926  12.102  19.045  0.00  0.00    +0.000 A 
BRANCH  29  31
ATOM     31  N   UNL     1       3.441  14.064  19.121  0.00  0.00    +0.000 N 
ATOM     32  O   UNL     1       4.132  14.258  18.110  0.00  0.00    +0.000 OA
ATOM     33  O   UNL     1       3.813  14.303  20.280  0.00  0.00    +0.000 OA
ENDBRANCH  29  31
ENDBRANCH   7  25
TORSDOF 8
ENDMDL
MODEL 3
REMARK VINA RESULT:      -7.7      3.047      4.802
REMARK  Name = 
REMARK  9 active torsions:
REMARK  status: ('A' for Active; 'I' for Inactive)
REMARK    1  A    between atoms: C_1  and  O_2
REMARK    2  A    between atoms: O_2  and  C_3
REMARK    3  A    between atoms: C_5  and  C_6
REMARK    4  A    between atoms: C_12  and  C_13
REMARK    5  A    between atoms: C_17  and  N_18
REMARK    6  A    between atoms: C_25  and  O_26
REMARK    7  A    between atoms: O_26  and  C_27
REMARK    8  A    between atoms: C_27  and  C_28
REMARK    9  A    between atoms: C_28  and  O_30
REMARK                            x       y       z     vdW  Elec       q    Type
REMARK                         _______ _______ _______ _____ _____    ______ ____
ROOT
ATOM      1  C   UNL     1       1.747   8.369  19.041  0.00  0.00    +0.000 C 
ATOM      2  N   UNL     1       1.414   8.523  20.287  0.00  0.00    +0.000 NA
ATOM      3  N   UNL     1       0.596   9.635  20.338  0.00  0.00    +0.000 N 
ATOM      4  C   UNL     1      -0.056  10.021  21.493  0.00  0.00    +0.000 C 
ATOM      5  N   UNL     1       0.243   9.256  22.576  0.00  0.00    +0.000 N 
ATOM      6  O   UNL     1      -0.843  10.957  21.581  0.00  0.00    +0.000 OA
ATOM      7  C   UNL     1       0.307  10.210  19.031  0.00  0.00    +0.000 C 
ATOM      8  C   UNL     1       1.172   9.387  18.086  0.00  0.00    +0.000 C 
ATOM      9  H   UNL     1       0.990   8.585  22.470  0.00  0.00    +0.000 HD
ATOM     10  H   UNL     1      -0.089   9.545  23.481  0.00  0.00    +0.000 HD
ENDROOT
BRANCH   1  13
ATOM     11  C   UNL     1       3.277   4.968  18.408  0.00  0.00    +0.000 A 
ATOM     12  C   UNL     1       2.599   6.025  19.044  0.00  0.00    +0.000 A 
ATOM     13  C   UNL     1       2.696   7.332  18.569  0.00  0.00    +0.000 A 
ATOM     14  C   UNL     1       3.602   7.618  17.552  0.00  0.00    +0.000 A 
ATOM     15  C   UNL     1       4.376   6.590  16.998  0.00  0.00    +0.000 A 
ATOM     16  C   UNL     1       4.228   5.257  17.414  0.00  0.00    +0.000 A 
BRANCH  11  18
ATOM     17  C   UNL     1       2.825   3.407  20.135  0.00  0.00    +0.000 C 
ATOM     18  O   UNL     1       2.967   3.670  18.728  0.00  0.00    +0.000 OA
ENDBRANCH  11  18
BRANCH  16  19
ATOM     19  O   UNL     1       5.034   4.393  16.706  0.00  0.00    +0.000 OA
BRANCH  19  20
ATOM     20  C   UNL     1       5.598   4.873  15.487  0.00  0.00    +0.000 C 
BRANCH  20  21
ATOM     21  C   UNL     1       7.137   4.865  15.515  0.00  0.00    +0.000 C 
ATOM     22  O   UNL     1       7.789   4.446  16.454  0.00  0.00    +0.000 OA
BRANCH  21  23
ATOM     23  O   UNL     1       7.714   5.368  14.404  0.00  0.00    +0.000 OA
ATOM     24  H   UNL     1       8.328   6.101  14.620  0.00  0.00    +0.000 HD
ENDBRANCH  21  23
ENDBRANCH  20  21
ENDBRANCH  19  20
ENDBRANCH  16  19
ENDBRANCH   1  13
BRANCH   7  25
ATOM     25  C   UNL     1       0.586  11.698  18.931  0.00  0.00    +0.000 A 
ATOM     26  C   UNL     1      -0.470  12.586  18.662  0.00  0.00    +0.000 A 
ATOM     27  C   UNL     1      -0.246  13.961  18.560  0.00  0.00    +0.000 A 
ATOM     28  C   UNL     1       1.040  14.474  18.722  0.00  0.00    +0.000 A 
ATOM     29  C   UNL     1       2.098  13.602  19.005  0.00  0.00    +0.000 A 
ATOM     30  C   UNL     1       1.877  12.221  19.118  0.00  0.00    +0.000 A 
BRANCH  29  31
ATOM     31  N   UNL     1       3.455  14.134  19.172  0.00  0.00    +0.000 N 
ATOM     32  O   UNL     1       3.793  14.517  20.301  0.00  0.00    +0.000 OA
ATOM     33  O   UNL     1       4.180  14.190  18.167  0.00  0.00    +0.000 OA
ENDBRANCH  29  31
ENDBRANCH   7  25
TORSDOF 8
ENDMDL
MODEL 4
REMARK VINA RESULT:      -7.7      3.309      4.809
REMARK  Name = 
REMARK  9 active torsions:
REMARK  status: ('A' for Active; 'I' for Inactive)
REMARK    1  A    between atoms: C_1  and  O_2
REMARK    2  A    between atoms: O_2  and  C_3
REMARK    3  A    between atoms: C_5  and  C_6
REMARK    4  A    between atoms: C_12  and  C_13
REMARK    5  A    between atoms: C_17  and  N_18
REMARK    6  A    between atoms: C_25  and  O_26
REMARK    7  A    between atoms: O_26  and  C_27
REMARK    8  A    between atoms: C_27  and  C_28
REMARK    9  A    between atoms: C_28  and  O_30
REMARK                            x       y       z     vdW  Elec       q    Type
REMARK                         _______ _______ _______ _____ _____    ______ ____
ROOT
ATOM      1  C   UNL     1       1.286   8.668  19.930  0.00  0.00    +0.000 C 
ATOM      2  N   UNL     1       0.949   8.730  21.183  0.00  0.00    +0.000 NA
ATOM      3  N   UNL     1       0.182   9.870  21.325  0.00  0.00    +0.000 N 
ATOM      4  C   UNL     1      -0.462  10.185  22.506  0.00  0.00    +0.000 C 
ATOM      5  N   UNL     1      -0.209   9.317  23.520  0.00  0.00    +0.000 N 
ATOM      6  O   UNL     1      -1.206  11.146  22.670  0.00  0.00    +0.000 OA
ATOM      7  C   UNL     1      -0.068  10.568  20.072  0.00  0.00    +0.000 C 
ATOM      8  C   UNL     1       0.767   9.790  19.063  0.00  0.00    +0.000 C 
ATOM      9  H   UNL     1       0.507   8.624  23.361  0.00  0.00    +0.000 HD
ATOM     10  H   UNL     1      -0.535   9.542  24.446  0.00  0.00    +0.000 HD
ENDROOT
BRANCH   1  13
ATOM     11  C   UNL     1       2.865   5.290  19.299  0.00  0.00    +0.000 A 
ATOM     12  C   UNL     1       2.255   6.370  19.963  0.00  0.00    +0.000 A 
ATOM     13  C   UNL     1       2.190   7.633  19.375  0.00  0.00    +0.000 A 
ATOM     14  C   UNL     1       2.880   7.863  18.188  0.00  0.00    +0.000 A 
ATOM     15  C   UNL     1       3.597   6.822  17.585  0.00  0.00    +0.000 A 
ATOM     16  C   UNL     1       3.603   5.527  18.127  0.00  0.00    +0.000 A 
BRANCH  11  18
ATOM     17  C   UNL     1       1.502   3.348  19.315  0.00  0.00    +0.000 C 
ATOM     18  O   UNL     1       2.692   4.014  19.775  0.00  0.00    +0.000 OA
ENDBRANCH  11  18
BRANCH  16  19
ATOM     19  O   UNL     1       4.315   4.637  17.353  0.00  0.00    +0.000 OA
BRANCH  19  20
ATOM     20  C   UNL     1       5.436   5.145  16.634  0.00  0.00    +0.000 C 
BRANCH  20  21
ATOM     21  C   UNL     1       6.768   4.572  17.152  0.00  0.00    +0.000 C 
ATOM     22  O   UNL     1       7.791   4.546  16.493  0.00  0.00    +0.000 OA
BRANCH  21  23
ATOM     23  O   UNL     1       6.711   4.090  18.412  0.00  0.00    +0.000 OA
ATOM     24  H   UNL     1       5.786   4.044  18.736  0.00  0.00    +0.000 HD
ENDBRANCH  21  23
ENDBRANCH  20  21
ENDBRANCH  19  20
ENDBRANCH  16  19
ENDBRANCH   1  13
BRANCH   7  25
ATOM     25  C   UNL     1       0.280  12.045  20.102  0.00  0.00    +0.000 A 
ATOM     26  C   UNL     1      -0.625  12.983  19.576  0.00  0.00    +0.000 A 
ATOM     27  C   UNL     1      -0.333  14.349  19.586  0.00  0.00    +0.000 A 
ATOM     28  C   UNL     1       0.871  14.803  20.119  0.00  0.00    +0.000 A 
ATOM     29  C   UNL     1       1.776  13.880  20.659  0.00  0.00    +0.000 A 
ATOM     30  C   UNL     1       1.483  12.508  20.660  0.00  0.00    +0.000 A 
BRANCH  29  31
ATOM     31  N   UNL     1       3.049  14.350  21.217  0.00  0.00    +0.000 N 
ATOM     32  O   UNL     1       3.108  14.550  22.439  0.00  0.00    +0.000 OA
ATOM     33  O   UNL     1       3.989  14.541  20.429  0.00  0.00    +0.000 OA
ENDBRANCH  29  31
ENDBRANCH   7  25
TORSDOF 8
ENDMDL
MODEL 5
REMARK VINA RESULT:      -7.7      1.526      2.038
REMARK  Name = 
REMARK  9 active torsions:
REMARK  status: ('A' for Active; 'I' for Inactive)
REMARK    1  A    between atoms: C_1  and  O_2
REMARK    2  A    between atoms: O_2  and  C_3
REMARK    3  A    between atoms: C_5  and  C_6
REMARK    4  A    between atoms: C_12  and  C_13
REMARK    5  A    between atoms: C_17  and  N_18
REMARK    6  A    between atoms: C_25  and  O_26
REMARK    7  A    between atoms: O_26  and  C_27
REMARK    8  A    between atoms: C_27  and  C_28
REMARK    9  A    between atoms: C_28  and  O_30
REMARK                            x       y       z     vdW  Elec       q    Type
REMARK                         _______ _______ _______ _____ _____    ______ ____
ROOT
ATOM      1  C   UNL     1       1.655   9.362  19.163  0.00  0.00    +0.000 C 
ATOM      2  N   UNL     1       2.042  10.384  18.461  0.00  0.00    +0.000 NA
ATOM      3  N   UNL     1       1.183  11.420  18.774  0.00  0.00    +0.000 N 
ATOM      4  C   UNL     1       1.377  12.707  18.310  0.00  0.00    +0.000 C 
ATOM      5  N   UNL     1       2.435  12.834  17.467  0.00  0.00    +0.000 N 
ATOM      6  O   UNL     1       0.687  13.676  18.606  0.00  0.00    +0.000 OA
ATOM      7  C   UNL     1       0.211  11.084  19.806  0.00  0.00    +0.000 C 
ATOM      8  C   UNL     1       0.460   9.602  20.054  0.00  0.00    +0.000 C 
ATOM      9  H   UNL     1       2.883  11.983  17.163  0.00  0.00    +0.000 HD
ATOM     10  H   UNL     1       2.570  13.708  16.985  0.00  0.00    +0.000 HD
ENDROOT
BRANCH   1  13
ATOM     11  C   UNL     1       2.406   5.727  19.889  0.00  0.00    +0.000 A 
ATOM     12  C   UNL     1       2.103   7.087  20.083  0.00  0.00    +0.000 A 
ATOM     13  C   UNL     1       2.264   8.015  19.054  0.00  0.00    +0.000 A 
ATOM     14  C   UNL     1       2.885   7.616  17.873  0.00  0.00    +0.000 A 
ATOM     15  C   UNL     1       3.306   6.289  17.721  0.00  0.00    +0.000 A 
ATOM     16  C   UNL     1       3.077   5.328  18.720  0.00  0.00    +0.000 A 
BRANCH  11  18
ATOM     17  C   UNL     1       0.917   3.953  20.400  0.00  0.00    +0.000 C 
ATOM     18  O   UNL     1       2.002   4.801  20.818  0.00  0.00    +0.000 OA
ENDBRANCH  11  18
BRANCH  16  19
ATOM     19  O   UNL     1       3.511   4.074  18.352  0.00  0.00    +0.000 OA
BRANCH  19  20
ATOM     20  C   UNL     1       4.718   3.598  18.946  0.00  0.00    +0.000 C 
BRANCH  20  21
ATOM     21  C   UNL     1       4.518   2.254  19.669  0.00  0.00    +0.000 C 
ATOM     22  O   UNL     1       4.665   2.108  20.869  0.00  0.00    +0.000 OA
BRANCH  21  23
ATOM     23  O   UNL     1       4.167   1.235  18.858  0.00  0.00    +0.000 OA
ATOM     24  H   UNL     1       3.248   1.338  18.530  0.00  0.00    +0.000 HD
ENDBRANCH  21  23
ENDBRANCH  20  21
ENDBRANCH  19  20
ENDBRANCH  16  19
ENDBRANCH   1  13
BRANCH   7  25
ATOM     25  C   UNL     1      -1.228  11.378  19.424  0.00  0.00    +0.000 A 
ATOM     26  C   UNL     1      -2.016  12.189  20.259  0.00  0.00    +0.000 A 
ATOM     27  C   UNL     1      -3.345  12.476  19.937  0.00  0.00    +0.000 A 
ATOM     28  C   UNL     1      -3.912  11.955  18.776  0.00  0.00    +0.000 A 
ATOM     29  C   UNL     1      -3.133  11.157  17.929  0.00  0.00    +0.000 A 
ATOM     30  C   UNL     1      -1.796  10.873  18.242  0.00  0.00    +0.000 A 
BRANCH  29  31
ATOM     31  N   UNL     1      -3.725  10.599  16.707  0.00  0.00    +0.000 N 
ATOM     32  O   UNL     1      -3.114   9.686  16.132  0.00  0.00    +0.000 OA
ATOM     33  O   UNL     1      -4.792  11.089  16.308  0.00  0.00    +0.000 OA
ENDBRANCH  29  31
ENDBRANCH   7  25
TORSDOF 8
ENDMDL
MODEL 6
REMARK VINA RESULT:      -7.7      1.483      2.587
REMARK  Name = 
REMARK  9 active torsions:
REMARK  status: ('A' for Active; 'I' for Inactive)
REMARK    1  A    between atoms: C_1  and  O_2
REMARK    2  A    between atoms: O_2  and  C_3
REMARK    3  A    between atoms: C_5  and  C_6
REMARK    4  A    between atoms: C_12  and  C_13
REMARK    5  A    between atoms: C_17  and  N_18
REMARK    6  A    between atoms: C_25  and  O_26
REMARK    7  A    between atoms: O_26  and  C_27
REMARK    8  A    between atoms: C_27  and  C_28
REMARK    9  A    between atoms: C_28  and  O_30
REMARK                            x       y       z     vdW  Elec       q    Type
REMARK                         _______ _______ _______ _____ _____    ______ ____
ROOT
ATOM      1  C   UNL     1       1.736   9.304  18.949  0.00  0.00    +0.000 C 
ATOM      2  N   UNL     1       2.143  10.350  18.297  0.00  0.00    +0.000 NA
ATOM      3  N   UNL     1       1.359  11.405  18.723  0.00  0.00    +0.000 N 
ATOM      4  C   UNL     1       1.601  12.709  18.335  0.00  0.00    +0.000 C 
ATOM      5  N   UNL     1       2.621  12.839  17.447  0.00  0.00    +0.000 N 
ATOM      6  O   UNL     1       0.981  13.690  18.730  0.00  0.00    +0.000 OA
ATOM      7  C   UNL     1       0.422  11.050  19.780  0.00  0.00    +0.000 C 
ATOM      8  C   UNL     1       0.601   9.544  19.916  0.00  0.00    +0.000 C 
ATOM      9  H   UNL     1       3.006  11.988  17.064  0.00  0.00    +0.000 HD
ATOM     10  H   UNL     1       2.780  13.736  17.017  0.00  0.00    +0.000 HD
ENDROOT
BRANCH   1  13
ATOM     11  C   UNL     1       3.845   6.492  17.553  0.00  0.00    +0.000 A 
ATOM     12  C   UNL     1       3.100   7.683  17.633  0.00  0.00    +0.000 A 
ATOM     13  C   UNL     1       2.263   7.937  18.719  0.00  0.00    +0.000 A 
ATOM     14  C   UNL     1       2.040   6.929  19.652  0.00  0.00    +0.000 A 
ATOM     15  C   UNL     1       2.680   5.692  19.510  0.00  0.00    +0.000 A 
ATOM     16  C   UNL     1       3.587   5.454  18.465  0.00  0.00    +0.000 A 
BRANCH  11  18
ATOM     17  C   UNL     1       6.155   6.759  17.081  0.00  0.00    +0.000 C 
ATOM     18  O   UNL     1       4.846   6.377  16.621  0.00  0.00    +0.000 OA
ENDBRANCH  11  18
BRANCH  16  19
ATOM     19  O   UNL     1       4.154   4.200  18.536  0.00  0.00    +0.000 OA
BRANCH  19  20
ATOM     20  C   UNL     1       3.787   3.256  17.532  0.00  0.00    +0.000 C 
BRANCH  20  21
ATOM     21  C   UNL     1       3.171   1.979  18.132  0.00  0.00    +0.000 C 
ATOM     22  O   UNL     1       3.833   1.057  18.572  0.00  0.00    +0.000 OA
BRANCH  21  23
ATOM     23  O   UNL     1       1.822   1.960  18.129  0.00  0.00    +0.000 OA
ATOM     24  H   UNL     1       1.472   1.222  18.670  0.00  0.00    +0.000 HD
ENDBRANCH  21  23
ENDBRANCH  20  21
ENDBRANCH  19  20
ENDBRANCH  16  19
ENDBRANCH   1  13
BRANCH   7  25
ATOM     25  C   UNL     1      -1.015  11.444  19.495  0.00  0.00    +0.000 A 
ATOM     26  C   UNL     1      -1.759  12.118  20.479  0.00  0.00    +0.000 A 
ATOM     27  C   UNL     1      -3.085  12.490  20.249  0.00  0.00    +0.000 A 
ATOM     28  C   UNL     1      -3.695  12.194  19.032  0.00  0.00    +0.000 A 
ATOM     29  C   UNL     1      -2.960  11.536  18.037  0.00  0.00    +0.000 A 
ATOM     30  C   UNL     1      -1.625  11.167  18.260  0.00  0.00    +0.000 A 
BRANCH  29  31
ATOM     31  N   UNL     1      -3.597  11.215  16.755  0.00  0.00    +0.000 N 
ATOM     32  O   UNL     1      -4.834  11.142  16.724  0.00  0.00    +0.000 OA
ATOM     33  O   UNL     1      -2.858  11.013  15.779  0.00  0.00    +0.000 OA
ENDBRANCH  29  31
ENDBRANCH   7  25
TORSDOF 8
ENDMDL
MODEL 7
REMARK VINA RESULT:      -7.7      1.933      2.547
REMARK  Name = 
REMARK  9 active torsions:
REMARK  status: ('A' for Active; 'I' for Inactive)
REMARK    1  A    between atoms: C_1  and  O_2
REMARK    2  A    between atoms: O_2  and  C_3
REMARK    3  A    between atoms: C_5  and  C_6
REMARK    4  A    between atoms: C_12  and  C_13
REMARK    5  A    between atoms: C_17  and  N_18
REMARK    6  A    between atoms: C_25  and  O_26
REMARK    7  A    between atoms: O_26  and  C_27
REMARK    8  A    between atoms: C_27  and  C_28
REMARK    9  A    between atoms: C_28  and  O_30
REMARK                            x       y       z     vdW  Elec       q    Type
REMARK                         _______ _______ _______ _____ _____    ______ ____
ROOT
ATOM      1  C   UNL     1       1.063   9.649  18.937  0.00  0.00    +0.000 C 
ATOM      2  N   UNL     1       1.426  10.831  18.540  0.00  0.00    +0.000 NA
ATOM      3  N   UNL     1       0.299  11.628  18.606  0.00  0.00    +0.000 N 
ATOM      4  C   UNL     1       0.342  12.990  18.381  0.00  0.00    +0.000 C 
ATOM      5  N   UNL     1       1.569  13.449  18.019  0.00  0.00    +0.000 N 
ATOM      6  O   UNL     1      -0.610  13.754  18.490  0.00  0.00    +0.000 OA
ATOM      7  C   UNL     1      -0.868  10.948  19.154  0.00  0.00    +0.000 C 
ATOM      8  C   UNL     1      -0.389   9.513  19.328  0.00  0.00    +0.000 C 
ATOM      9  H   UNL     1       2.277  12.757  17.824  0.00  0.00    +0.000 HD
ATOM     10  H   UNL     1       1.659  14.405  17.714  0.00  0.00    +0.000 HD
ENDROOT
BRANCH   1  13
ATOM     11  C   UNL     1       2.521   6.281  19.851  0.00  0.00    +0.000 A 
ATOM     12  C   UNL     1       1.905   7.540  19.969  0.00  0.00    +0.000 A 
ATOM     13  C   UNL     1       1.963   8.470  18.932  0.00  0.00    +0.000 A 
ATOM     14  C   UNL     1       2.775   8.209  17.832  0.00  0.00    +0.000 A 
ATOM     15  C   UNL     1       3.493   7.009  17.766  0.00  0.00    +0.000 A 
ATOM     16  C   UNL     1       3.380   6.031  18.767  0.00  0.00    +0.000 A 
BRANCH  11  18
ATOM     17  C   UNL     1       1.205   4.375  20.367  0.00  0.00    +0.000 C 
ATOM     18  O   UNL     1       2.237   5.296  20.764  0.00  0.00    +0.000 OA
ENDBRANCH  11  18
BRANCH  16  19
ATOM     19  O   UNL     1       4.117   4.902  18.485  0.00  0.00    +0.000 OA
BRANCH  19  20
ATOM     20  C   UNL     1       5.288   4.671  19.266  0.00  0.00    +0.000 C 
BRANCH  20  21
ATOM     21  C   UNL     1       6.574   5.064  18.515  0.00  0.00    +0.000 C 
ATOM     22  O   UNL     1       7.047   6.185  18.533  0.00  0.00    +0.000 OA
BRANCH  21  23
ATOM     23  O   UNL     1       7.142   4.053  17.824  0.00  0.00    +0.000 OA
ATOM     24  H   UNL     1       7.813   3.583  18.362  0.00  0.00    +0.000 HD
ENDBRANCH  21  23
ENDBRANCH  20  21
ENDBRANCH  19  20
ENDBRANCH  16  19
ENDBRANCH   1  13
BRANCH   7  25
ATOM     25  C   UNL     1      -2.109  11.048  18.287  0.00  0.00    +0.000 A 
ATOM     26  C   UNL     1      -3.270  11.648  18.804  0.00  0.00    +0.000 A 
ATOM     27  C   UNL     1      -4.431  11.752  18.033  0.00  0.00    +0.000 A 
ATOM     28  C   UNL     1      -4.453  11.256  16.731  0.00  0.00    +0.000 A 
ATOM     29  C   UNL     1      -3.298  10.669  16.199  0.00  0.00    +0.000 A 
ATOM     30  C   UNL     1      -2.128  10.570  16.966  0.00  0.00    +0.000 A 
BRANCH  29  31
ATOM     31  N   UNL     1      -3.315  10.139  14.831  0.00  0.00    +0.000 N 
ATOM     32  O   UNL     1      -2.226   9.954  14.268  0.00  0.00    +0.000 OA
ATOM     33  O   UNL     1      -4.420   9.926  14.308  0.00  0.00    +0.000 OA
ENDBRANCH  29  31
ENDBRANCH   7  25
TORSDOF 8
ENDMDL
MODEL 8
REMARK VINA RESULT:      -7.7      1.444      1.940
REMARK  Name = 
REMARK  9 active torsions:
REMARK  status: ('A' for Active; 'I' for Inactive)
REMARK    1  A    between atoms: C_1  and  O_2
REMARK    2  A    between atoms: O_2  and  C_3
REMARK    3  A    between atoms: C_5  and  C_6
REMARK    4  A    between atoms: C_12  and  C_13
REMARK    5  A    between atoms: C_17  and  N_18
REMARK    6  A    between atoms: C_25  and  O_26
REMARK    7  A    between atoms: O_26  and  C_27
REMARK    8  A    between atoms: C_27  and  C_28
REMARK    9  A    between atoms: C_28  and  O_30
REMARK                            x       y       z     vdW  Elec       q    Type
REMARK                         _______ _______ _______ _____ _____    ______ ____
ROOT
ATOM      1  C   UNL     1       1.742   9.369  19.026  0.00  0.00    +0.000 C 
ATOM      2  N   UNL     1       2.114  10.417  18.354  0.00  0.00    +0.000 NA
ATOM      3  N   UNL     1       1.263  11.440  18.725  0.00  0.00    +0.000 N 
ATOM      4  C   UNL     1       1.447  12.743  18.305  0.00  0.00    +0.000 C 
ATOM      5  N   UNL     1       2.487  12.902  17.444  0.00  0.00    +0.000 N 
ATOM      6  O   UNL     1       0.765  13.700  18.652  0.00  0.00    +0.000 OA
ATOM      7  C   UNL     1       0.314  11.066  19.764  0.00  0.00    +0.000 C 
ATOM      8  C   UNL     1       0.567   9.575  19.951  0.00  0.00    +0.000 C 
ATOM      9  H   UNL     1       2.928  12.063  17.098  0.00  0.00    +0.000 HD
ATOM     10  H   UNL     1       2.611  13.794  16.992  0.00  0.00    +0.000 HD
ENDROOT
BRANCH   1  13
ATOM     11  C   UNL     1       2.280   5.639  19.350  0.00  0.00    +0.000 A 
ATOM     12  C   UNL     1       1.954   6.970  19.673  0.00  0.00    +0.000 A 
ATOM     13  C   UNL     1       2.347   8.026  18.852  0.00  0.00    +0.000 A 
ATOM     14  C   UNL     1       3.209   7.774  17.789  0.00  0.00    +0.000 A 
ATOM     15  C   UNL     1       3.641   6.466  17.537  0.00  0.00    +0.000 A 
ATOM     16  C   UNL     1       3.188   5.384  18.308  0.00  0.00    +0.000 A 
BRANCH  11  18
ATOM     17  C   UNL     1       2.337   4.186  21.225  0.00  0.00    +0.000 C 
ATOM     18  O   UNL     1       1.671   4.608  20.021  0.00  0.00    +0.000 OA
ENDBRANCH  11  18
BRANCH  16  19
ATOM     19  O   UNL     1       3.681   4.177  17.862  0.00  0.00    +0.000 OA
BRANCH  19  20
ATOM     20  C   UNL     1       2.746   3.248  17.318  0.00  0.00    +0.000 C 
BRANCH  20  21
ATOM     21  C   UNL     1       2.655   1.958  18.154  0.00  0.00    +0.000 C 
ATOM     22  O   UNL     1       3.594   1.205  18.331  0.00  0.00    +0.000 OA
BRANCH  21  23
ATOM     23  O   UNL     1       1.435   1.724  18.680  0.00  0.00    +0.000 OA
ATOM     24  H   UNL     1       0.786   2.403  18.397  0.00  0.00    +0.000 HD
ENDBRANCH  21  23
ENDBRANCH  20  21
ENDBRANCH  19  20
ENDBRANCH  16  19
ENDBRANCH   1  13
BRANCH   7  25
ATOM     25  C   UNL     1      -1.133  11.374  19.425  0.00  0.00    +0.000 A 
ATOM     26  C   UNL     1      -1.895  12.171  20.296  0.00  0.00    +0.000 A 
ATOM     27  C   UNL     1      -3.230  12.470  20.015  0.00  0.00    +0.000 A 
ATOM     28  C   UNL     1      -3.830  11.975  18.859  0.00  0.00    +0.000 A 
ATOM     29  C   UNL     1      -3.077  11.191  17.975  0.00  0.00    +0.000 A 
ATOM     30  C   UNL     1      -1.734  10.895  18.249  0.00  0.00    +0.000 A 
BRANCH  29  31
ATOM     31  N   UNL     1      -3.703  10.660  16.759  0.00  0.00    +0.000 N 
ATOM     32  O   UNL     1      -4.753  11.191  16.368  0.00  0.00    +0.000 OA
ATOM     33  O   UNL     1      -3.157   9.694  16.203  0.00  0.00    +0.000 OA
ENDBRANCH  29  31
ENDBRANCH   7  25
TORSDOF 8
ENDMDL
MODEL 9
REMARK VINA RESULT:      -7.6      2.969      4.220
REMARK  Name = 
REMARK  9 active torsions:
REMARK  status: ('A' for Active; 'I' for Inactive)
REMARK    1  A    between atoms: C_1  and  O_2
REMARK    2  A    between atoms: O_2  and  C_3
REMARK    3  A    between atoms: C_5  and  C_6
REMARK    4  A    between atoms: C_12  and  C_13
REMARK    5  A    between atoms: C_17  and  N_18
REMARK    6  A    between atoms: C_25  and  O_26
REMARK    7  A    between atoms: O_26  and  C_27
REMARK    8  A    between atoms: C_27  and  C_28
REMARK    9  A    between atoms: C_28  and  O_30
REMARK                            x       y       z     vdW  Elec       q    Type
REMARK                         _______ _______ _______ _____ _____    ______ ____
ROOT
ATOM      1  C   UNL     1       1.953   8.192  18.819  0.00  0.00    +0.000 C 
ATOM      2  N   UNL     1       1.694   8.372  20.079  0.00  0.00    +0.000 NA
ATOM      3  N   UNL     1       0.967   9.544  20.164  0.00  0.00    +0.000 N 
ATOM      4  C   UNL     1       0.405   9.980  21.348  0.00  0.00    +0.000 C 
ATOM      5  N   UNL     1       0.697   9.196  22.418  0.00  0.00    +0.000 N 
ATOM      6  O   UNL     1      -0.302  10.974  21.470  0.00  0.00    +0.000 OA
ATOM      7  C   UNL     1       0.660  10.139  18.870  0.00  0.00    +0.000 C 
ATOM      8  C   UNL     1       1.412   9.250  17.888  0.00  0.00    +0.000 C 
ATOM      9  H   UNL     1       1.383   8.469  22.279  0.00  0.00    +0.000 HD
ATOM     10  H   UNL     1       0.434   9.510  23.338  0.00  0.00    +0.000 HD
ENDROOT
BRANCH   1  13
ATOM     11  C   UNL     1       3.013   4.710  17.790  0.00  0.00    +0.000 A 
ATOM     12  C   UNL     1       2.408   5.760  18.507  0.00  0.00    +0.000 A 
ATOM     13  C   UNL     1       2.794   7.085  18.305  0.00  0.00    +0.000 A 
ATOM     14  C   UNL     1       3.900   7.353  17.504  0.00  0.00    +0.000 A 
ATOM     15  C   UNL     1       4.587   6.300  16.887  0.00  0.00    +0.000 A 
ATOM     16  C   UNL     1       4.159   4.970  17.019  0.00  0.00    +0.000 A 
BRANCH  11  18
ATOM     17  C   UNL     1       2.741   2.679  18.986  0.00  0.00    +0.000 C 
ATOM     18  O   UNL     1       2.449   3.459  17.812  0.00  0.00    +0.000 OA
ENDBRANCH  11  18
BRANCH  16  19
ATOM     19  O   UNL     1       4.931   4.094  16.288  0.00  0.00    +0.000 OA
BRANCH  19  20
ATOM     20  C   UNL     1       6.335   4.340  16.240  0.00  0.00    +0.000 C 
BRANCH  20  21
ATOM     21  C   UNL     1       6.855   4.460  14.796  0.00  0.00    +0.000 C 
ATOM     22  O   UNL     1       7.621   5.332  14.428  0.00  0.00    +0.000 OA
BRANCH  21  23
ATOM     23  O   UNL     1       6.387   3.512  13.959  0.00  0.00    +0.000 OA
ATOM     24  H   UNL     1       6.797   2.639  14.140  0.00  0.00    +0.000 HD
ENDBRANCH  21  23
ENDBRANCH  20  21
ENDBRANCH  19  20
ENDBRANCH  16  19
ENDBRANCH   1  13
BRANCH   7  25
ATOM     25  C   UNL     1       1.048  11.601  18.750  0.00  0.00    +0.000 A 
ATOM     26  C   UNL     1       2.361  11.942  18.383  0.00  0.00    +0.000 A 
ATOM     27  C   UNL     1       2.751  13.279  18.267  0.00  0.00    +0.000 A 
ATOM     28  C   UNL     1       1.837  14.299  18.519  0.00  0.00    +0.000 A 
ATOM     29  C   UNL     1       0.521  13.972  18.872  0.00  0.00    +0.000 A 
ATOM     30  C   UNL     1       0.122  12.632  18.981  0.00  0.00    +0.000 A 
BRANCH  29  31
ATOM     31  N   UNL     1      -0.446  15.041  19.145  0.00  0.00    +0.000 N 
ATOM     32  O   UNL     1      -1.270  14.859  20.054  0.00  0.00    +0.000 OA
ATOM     33  O   UNL     1      -0.399  16.057  18.436  0.00  0.00    +0.000 OA
ENDBRANCH  29  31
ENDBRANCH   7  25
TORSDOF 8
ENDMDL
