MODEL 1
REMARK VINA RESULT:      -9.2      0.000      0.000
REMARK  Name = 
REMARK  10 active torsions:
REMARK  status: ('A' for Active; 'I' for Inactive)
REMARK    1  A    between atoms: C_1  and  O_2
REMARK    2  A    between atoms: O_2  and  C_3
REMARK    3  A    between atoms: C_3  and  C_5
REMARK    4  A    between atoms: C_6  and  C_7
REMARK    5  A    between atoms: C_7  and  O_9
REMARK    6  A    between atoms: O_9  and  C_10
REMARK    7  A    between atoms: C_11  and  C_12
REMARK    8  A    between atoms: C_15  and  C_16
REMARK    9  A    between atoms: C_27  and  C_28
REMARK   10  A    between atoms: C_27  and  C_29
REMARK                            x       y       z     vdW  Elec       q    Type
REMARK                         _______ _______ _______ _____ _____    ______ ____
ROOT
ATOM      1  C   UNL     1       5.944   4.611  18.152  0.00  0.00    +0.000 C 
ATOM      2  C   UNL     1       5.087   5.231  17.309  0.00  0.00    +0.000 C 
ATOM      3  C   UNL     1       3.575   5.097  17.529  0.00  0.00    +0.000 C 
ATOM      4  C   UNL     1       3.206   4.014  18.535  0.00  0.00    +0.000 C 
ATOM      5  C   UNL     1       4.135   3.430  19.317  0.00  0.00    +0.000 C 
ATOM      6  C   UNL     1       3.780   2.459  20.419  0.00  0.00    +0.000 C 
ATOM      7  C   UNL     1       2.324   2.616  20.920  0.00  0.00    +0.000 C 
ATOM      8  C   UNL     1       2.157   3.916  21.738  0.00  0.00    +0.000 C 
ATOM      9  C   UNL     1       1.961   1.435  21.836  0.00  0.00    +0.000 C 
ATOM     10  C   UNL     1       1.379   2.617  19.708  0.00  0.00    +0.000 C 
ATOM     11  C   UNL     1       1.771   3.631  18.656  0.00  0.00    +0.000 C 
ATOM     12  O   UNL     1       0.936   4.065  17.864  0.00  0.00    +0.000 OA
ATOM     13  N   UNL     1       5.464   3.767  19.155  0.00  0.00    +0.000 N 
ATOM     14  H   UNL     1       6.176   3.244  19.665  0.00  0.00    +0.000 HD
ENDROOT
BRANCH   3  15
ATOM     15  C   UNL     1       2.977   6.429  17.991  0.00  0.00    +0.000 A 
ATOM     16  C   UNL     1       2.632   6.605  19.334  0.00  0.00    +0.000 A 
ATOM     17  C   UNL     1       2.034   7.790  19.762  0.00  0.00    +0.000 A 
ATOM     18  C   UNL     1       1.796   8.856  18.876  0.00  0.00    +0.000 A 
ATOM     19  C   UNL     1       2.169   8.674  17.534  0.00  0.00    +0.000 A 
ATOM     20  C   UNL     1       2.740   7.477  17.092  0.00  0.00    +0.000 A 
BRANCH  18  21
ATOM     21  C   UNL     1       1.188  10.118  19.344  0.00  0.00    +0.000 A 
ATOM     22  C   UNL     1       0.285  10.132  20.423  0.00  0.00    +0.000 A 
ATOM     23  C   UNL     1      -0.307  11.316  20.867  0.00  0.00    +0.000 A 
ATOM     24  C   UNL     1       0.006  12.522  20.253  0.00  0.00    +0.000 A 
ATOM     25  C   UNL     1       0.905  12.543  19.191  0.00  0.00    +0.000 A 
ATOM     26  C   UNL     1       1.481  11.354  18.737  0.00  0.00    +0.000 A 
ENDBRANCH  18  21
ENDBRANCH   3  15
BRANCH   1  27
ATOM     27  C   UNL     1       7.430   4.856  18.121  0.00  0.00    +0.000 C 
ATOM     28  O   UNL     1       8.204   4.413  17.289  0.00  0.00    +0.000 OA
BRANCH  27  30
ATOM     29  C   UNL     1       8.126   7.053  18.542  0.00  0.00    +0.000 C 
ATOM     30  O   UNL     1       7.732   5.787  19.075  0.00  0.00    +0.000 OA
ENDBRANCH  27  30
ENDBRANCH   1  27
BRANCH   2  31
ATOM     31  C   UNL     1       5.540   5.989  16.111  0.00  0.00    +0.000 C 
ATOM     32  O   UNL     1       6.010   7.114  16.140  0.00  0.00    +0.000 OA
BRANCH  31  33
ATOM     33  O   UNL     1       5.444   5.208  15.011  0.00  0.00    +0.000 OA
ATOM     34  C   UNL     1       6.661   4.867  14.346  0.00  0.00    +0.000 C 
ENDBRANCH  31  33
ENDBRANCH   2  31
TORSDOF 6
ENDMDL
MODEL 2
REMARK VINA RESULT:      -8.9      0.134      1.191
REMARK  Name = 
REMARK  10 active torsions:
REMARK  status: ('A' for Active; 'I' for Inactive)
REMARK    1  A    between atoms: C_1  and  O_2
REMARK    2  A    between atoms: O_2  and  C_3
REMARK    3  A    between atoms: C_3  and  C_5
REMARK    4  A    between atoms: C_6  and  C_7
REMARK    5  A    between atoms: C_7  and  O_9
REMARK    6  A    between atoms: O_9  and  C_10
REMARK    7  A    between atoms: C_11  and  C_12
REMARK    8  A    between atoms: C_15  and  C_16
REMARK    9  A    between atoms: C_27  and  C_28
REMARK   10  A    between atoms: C_27  and  C_29
REMARK                            x       y       z     vdW  Elec       q    Type
REMARK                         _______ _______ _______ _____ _____    ______ ____
ROOT
ATOM      1  C   UNL     1       5.922   4.683  18.175  0.00  0.00    +0.000 C 
ATOM      2  C   UNL     1       5.059   5.297  17.335  0.00  0.00    +0.000 C 
ATOM      3  C   UNL     1       3.549   5.132  17.545  0.00  0.00    +0.000 C 
ATOM      4  C   UNL     1       3.193   4.031  18.535  0.00  0.00    +0.000 C 
ATOM      5  C   UNL     1       4.128   3.454  19.315  0.00  0.00    +0.000 C 
ATOM      6  C   UNL     1       3.785   2.462  20.402  0.00  0.00    +0.000 C 
ATOM      7  C   UNL     1       2.324   2.587  20.896  0.00  0.00    +0.000 C 
ATOM      8  C   UNL     1       2.128   3.872  21.729  0.00  0.00    +0.000 C 
ATOM      9  C   UNL     1       1.977   1.387  21.795  0.00  0.00    +0.000 C 
ATOM     10  C   UNL     1       1.386   2.585  19.678  0.00  0.00    +0.000 C 
ATOM     11  C   UNL     1       1.765   3.619  18.642  0.00  0.00    +0.000 C 
ATOM     12  O   UNL     1       0.927   4.048  17.850  0.00  0.00    +0.000 OA
ATOM     13  N   UNL     1       5.452   3.817  19.165  0.00  0.00    +0.000 N 
ATOM     14  H   UNL     1       6.170   3.300  19.672  0.00  0.00    +0.000 HD
ENDROOT
BRANCH   3  15
ATOM     15  C   UNL     1       2.923   6.448  18.019  0.00  0.00    +0.000 A 
ATOM     16  C   UNL     1       2.730   7.491  17.109  0.00  0.00    +0.000 A 
ATOM     17  C   UNL     1       2.215   8.715  17.534  0.00  0.00    +0.000 A 
ATOM     18  C   UNL     1       1.837   8.929  18.872  0.00  0.00    +0.000 A 
ATOM     19  C   UNL     1       2.015   7.865  19.771  0.00  0.00    +0.000 A 
ATOM     20  C   UNL     1       2.560   6.646  19.358  0.00  0.00    +0.000 A 
BRANCH  18  21
ATOM     21  C   UNL     1       1.266  10.220  19.308  0.00  0.00    +0.000 A 
ATOM     22  C   UNL     1       1.564  11.413  18.624  0.00  0.00    +0.000 A 
ATOM     23  C   UNL     1       1.042  12.642  19.033  0.00  0.00    +0.000 A 
ATOM     24  C   UNL     1       0.189  12.704  20.128  0.00  0.00    +0.000 A 
ATOM     25  C   UNL     1      -0.135  11.539  20.818  0.00  0.00    +0.000 A 
ATOM     26  C   UNL     1       0.403  10.315  20.417  0.00  0.00    +0.000 A 
ENDBRANCH  18  21
ENDBRANCH   3  15
BRANCH   1  27
ATOM     27  C   UNL     1       7.403   4.955  18.156  0.00  0.00    +0.000 C 
ATOM     28  O   UNL     1       8.196   4.505  17.346  0.00  0.00    +0.000 OA
BRANCH  27  30
ATOM     29  C   UNL     1       8.209   7.121  18.539  0.00  0.00    +0.000 C 
ATOM     30  O   UNL     1       7.675   5.915  19.089  0.00  0.00    +0.000 OA
ENDBRANCH  27  30
ENDBRANCH   1  27
BRANCH   2  31
ATOM     31  C   UNL     1       5.505   6.078  16.149  0.00  0.00    +0.000 C 
ATOM     32  O   UNL     1       6.045   7.171  16.203  0.00  0.00    +0.000 OA
BRANCH  31  33
ATOM     33  O   UNL     1       5.312   5.354  15.024  0.00  0.00    +0.000 OA
ATOM     34  C   UNL     1       6.439   4.652  14.499  0.00  0.00    +0.000 C 
ENDBRANCH  31  33
ENDBRANCH   2  31
TORSDOF 6
ENDMDL
MODEL 3
REMARK VINA RESULT:      -8.0      1.120      1.797
REMARK  Name = 
REMARK  10 active torsions:
REMARK  status: ('A' for Active; 'I' for Inactive)
REMARK    1  A    between atoms: C_1  and  O_2
REMARK    2  A    between atoms: O_2  and  C_3
REMARK    3  A    between atoms: C_3  and  C_5
REMARK    4  A    between atoms: C_6  and  C_7
REMARK    5  A    between atoms: C_7  and  O_9
REMARK    6  A    between atoms: O_9  and  C_10
REMARK    7  A    between atoms: C_11  and  C_12
REMARK    8  A    between atoms: C_15  and  C_16
REMARK    9  A    between atoms: C_27  and  C_28
REMARK   10  A    between atoms: C_27  and  C_29
REMARK                            x       y       z     vdW  Elec       q    Type
REMARK                         _______ _______ _______ _____ _____    ______ ____
ROOT
ATOM      1  C   UNL     1       5.861   4.901  18.403  0.00  0.00    +0.000 C 
ATOM      2  C   UNL     1       5.130   5.805  17.712  0.00  0.00    +0.000 C 
ATOM      3  C   UNL     1       3.610   5.634  17.610  0.00  0.00    +0.000 C 
ATOM      4  C   UNL     1       3.124   4.267  18.075  0.00  0.00    +0.000 C 
ATOM      5  C   UNL     1       3.933   3.417  18.736  0.00  0.00    +0.000 C 
ATOM      6  C   UNL     1       3.441   2.119  19.333  0.00  0.00    +0.000 C 
ATOM      7  C   UNL     1       1.918   2.116  19.602  0.00  0.00    +0.000 C 
ATOM      8  C   UNL     1       1.564   3.030  20.797  0.00  0.00    +0.000 C 
ATOM      9  C   UNL     1       1.456   0.689  19.951  0.00  0.00    +0.000 C 
ATOM     10  C   UNL     1       1.186   2.580  18.333  0.00  0.00    +0.000 C 
ATOM     11  C   UNL     1       1.705   3.899  17.805  0.00  0.00    +0.000 C 
ATOM     12  O   UNL     1       0.996   4.611  17.095  0.00  0.00    +0.000 OA
ATOM     13  N   UNL     1       5.256   3.759  18.935  0.00  0.00    +0.000 N 
ATOM     14  H   UNL     1       5.895   3.070  19.331  0.00  0.00    +0.000 HD
ENDROOT
BRANCH   3  15
ATOM     15  C   UNL     1       2.890   6.719  18.416  0.00  0.00    +0.000 A 
ATOM     16  C   UNL     1       2.588   6.495  19.763  0.00  0.00    +0.000 A 
ATOM     17  C   UNL     1       1.883   7.448  20.498  0.00  0.00    +0.000 A 
ATOM     18  C   UNL     1       1.489   8.672  19.929  0.00  0.00    +0.000 A 
ATOM     19  C   UNL     1       1.819   8.893  18.581  0.00  0.00    +0.000 A 
ATOM     20  C   UNL     1       2.498   7.930  17.830  0.00  0.00    +0.000 A 
BRANCH  18  21
ATOM     21  C   UNL     1       0.767   9.687  20.723  0.00  0.00    +0.000 A 
ATOM     22  C   UNL     1       0.281   9.390  22.010  0.00  0.00    +0.000 A 
ATOM     23  C   UNL     1      -0.415  10.336  22.766  0.00  0.00    +0.000 A 
ATOM     24  C   UNL     1      -0.623  11.613  22.260  0.00  0.00    +0.000 A 
ATOM     25  C   UNL     1      -0.144  11.941  20.995  0.00  0.00    +0.000 A 
ATOM     26  C   UNL     1       0.535  10.987  20.234  0.00  0.00    +0.000 A 
ENDBRANCH  18  21
ENDBRANCH   3  15
BRANCH   1  27
ATOM     27  C   UNL     1       7.320   5.106  18.715  0.00  0.00    +0.000 C 
ATOM     28  O   UNL     1       7.761   5.696  19.687  0.00  0.00    +0.000 OA
BRANCH  27  30
ATOM     29  C   UNL     1       7.489   4.333  16.510  0.00  0.00    +0.000 C 
ATOM     30  O   UNL     1       8.056   4.381  17.821  0.00  0.00    +0.000 OA
ENDBRANCH  27  30
ENDBRANCH   1  27
BRANCH   2  31
ATOM     31  C   UNL     1       5.744   6.937  16.966  0.00  0.00    +0.000 C 
ATOM     32  O   UNL     1       5.664   7.095  15.759  0.00  0.00    +0.000 OA
BRANCH  31  33
ATOM     33  O   UNL     1       6.310   7.806  17.834  0.00  0.00    +0.000 OA
ATOM     34  C   UNL     1       7.593   8.328  17.490  0.00  0.00    +0.000 C 
ENDBRANCH  31  33
ENDBRANCH   2  31
TORSDOF 6
ENDMDL
MODEL 4
REMARK VINA RESULT:      -8.0      0.861      1.132
REMARK  Name = 
REMARK  10 active torsions:
REMARK  status: ('A' for Active; 'I' for Inactive)
REMARK    1  A    between atoms: C_1  and  O_2
REMARK    2  A    between atoms: O_2  and  C_3
REMARK    3  A    between atoms: C_3  and  C_5
REMARK    4  A    between atoms: C_6  and  C_7
REMARK    5  A    between atoms: C_7  and  O_9
REMARK    6  A    between atoms: O_9  and  C_10
REMARK    7  A    between atoms: C_11  and  C_12
REMARK    8  A    between atoms: C_15  and  C_16
REMARK    9  A    between atoms: C_27  and  C_28
REMARK   10  A    between atoms: C_27  and  C_29
REMARK                            x       y       z     vdW  Elec       q    Type
REMARK                         _______ _______ _______ _____ _____    ______ ____
ROOT
ATOM      1  C   UNL     1       5.898   5.255  18.544  0.00  0.00    +0.000 C 
ATOM      2  C   UNL     1       5.133   5.954  17.676  0.00  0.00    +0.000 C 
ATOM      3  C   UNL     1       3.617   5.728  17.646  0.00  0.00    +0.000 C 
ATOM      4  C   UNL     1       3.175   4.498  18.429  0.00  0.00    +0.000 C 
ATOM      5  C   UNL     1       4.017   3.845  19.254  0.00  0.00    +0.000 C 
ATOM      6  C   UNL     1       3.569   2.712  20.147  0.00  0.00    +0.000 C 
ATOM      7  C   UNL     1       2.051   2.736  20.441  0.00  0.00    +0.000 C 
ATOM      8  C   UNL     1       1.689   3.896  21.394  0.00  0.00    +0.000 C 
ATOM      9  C   UNL     1       1.634   1.421  21.123  0.00  0.00    +0.000 C 
ATOM     10  C   UNL     1       1.289   2.872  19.113  0.00  0.00    +0.000 C 
ATOM     11  C   UNL     1       1.764   4.042  18.280  0.00  0.00    +0.000 C 
ATOM     12  O   UNL     1       1.025   4.551  17.438  0.00  0.00    +0.000 OA
ATOM     13  N   UNL     1       5.333   4.256  19.340  0.00  0.00    +0.000 N 
ATOM     14  H   UNL     1       5.995   3.695  19.874  0.00  0.00    +0.000 HD
ENDROOT
BRANCH   3  15
ATOM     15  C   UNL     1       2.878   6.954  18.191  0.00  0.00    +0.000 A 
ATOM     16  C   UNL     1       2.514   7.001  19.540  0.00  0.00    +0.000 A 
ATOM     17  C   UNL     1       1.791   8.084  20.040  0.00  0.00    +0.000 A 
ATOM     18  C   UNL     1       1.440   9.175  19.225  0.00  0.00    +0.000 A 
ATOM     19  C   UNL     1       1.833   9.125  17.877  0.00  0.00    +0.000 A 
ATOM     20  C   UNL     1       2.530   8.029  17.361  0.00  0.00    +0.000 A 
BRANCH  18  21
ATOM     21  C   UNL     1       0.700  10.330  19.770  0.00  0.00    +0.000 A 
ATOM     22  C   UNL     1       0.383  10.408  21.140  0.00  0.00    +0.000 A 
ATOM     23  C   UNL     1      -0.329  11.488  21.666  0.00  0.00    +0.000 A 
ATOM     24  C   UNL     1      -0.724  12.530  20.837  0.00  0.00    +0.000 A 
ATOM     25  C   UNL     1      -0.416  12.488  19.480  0.00  0.00    +0.000 A 
ATOM     26  C   UNL     1       0.280  11.398  18.953  0.00  0.00    +0.000 A 
ENDBRANCH  18  21
ENDBRANCH   3  15
BRANCH   1  27
ATOM     27  C   UNL     1       7.355   5.563  18.770  0.00  0.00    +0.000 C 
ATOM     28  O   UNL     1       7.789   6.485  19.441  0.00  0.00    +0.000 OA
BRANCH  27  30
ATOM     29  C   UNL     1       7.811   4.279  16.864  0.00  0.00    +0.000 C 
ATOM     30  O   UNL     1       8.096   4.545  18.239  0.00  0.00    +0.000 OA
ENDBRANCH  27  30
ENDBRANCH   1  27
BRANCH   2  31
ATOM     31  C   UNL     1       5.704   6.894  16.673  0.00  0.00    +0.000 C 
ATOM     32  O   UNL     1       6.578   7.712  16.910  0.00  0.00    +0.000 OA
BRANCH  31  33
ATOM     33  O   UNL     1       5.184   6.636  15.452  0.00  0.00    +0.000 OA
ATOM     34  C   UNL     1       5.584   5.422  14.816  0.00  0.00    +0.000 C 
ENDBRANCH  31  33
ENDBRANCH   2  31
TORSDOF 6
ENDMDL
MODEL 5
REMARK VINA RESULT:      -7.8      1.109      1.786
REMARK  Name = 
REMARK  10 active torsions:
REMARK  status: ('A' for Active; 'I' for Inactive)
REMARK    1  A    between atoms: C_1  and  O_2
REMARK    2  A    between atoms: O_2  and  C_3
REMARK    3  A    between atoms: C_3  and  C_5
REMARK    4  A    between atoms: C_6  and  C_7
REMARK    5  A    between atoms: C_7  and  O_9
REMARK    6  A    between atoms: O_9  and  C_10
REMARK    7  A    between atoms: C_11  and  C_12
REMARK    8  A    between atoms: C_15  and  C_16
REMARK    9  A    between atoms: C_27  and  C_28
REMARK   10  A    between atoms: C_27  and  C_29
REMARK                            x       y       z     vdW  Elec       q    Type
REMARK                         _______ _______ _______ _____ _____    ______ ____
ROOT
ATOM      1  C   UNL     1       5.779   5.072  18.682  0.00  0.00    +0.000 C 
ATOM      2  C   UNL     1       5.116   5.894  17.837  0.00  0.00    +0.000 C 
ATOM      3  C   UNL     1       3.603   5.730  17.650  0.00  0.00    +0.000 C 
ATOM      4  C   UNL     1       3.057   4.438  18.243  0.00  0.00    +0.000 C 
ATOM      5  C   UNL     1       3.802   3.664  19.057  0.00  0.00    +0.000 C 
ATOM      6  C   UNL     1       3.243   2.455  19.771  0.00  0.00    +0.000 C 
ATOM      7  C   UNL     1       1.705   2.505  19.932  0.00  0.00    +0.000 C 
ATOM      8  C   UNL     1       1.291   3.563  20.978  0.00  0.00    +0.000 C 
ATOM      9  C   UNL     1       1.191   1.138  20.418  0.00  0.00    +0.000 C 
ATOM     10  C   UNL     1       1.072   2.820  18.567  0.00  0.00    +0.000 C 
ATOM     11  C   UNL     1       1.653   4.057  17.920  0.00  0.00    +0.000 C 
ATOM     12  O   UNL     1       1.009   4.686  17.082  0.00  0.00    +0.000 OA
ATOM     13  N   UNL     1       5.115   4.011  19.304  0.00  0.00    +0.000 N 
ATOM     14  H   UNL     1       5.711   3.368  19.825  0.00  0.00    +0.000 HD
ENDROOT
BRANCH   3  15
ATOM     15  C   UNL     1       2.852   6.915  18.266  0.00  0.00    +0.000 A 
ATOM     16  C   UNL     1       2.468   6.868  19.610  0.00  0.00    +0.000 A 
ATOM     17  C   UNL     1       1.735   7.912  20.173  0.00  0.00    +0.000 A 
ATOM     18  C   UNL     1       1.394   9.057  19.430  0.00  0.00    +0.000 A 
ATOM     19  C   UNL     1       1.807   9.101  18.088  0.00  0.00    +0.000 A 
ATOM     20  C   UNL     1       2.514   8.044  17.508  0.00  0.00    +0.000 A 
BRANCH  18  21
ATOM     21  C   UNL     1       0.642  10.170  20.043  0.00  0.00    +0.000 A 
ATOM     22  C   UNL     1       0.047  11.168  19.248  0.00  0.00    +0.000 A 
ATOM     23  C   UNL     1      -0.655  12.233  19.814  0.00  0.00    +0.000 A 
ATOM     24  C   UNL     1      -0.797  12.317  21.194  0.00  0.00    +0.000 A 
ATOM     25  C   UNL     1      -0.230  11.339  22.007  0.00  0.00    +0.000 A 
ATOM     26  C   UNL     1       0.487  10.285  21.438  0.00  0.00    +0.000 A 
ENDBRANCH  18  21
ENDBRANCH   3  15
BRANCH   1  27
ATOM     27  C   UNL     1       7.217   5.295  19.068  0.00  0.00    +0.000 C 
ATOM     28  O   UNL     1       7.605   6.019  19.970  0.00  0.00    +0.000 OA
BRANCH  27  30
ATOM     29  C   UNL     1       7.694   4.404  16.955  0.00  0.00    +0.000 C 
ATOM     30  O   UNL     1       7.994   4.429  18.352  0.00  0.00    +0.000 OA
ENDBRANCH  27  30
ENDBRANCH   1  27
BRANCH   2  31
ATOM     31  C   UNL     1       5.803   6.918  17.004  0.00  0.00    +0.000 C 
ATOM     32  O   UNL     1       5.820   6.920  15.784  0.00  0.00    +0.000 OA
BRANCH  31  33
ATOM     33  O   UNL     1       6.311   7.888  17.795  0.00  0.00    +0.000 OA
ATOM     34  C   UNL     1       7.653   8.303  17.538  0.00  0.00    +0.000 C 
ENDBRANCH  31  33
ENDBRANCH   2  31
TORSDOF 6
ENDMDL
MODEL 6
REMARK VINA RESULT:      -7.8      0.885      1.649
REMARK  Name = 
REMARK  10 active torsions:
REMARK  status: ('A' for Active; 'I' for Inactive)
REMARK    1  A    between atoms: C_1  and  O_2
REMARK    2  A    between atoms: O_2  and  C_3
REMARK    3  A    between atoms: C_3  and  C_5
REMARK    4  A    between atoms: C_6  and  C_7
REMARK    5  A    between atoms: C_7  and  O_9
REMARK    6  A    between atoms: O_9  and  C_10
REMARK    7  A    between atoms: C_11  and  C_12
REMARK    8  A    between atoms: C_15  and  C_16
REMARK    9  A    between atoms: C_27  and  C_28
REMARK   10  A    between atoms: C_27  and  C_29
REMARK                            x       y       z     vdW  Elec       q    Type
REMARK                         _______ _______ _______ _____ _____    ______ ____
ROOT
ATOM      1  C   UNL     1       5.803   5.166  18.530  0.00  0.00    +0.000 C 
ATOM      2  C   UNL     1       5.065   5.929  17.692  0.00  0.00    +0.000 C 
ATOM      3  C   UNL     1       3.548   5.721  17.611  0.00  0.00    +0.000 C 
ATOM      4  C   UNL     1       3.077   4.446  18.299  0.00  0.00    +0.000 C 
ATOM      5  C   UNL     1       3.893   3.731  19.098  0.00  0.00    +0.000 C 
ATOM      6  C   UNL     1       3.414   2.546  19.903  0.00  0.00    +0.000 C 
ATOM      7  C   UNL     1       1.889   2.566  20.161  0.00  0.00    +0.000 C 
ATOM      8  C   UNL     1       1.514   3.663  21.182  0.00  0.00    +0.000 C 
ATOM      9  C   UNL     1       1.444   1.212  20.744  0.00  0.00    +0.000 C 
ATOM     10  C   UNL     1       1.161   2.798  18.828  0.00  0.00    +0.000 C 
ATOM     11  C   UNL     1       1.666   4.016  18.087  0.00  0.00    +0.000 C 
ATOM     12  O   UNL     1       0.953   4.587  17.263  0.00  0.00    +0.000 OA
ATOM     13  N   UNL     1       5.210   4.122  19.243  0.00  0.00    +0.000 N 
ATOM     14  H   UNL     1       5.854   3.520  19.754  0.00  0.00    +0.000 HD
ENDROOT
BRANCH   3  15
ATOM     15  C   UNL     1       2.807   6.916  18.219  0.00  0.00    +0.000 A 
ATOM     16  C   UNL     1       2.484   8.012  17.413  0.00  0.00    +0.000 A 
ATOM     17  C   UNL     1       1.860   9.132  17.961  0.00  0.00    +0.000 A 
ATOM     18  C   UNL     1       1.500   9.184  19.320  0.00  0.00    +0.000 A 
ATOM     19  C   UNL     1       1.809   8.066  20.112  0.00  0.00    +0.000 A 
ATOM     20  C   UNL     1       2.463   6.953  19.576  0.00  0.00    +0.000 A 
BRANCH  18  21
ATOM     21  C   UNL     1       0.814  10.363  19.884  0.00  0.00    +0.000 A 
ATOM     22  C   UNL     1       0.808  11.595  19.203  0.00  0.00    +0.000 A 
ATOM     23  C   UNL     1       0.175  12.722  19.732  0.00  0.00    +0.000 A 
ATOM     24  C   UNL     1      -0.489  12.638  20.950  0.00  0.00    +0.000 A 
ATOM     25  C   UNL     1      -0.512  11.431  21.642  0.00  0.00    +0.000 A 
ATOM     26  C   UNL     1       0.138  10.311  21.119  0.00  0.00    +0.000 A 
ENDBRANCH  18  21
ENDBRANCH   3  15
BRANCH   1  27
ATOM     27  C   UNL     1       7.256   5.443  18.810  0.00  0.00    +0.000 C 
ATOM     28  O   UNL     1       7.682   6.312  19.553  0.00  0.00    +0.000 OA
BRANCH  27  30
ATOM     29  C   UNL     1       7.780   4.320  16.823  0.00  0.00    +0.000 C 
ATOM     30  O   UNL     1       8.002   4.457  18.228  0.00  0.00    +0.000 OA
ENDBRANCH  27  30
ENDBRANCH   1  27
BRANCH   2  31
ATOM     31  C   UNL     1       5.669   6.928  16.768  0.00  0.00    +0.000 C 
ATOM     32  O   UNL     1       6.538   7.725  17.082  0.00  0.00    +0.000 OA
BRANCH  31  33
ATOM     33  O   UNL     1       5.185   6.750  15.519  0.00  0.00    +0.000 OA
ATOM     34  C   UNL     1       5.545   5.543  14.845  0.00  0.00    +0.000 C 
ENDBRANCH  31  33
ENDBRANCH   2  31
TORSDOF 6
ENDMDL
MODEL 7
REMARK VINA RESULT:      -7.7      0.602      1.309
REMARK  Name = 
REMARK  10 active torsions:
REMARK  status: ('A' for Active; 'I' for Inactive)
REMARK    1  A    between atoms: C_1  and  O_2
REMARK    2  A    between atoms: O_2  and  C_3
REMARK    3  A    between atoms: C_3  and  C_5
REMARK    4  A    between atoms: C_6  and  C_7
REMARK    5  A    between atoms: C_7  and  O_9
REMARK    6  A    between atoms: O_9  and  C_10
REMARK    7  A    between atoms: C_11  and  C_12
REMARK    8  A    between atoms: C_15  and  C_16
REMARK    9  A    between atoms: C_27  and  C_28
REMARK   10  A    between atoms: C_27  and  C_29
REMARK                            x       y       z     vdW  Elec       q    Type
REMARK                         _______ _______ _______ _____ _____    ______ ____
ROOT
ATOM      1  C   UNL     1       5.988   4.648  18.268  0.00  0.00    +0.000 C 
ATOM      2  C   UNL     1       5.173   5.307  17.413  0.00  0.00    +0.000 C 
ATOM      3  C   UNL     1       3.652   5.171  17.558  0.00  0.00    +0.000 C 
ATOM      4  C   UNL     1       3.233   4.049  18.499  0.00  0.00    +0.000 C 
ATOM      5  C   UNL     1       4.123   3.428  19.298  0.00  0.00    +0.000 C 
ATOM      6  C   UNL     1       3.714   2.414  20.341  0.00  0.00    +0.000 C 
ATOM      7  C   UNL     1       2.238   2.558  20.780  0.00  0.00    +0.000 C 
ATOM      8  C   UNL     1       2.037   3.823  21.643  0.00  0.00    +0.000 C 
ATOM      9  C   UNL     1       1.829   1.341  21.628  0.00  0.00    +0.000 C 
ATOM     10  C   UNL     1       1.350   2.613  19.527  0.00  0.00    +0.000 C 
ATOM     11  C   UNL     1       1.793   3.668  18.538  0.00  0.00    +0.000 C 
ATOM     12  O   UNL     1       0.997   4.139  17.726  0.00  0.00    +0.000 OA
ATOM     13  N   UNL     1       5.459   3.765  19.212  0.00  0.00    +0.000 N 
ATOM     14  H   UNL     1       6.145   3.218  19.731  0.00  0.00    +0.000 HD
ENDROOT
BRANCH   3  15
ATOM     15  C   UNL     1       3.037   6.486  18.046  0.00  0.00    +0.000 A 
ATOM     16  C   UNL     1       2.719   6.641  19.399  0.00  0.00    +0.000 A 
ATOM     17  C   UNL     1       2.107   7.809  19.852  0.00  0.00    +0.000 A 
ATOM     18  C   UNL     1       1.827   8.878  18.982  0.00  0.00    +0.000 A 
ATOM     19  C   UNL     1       2.173   8.718  17.631  0.00  0.00    +0.000 A 
ATOM     20  C   UNL     1       2.758   7.538  17.164  0.00  0.00    +0.000 A 
BRANCH  18  21
ATOM     21  C   UNL     1       1.204  10.123  19.477  0.00  0.00    +0.000 A 
ATOM     22  C   UNL     1       1.253  11.309  18.720  0.00  0.00    +0.000 A 
ATOM     23  C   UNL     1       0.681  12.496  19.182  0.00  0.00    +0.000 A 
ATOM     24  C   UNL     1       0.024  12.520  20.406  0.00  0.00    +0.000 A 
ATOM     25  C   UNL     1      -0.052  11.361  21.172  0.00  0.00    +0.000 A 
ATOM     26  C   UNL     1       0.538  10.180  20.716  0.00  0.00    +0.000 A 
ENDBRANCH  18  21
ENDBRANCH   3  15
BRANCH   1  27
ATOM     27  C   UNL     1       7.474   4.887  18.316  0.00  0.00    +0.000 C 
ATOM     28  O   UNL     1       8.293   4.417  17.543  0.00  0.00    +0.000 OA
BRANCH  27  30
ATOM     29  C   UNL     1       8.454   5.360  20.390  0.00  0.00    +0.000 C 
ATOM     30  O   UNL     1       7.726   5.843  19.259  0.00  0.00    +0.000 OA
ENDBRANCH  27  30
ENDBRANCH   1  27
BRANCH   2  31
ATOM     31  C   UNL     1       5.683   6.111  16.270  0.00  0.00    +0.000 C 
ATOM     32  O   UNL     1       5.832   5.686  15.136  0.00  0.00    +0.000 OA
BRANCH  31  33
ATOM     33  O   UNL     1       5.859   7.395  16.653  0.00  0.00    +0.000 OA
ATOM     34  C   UNL     1       7.183   7.796  17.007  0.00  0.00    +0.000 C 
ENDBRANCH  31  33
ENDBRANCH   2  31
TORSDOF 6
ENDMDL
MODEL 8
REMARK VINA RESULT:      -7.7      1.000      1.601
REMARK  Name = 
REMARK  10 active torsions:
REMARK  status: ('A' for Active; 'I' for Inactive)
REMARK    1  A    between atoms: C_1  and  O_2
REMARK    2  A    between atoms: O_2  and  C_3
REMARK    3  A    between atoms: C_3  and  C_5
REMARK    4  A    between atoms: C_6  and  C_7
REMARK    5  A    between atoms: C_7  and  O_9
REMARK    6  A    between atoms: O_9  and  C_10
REMARK    7  A    between atoms: C_11  and  C_12
REMARK    8  A    between atoms: C_15  and  C_16
REMARK    9  A    between atoms: C_27  and  C_28
REMARK   10  A    between atoms: C_27  and  C_29
REMARK                            x       y       z     vdW  Elec       q    Type
REMARK                         _______ _______ _______ _____ _____    ______ ____
ROOT
ATOM      1  C   UNL     1       5.799   4.726  18.375  0.00  0.00    +0.000 C 
ATOM      2  C   UNL     1       5.117   5.581  17.580  0.00  0.00    +0.000 C 
ATOM      3  C   UNL     1       3.592   5.463  17.470  0.00  0.00    +0.000 C 
ATOM      4  C   UNL     1       3.042   4.175  18.069  0.00  0.00    +0.000 C 
ATOM      5  C   UNL     1       3.806   3.367  18.830  0.00  0.00    +0.000 C 
ATOM      6  C   UNL     1       3.250   2.161  19.552  0.00  0.00    +0.000 C 
ATOM      7  C   UNL     1       1.725   2.249  19.794  0.00  0.00    +0.000 C 
ATOM      8  C   UNL     1       1.397   3.299  20.879  0.00  0.00    +0.000 C 
ATOM      9  C   UNL     1       1.199   0.889  20.284  0.00  0.00    +0.000 C 
ATOM     10  C   UNL     1       1.031   2.606  18.470  0.00  0.00    +0.000 C 
ATOM     11  C   UNL     1       1.612   3.839  17.815  0.00  0.00    +0.000 C 
ATOM     12  O   UNL     1       0.943   4.500  17.022  0.00  0.00    +0.000 OA
ATOM     13  N   UNL     1       5.139   3.673  19.014  0.00  0.00    +0.000 N 
ATOM     14  H   UNL     1       5.743   3.005  19.492  0.00  0.00    +0.000 HD
ENDROOT
BRANCH   3  15
ATOM     15  C   UNL     1       2.909   6.656  18.145  0.00  0.00    +0.000 A 
ATOM     16  C   UNL     1       2.637   7.809  17.403  0.00  0.00    +0.000 A 
ATOM     17  C   UNL     1       2.068   8.926  18.014  0.00  0.00    +0.000 A 
ATOM     18  C   UNL     1       1.712   8.920  19.375  0.00  0.00    +0.000 A 
ATOM     19  C   UNL     1       1.969   7.746  20.103  0.00  0.00    +0.000 A 
ATOM     20  C   UNL     1       2.568   6.634  19.504  0.00  0.00    +0.000 A 
BRANCH  18  21
ATOM     21  C   UNL     1       1.083  10.097  20.006  0.00  0.00    +0.000 A 
ATOM     22  C   UNL     1       0.449   9.996  21.259  0.00  0.00    +0.000 A 
ATOM     23  C   UNL     1      -0.162  11.098  21.861  0.00  0.00    +0.000 A 
ATOM     24  C   UNL     1      -0.134  12.337  21.233  0.00  0.00    +0.000 A 
ATOM     25  C   UNL     1       0.496  12.472  19.999  0.00  0.00    +0.000 A 
ATOM     26  C   UNL     1       1.089  11.364  19.391  0.00  0.00    +0.000 A 
ENDBRANCH  18  21
ENDBRANCH   3  15
BRANCH   1  27
ATOM     27  C   UNL     1       7.262   4.903  18.688  0.00  0.00    +0.000 C 
ATOM     28  O   UNL     1       8.186   4.603  17.951  0.00  0.00    +0.000 OA
BRANCH  27  30
ATOM     29  C   UNL     1       8.554   5.311  20.599  0.00  0.00    +0.000 C 
ATOM     30  O   UNL     1       7.369   5.605  19.855  0.00  0.00    +0.000 OA
ENDBRANCH  27  30
ENDBRANCH   1  27
BRANCH   2  31
ATOM     31  C   UNL     1       5.788   6.601  16.729  0.00  0.00    +0.000 C 
ATOM     32  O   UNL     1       5.899   6.527  15.516  0.00  0.00    +0.000 OA
BRANCH  31  33
ATOM     33  O   UNL     1       6.160   7.658  17.486  0.00  0.00    +0.000 OA
ATOM     34  C   UNL     1       7.529   8.058  17.417  0.00  0.00    +0.000 C 
ENDBRANCH  31  33
ENDBRANCH   2  31
TORSDOF 6
ENDMDL
MODEL 9
REMARK VINA RESULT:      -7.4      4.776      9.420
REMARK  Name = 
REMARK  10 active torsions:
REMARK  status: ('A' for Active; 'I' for Inactive)
REMARK    1  A    between atoms: C_1  and  O_2
REMARK    2  A    between atoms: O_2  and  C_3
REMARK    3  A    between atoms: C_3  and  C_5
REMARK    4  A    between atoms: C_6  and  C_7
REMARK    5  A    between atoms: C_7  and  O_9
REMARK    6  A    between atoms: O_9  and  C_10
REMARK    7  A    between atoms: C_11  and  C_12
REMARK    8  A    between atoms: C_15  and  C_16
REMARK    9  A    between atoms: C_27  and  C_28
REMARK   10  A    between atoms: C_27  and  C_29
REMARK                            x       y       z     vdW  Elec       q    Type
REMARK                         _______ _______ _______ _____ _____    ______ ____
ROOT
ATOM      1  C   UNL     1       0.930  10.915  18.952  0.00  0.00    +0.000 C 
ATOM      2  C   UNL     1       0.561  10.783  20.246  0.00  0.00    +0.000 C 
ATOM      3  C   UNL     1       0.422  12.031  21.127  0.00  0.00    +0.000 C 
ATOM      4  C   UNL     1       1.010  13.285  20.494  0.00  0.00    +0.000 C 
ATOM      5  C   UNL     1       1.378  13.317  19.198  0.00  0.00    +0.000 C 
ATOM      6  C   UNL     1       1.830  14.583  18.509  0.00  0.00    +0.000 C 
ATOM      7  C   UNL     1       1.327  15.867  19.210  0.00  0.00    +0.000 C 
ATOM      8  C   UNL     1      -0.192  16.056  18.996  0.00  0.00    +0.000 C 
ATOM      9  C   UNL     1       2.040  17.095  18.617  0.00  0.00    +0.000 C 
ATOM     10  C   UNL     1       1.653  15.776  20.709  0.00  0.00    +0.000 C 
ATOM     11  C   UNL     1       1.147  14.501  21.345  0.00  0.00    +0.000 C 
ATOM     12  O   UNL     1       0.934  14.448  22.555  0.00  0.00    +0.000 OA
ATOM     13  N   UNL     1       1.287  12.166  18.441  0.00  0.00    +0.000 N 
ATOM     14  H   UNL     1       1.670  12.159  17.497  0.00  0.00    +0.000 HD
ENDROOT
BRANCH   3  15
ATOM     15  C   UNL     1      -1.049  12.290  21.468  0.00  0.00    +0.000 A 
ATOM     16  C   UNL     1      -1.513  12.048  22.764  0.00  0.00    +0.000 A 
ATOM     17  C   UNL     1      -2.860  12.223  23.078  0.00  0.00    +0.000 A 
ATOM     18  C   UNL     1      -3.784  12.683  22.123  0.00  0.00    +0.000 A 
ATOM     19  C   UNL     1      -3.300  12.945  20.830  0.00  0.00    +0.000 A 
ATOM     20  C   UNL     1      -1.957  12.741  20.501  0.00  0.00    +0.000 A 
BRANCH  18  21
ATOM     21  C   UNL     1      -5.204  12.894  22.472  0.00  0.00    +0.000 A 
ATOM     22  C   UNL     1      -5.572  13.440  23.716  0.00  0.00    +0.000 A 
ATOM     23  C   UNL     1      -6.910  13.631  24.064  0.00  0.00    +0.000 A 
ATOM     24  C   UNL     1      -7.917  13.299  23.166  0.00  0.00    +0.000 A 
ATOM     25  C   UNL     1      -7.584  12.768  21.923  0.00  0.00    +0.000 A 
ATOM     26  C   UNL     1      -6.245  12.560  21.585  0.00  0.00    +0.000 A 
ENDBRANCH  18  21
ENDBRANCH   3  15
BRANCH   1  27
ATOM     27  C   UNL     1       0.895   9.767  17.978  0.00  0.00    +0.000 C 
ATOM     28  O   UNL     1      -0.114   9.217  17.567  0.00  0.00    +0.000 OA
BRANCH  27  30
ATOM     29  C   UNL     1       2.681   8.262  17.806  0.00  0.00    +0.000 C 
ATOM     30  O   UNL     1       2.162   9.560  17.512  0.00  0.00    +0.000 OA
ENDBRANCH  27  30
ENDBRANCH   1  27
BRANCH   2  31
ATOM     31  C   UNL     1       0.352   9.460  20.895  0.00  0.00    +0.000 C 
ATOM     32  O   UNL     1      -0.739   8.960  21.112  0.00  0.00    +0.000 OA
BRANCH  31  33
ATOM     33  O   UNL     1       1.545   8.862  21.112  0.00  0.00    +0.000 OA
ATOM     34  C   UNL     1       1.588   7.438  21.013  0.00  0.00    +0.000 C 
ENDBRANCH  31  33
ENDBRANCH   2  31
TORSDOF 6
ENDMDL
