MODEL 1
REMARK VINA RESULT:      -7.1      0.000      0.000
REMARK  Name = 
REMARK  1 active torsions:
REMARK  status: ('A' for Active; 'I' for Inactive)
REMARK    1  A    between atoms: C_7  and  C_8
REMARK                            x       y       z     vdW  Elec       q    Type
REMARK                         _______ _______ _______ _____ _____    ______ ____
ROOT
ATOM      1  O   UNL     1       8.066   7.505  16.697  0.00  0.00    +0.000 OA
ATOM      2  C   UNL     1       7.214   6.628  16.786  0.00  0.00    +0.000 C 
ATOM      3  N   UNL     1       7.152   5.603  15.897  0.00  0.00    +0.000 N 
ATOM      4  C   UNL     1       6.265   4.564  15.910  0.00  0.00    +0.000 C 
ATOM      5  O   UNL     1       6.302   3.694  15.046  0.00  0.00    +0.000 OA
ATOM      6  C   UNL     1       5.279   4.577  17.022  0.00  0.00    +0.000 C 
ATOM      7  C   UNL     1       4.370   3.584  17.013  0.00  0.00    +0.000 C 
ATOM      8  C   UNL     1       5.350   5.666  18.033  0.00  0.00    +0.000 C 
ATOM      9  O   UNL     1       4.661   5.729  19.043  0.00  0.00    +0.000 OA
ATOM     10  N   UNL     1       6.292   6.626  17.784  0.00  0.00    +0.000 N 
ATOM     11  H   UNL     1       7.834   5.608  15.151  0.00  0.00    +0.000 HD
ATOM     12  H   UNL     1       6.361   7.370  18.465  0.00  0.00    +0.000 HD
ENDROOT
BRANCH   7  13
ATOM     13  C   UNL     1       3.311   3.455  17.949  0.00  0.00    +0.000 A 
ATOM     14  C   UNL     1       1.998   3.886  17.853  0.00  0.00    +0.000 A 
ATOM     15  C   UNL     1       1.244   3.625  19.038  0.00  0.00    +0.000 A 
ATOM     16  C   UNL     1       2.016   3.007  19.988  0.00  0.00    +0.000 A 
ATOM     17 BR   UNL     1       1.381   2.518  21.681  0.00  0.00    +0.000 Br
ATOM     18  S   UNL     1       3.611   2.743  19.489  0.00  0.00    +0.000 S 
ENDBRANCH   7  13
TORSDOF 1
ENDMDL
MODEL 2
REMARK VINA RESULT:      -7.0      1.707      2.559
REMARK  Name = 
REMARK  1 active torsions:
REMARK  status: ('A' for Active; 'I' for Inactive)
REMARK    1  A    between atoms: C_7  and  C_8
REMARK                            x       y       z     vdW  Elec       q    Type
REMARK                         _______ _______ _______ _____ _____    ______ ____
ROOT
ATOM      1  O   UNL     1       7.022   4.441  13.540  0.00  0.00    +0.000 OA
ATOM      2  C   UNL     1       6.635   4.702  14.674  0.00  0.00    +0.000 C 
ATOM      3  N   UNL     1       7.375   5.464  15.521  0.00  0.00    +0.000 N 
ATOM      4  C   UNL     1       7.036   5.833  16.791  0.00  0.00    +0.000 C 
ATOM      5  O   UNL     1       7.792   6.522  17.469  0.00  0.00    +0.000 OA
ATOM      6  C   UNL     1       5.717   5.344  17.272  0.00  0.00    +0.000 C 
ATOM      7  C   UNL     1       5.399   5.663  18.541  0.00  0.00    +0.000 C 
ATOM      8  C   UNL     1       4.869   4.543  16.350  0.00  0.00    +0.000 C 
ATOM      9  O   UNL     1       3.728   4.171  16.595  0.00  0.00    +0.000 OA
ATOM     10  N   UNL     1       5.440   4.254  15.142  0.00  0.00    +0.000 N 
ATOM     11  H   UNL     1       8.265   5.791  15.175  0.00  0.00    +0.000 HD
ATOM     12  H   UNL     1       4.875   3.717  14.498  0.00  0.00    +0.000 HD
ENDROOT
BRANCH   7  13
ATOM     13  C   UNL     1       4.217   5.240  19.204  0.00  0.00    +0.000 A 
ATOM     14  C   UNL     1       3.062   5.954  19.477  0.00  0.00    +0.000 A 
ATOM     15  C   UNL     1       2.109   5.195  20.225  0.00  0.00    +0.000 A 
ATOM     16  C   UNL     1       2.581   3.936  20.490  0.00  0.00    +0.000 A 
ATOM     17 BR   UNL     1       1.620   2.654  21.460  0.00  0.00    +0.000 Br
ATOM     18  S   UNL     1       4.129   3.654  19.869  0.00  0.00    +0.000 S 
ENDBRANCH   7  13
TORSDOF 1
ENDMDL
MODEL 3
REMARK VINA RESULT:      -6.8      4.138      6.124
REMARK  Name = 
REMARK  1 active torsions:
REMARK  status: ('A' for Active; 'I' for Inactive)
REMARK    1  A    between atoms: C_7  and  C_8
REMARK                            x       y       z     vdW  Elec       q    Type
REMARK                         _______ _______ _______ _____ _____    ______ ____
ROOT
ATOM      1  O   UNL     1       1.774   2.236  22.155  0.00  0.00    +0.000 OA
ATOM      2  C   UNL     1       2.285   3.044  21.386  0.00  0.00    +0.000 C 
ATOM      3  N   UNL     1       1.811   4.311  21.266  0.00  0.00    +0.000 N 
ATOM      4  C   UNL     1       2.311   5.295  20.463  0.00  0.00    +0.000 C 
ATOM      5  O   UNL     1       1.793   6.407  20.433  0.00  0.00    +0.000 OA
ATOM      6  C   UNL     1       3.498   4.919  19.650  0.00  0.00    +0.000 C 
ATOM      7  C   UNL     1       3.966   5.870  18.819  0.00  0.00    +0.000 C 
ATOM      8  C   UNL     1       4.062   3.551  19.793  0.00  0.00    +0.000 C 
ATOM      9  O   UNL     1       5.090   3.159  19.255  0.00  0.00    +0.000 OA
ATOM     10  N   UNL     1       3.361   2.720  20.621  0.00  0.00    +0.000 N 
ATOM     11  H   UNL     1       1.008   4.549  21.830  0.00  0.00    +0.000 HD
ATOM     12  H   UNL     1       3.734   1.787  20.738  0.00  0.00    +0.000 HD
ENDROOT
BRANCH   7  13
ATOM     13  C   UNL     1       5.048   5.688  17.918  0.00  0.00    +0.000 A 
ATOM     14  C   UNL     1       6.383   6.019  18.074  0.00  0.00    +0.000 A 
ATOM     15  C   UNL     1       7.161   5.735  16.910  0.00  0.00    +0.000 A 
ATOM     16  C   UNL     1       6.384   5.200  15.916  0.00  0.00    +0.000 A 
ATOM     17 BR   UNL     1       7.046   4.709  14.234  0.00  0.00    +0.000 Br
ATOM     18  S   UNL     1       4.756   5.040  16.349  0.00  0.00    +0.000 S 
ENDBRANCH   7  13
TORSDOF 1
ENDMDL
MODEL 4
REMARK VINA RESULT:      -6.7      4.137      5.741
REMARK  Name = 
REMARK  1 active torsions:
REMARK  status: ('A' for Active; 'I' for Inactive)
REMARK    1  A    between atoms: C_7  and  C_8
REMARK                            x       y       z     vdW  Elec       q    Type
REMARK                         _______ _______ _______ _____ _____    ______ ____
ROOT
ATOM      1  O   UNL     1       1.170   2.651  22.134  0.00  0.00    +0.000 OA
ATOM      2  C   UNL     1       1.920   2.924  21.202  0.00  0.00    +0.000 C 
ATOM      3  N   UNL     1       2.339   1.975  20.325  0.00  0.00    +0.000 N 
ATOM      4  C   UNL     1       3.151   2.166  19.244  0.00  0.00    +0.000 C 
ATOM      5  O   UNL     1       3.470   1.226  18.522  0.00  0.00    +0.000 OA
ATOM      6  C   UNL     1       3.607   3.564  19.023  0.00  0.00    +0.000 C 
ATOM      7  C   UNL     1       4.449   3.751  17.988  0.00  0.00    +0.000 C 
ATOM      8  C   UNL     1       3.129   4.629  19.944  0.00  0.00    +0.000 C 
ATOM      9  O   UNL     1       3.353   5.825  19.806  0.00  0.00    +0.000 OA
ATOM     10  N   UNL     1       2.362   4.191  20.987  0.00  0.00    +0.000 N 
ATOM     11  H   UNL     1       2.015   1.032  20.488  0.00  0.00    +0.000 HD
ATOM     12  H   UNL     1       2.021   4.902  21.620  0.00  0.00    +0.000 HD
ENDROOT
BRANCH   7  13
ATOM     13  C   UNL     1       5.042   4.995  17.650  0.00  0.00    +0.000 A 
ATOM     14  C   UNL     1       4.666   5.912  16.684  0.00  0.00    +0.000 A 
ATOM     15  C   UNL     1       5.558   7.025  16.602  0.00  0.00    +0.000 A 
ATOM     16  C   UNL     1       6.578   6.907  17.510  0.00  0.00    +0.000 A 
ATOM     17 BR   UNL     1       7.953   8.166  17.693  0.00  0.00    +0.000 Br
ATOM     18  S   UNL     1       6.486   5.499  18.443  0.00  0.00    +0.000 S 
ENDBRANCH   7  13
TORSDOF 1
ENDMDL
MODEL 5
REMARK VINA RESULT:      -6.6      1.829      2.749
REMARK  Name = 
REMARK  1 active torsions:
REMARK  status: ('A' for Active; 'I' for Inactive)
REMARK    1  A    between atoms: C_7  and  C_8
REMARK                            x       y       z     vdW  Elec       q    Type
REMARK                         _______ _______ _______ _____ _____    ______ ____
ROOT
ATOM      1  O   UNL     1       7.160   4.751  13.231  0.00  0.00    +0.000 OA
ATOM      2  C   UNL     1       6.830   4.800  14.411  0.00  0.00    +0.000 C 
ATOM      3  N   UNL     1       7.454   5.626  15.291  0.00  0.00    +0.000 N 
ATOM      4  C   UNL     1       7.158   5.779  16.615  0.00  0.00    +0.000 C 
ATOM      5  O   UNL     1       7.798   6.555  17.317  0.00  0.00    +0.000 OA
ATOM      6  C   UNL     1       6.033   4.949  17.121  0.00  0.00    +0.000 C 
ATOM      7  C   UNL     1       5.769   5.057  18.437  0.00  0.00    +0.000 C 
ATOM      8  C   UNL     1       5.307   4.067  16.170  0.00  0.00    +0.000 C 
ATOM      9  O   UNL     1       4.307   3.416  16.444  0.00  0.00    +0.000 OA
ATOM     10  N   UNL     1       5.815   4.041  14.901  0.00  0.00    +0.000 N 
ATOM     11  H   UNL     1       8.212   6.186  14.927  0.00  0.00    +0.000 HD
ATOM     12  H   UNL     1       5.330   3.453  14.237  0.00  0.00    +0.000 HD
ENDROOT
BRANCH   7  13
ATOM     13  C   UNL     1       4.778   4.306  19.123  0.00  0.00    +0.000 A 
ATOM     14  C   UNL     1       4.859   3.031  19.656  0.00  0.00    +0.000 A 
ATOM     15  C   UNL     1       3.621   2.589  20.218  0.00  0.00    +0.000 A 
ATOM     16  C   UNL     1       2.651   3.548  20.087  0.00  0.00    +0.000 A 
ATOM     17 BR   UNL     1       0.891   3.330  20.693  0.00  0.00    +0.000 Br
ATOM     18  S   UNL     1       3.191   4.949  19.308  0.00  0.00    +0.000 S 
ENDBRANCH   7  13
TORSDOF 1
ENDMDL
MODEL 6
REMARK VINA RESULT:      -6.6      1.622      1.721
REMARK  Name = 
REMARK  1 active torsions:
REMARK  status: ('A' for Active; 'I' for Inactive)
REMARK    1  A    between atoms: C_7  and  C_8
REMARK                            x       y       z     vdW  Elec       q    Type
REMARK                         _______ _______ _______ _____ _____    ______ ____
ROOT
ATOM      1  O   UNL     1       8.559   8.003  17.952  0.00  0.00    +0.000 OA
ATOM      2  C   UNL     1       7.563   7.301  17.812  0.00  0.00    +0.000 C 
ATOM      3  N   UNL     1       6.782   7.387  16.704  0.00  0.00    +0.000 N 
ATOM      4  C   UNL     1       5.668   6.645  16.433  0.00  0.00    +0.000 C 
ATOM      5  O   UNL     1       5.036   6.816  15.395  0.00  0.00    +0.000 OA
ATOM      6  C   UNL     1       5.295   5.646  17.468  0.00  0.00    +0.000 C 
ATOM      7  C   UNL     1       4.169   4.945  17.230  0.00  0.00    +0.000 C 
ATOM      8  C   UNL     1       6.156   5.502  18.671  0.00  0.00    +0.000 C 
ATOM      9  O   UNL     1       6.009   4.652  19.540  0.00  0.00    +0.000 OA
ATOM     10  N   UNL     1       7.192   6.391  18.751  0.00  0.00    +0.000 N 
ATOM     11  H   UNL     1       7.055   8.068  16.010  0.00  0.00    +0.000 HD
ATOM     12  H   UNL     1       7.794   6.304  19.559  0.00  0.00    +0.000 HD
ENDROOT
BRANCH   7  13
ATOM     13  C   UNL     1       3.613   3.992  18.122  0.00  0.00    +0.000 A 
ATOM     14  C   UNL     1       3.581   2.611  18.021  0.00  0.00    +0.000 A 
ATOM     15  C   UNL     1       2.869   1.996  19.096  0.00  0.00    +0.000 A 
ATOM     16  C   UNL     1       2.388   2.936  19.970  0.00  0.00    +0.000 A 
ATOM     17 BR   UNL     1       1.391   2.514  21.499  0.00  0.00    +0.000 Br
ATOM     18  S   UNL     1       2.767   4.523  19.525  0.00  0.00    +0.000 S 
ENDBRANCH   7  13
TORSDOF 1
ENDMDL
MODEL 7
REMARK VINA RESULT:      -6.6      1.853      2.482
REMARK  Name = 
REMARK  1 active torsions:
REMARK  status: ('A' for Active; 'I' for Inactive)
REMARK    1  A    between atoms: C_7  and  C_8
REMARK                            x       y       z     vdW  Elec       q    Type
REMARK                         _______ _______ _______ _____ _____    ______ ____
ROOT
ATOM      1  O   UNL     1       8.062   8.800  17.169  0.00  0.00    +0.000 OA
ATOM      2  C   UNL     1       7.532   7.774  17.582  0.00  0.00    +0.000 C 
ATOM      3  N   UNL     1       8.138   6.981  18.504  0.00  0.00    +0.000 N 
ATOM      4  C   UNL     1       7.636   5.834  19.048  0.00  0.00    +0.000 C 
ATOM      5  O   UNL     1       8.281   5.194  19.873  0.00  0.00    +0.000 OA
ATOM      6  C   UNL     1       6.286   5.435  18.571  0.00  0.00    +0.000 C 
ATOM      7  C   UNL     1       5.806   4.278  19.066  0.00  0.00    +0.000 C 
ATOM      8  C   UNL     1       5.583   6.306  17.593  0.00  0.00    +0.000 C 
ATOM      9  O   UNL     1       4.435   6.137  17.203  0.00  0.00    +0.000 OA
ATOM     10  N   UNL     1       6.305   7.379  17.149  0.00  0.00    +0.000 N 
ATOM     11  H   UNL     1       9.052   7.272  18.820  0.00  0.00    +0.000 HD
ATOM     12  H   UNL     1       5.841   7.989  16.490  0.00  0.00    +0.000 HD
ENDROOT
BRANCH   7  13
ATOM     13  C   UNL     1       4.568   3.695  18.689  0.00  0.00    +0.000 A 
ATOM     14  C   UNL     1       4.236   3.015  17.530  0.00  0.00    +0.000 A 
ATOM     15  C   UNL     1       2.860   2.630  17.491  0.00  0.00    +0.000 A 
ATOM     16  C   UNL     1       2.203   3.036  18.623  0.00  0.00    +0.000 A 
ATOM     17 BR   UNL     1       0.381   2.725  18.931  0.00  0.00    +0.000 Br
ATOM     18  S   UNL     1       3.195   3.863  19.716  0.00  0.00    +0.000 S 
ENDBRANCH   7  13
TORSDOF 1
ENDMDL
MODEL 8
REMARK VINA RESULT:      -6.4      3.970      5.727
REMARK  Name = 
REMARK  1 active torsions:
REMARK  status: ('A' for Active; 'I' for Inactive)
REMARK    1  A    between atoms: C_7  and  C_8
REMARK                            x       y       z     vdW  Elec       q    Type
REMARK                         _______ _______ _______ _____ _____    ______ ____
ROOT
ATOM      1  O   UNL     1      -0.112   2.460  19.156  0.00  0.00    +0.000 OA
ATOM      2  C   UNL     1       1.044   2.685  18.816  0.00  0.00    +0.000 C 
ATOM      3  N   UNL     1       1.982   1.702  18.787  0.00  0.00    +0.000 N 
ATOM      4  C   UNL     1       3.287   1.832  18.407  0.00  0.00    +0.000 C 
ATOM      5  O   UNL     1       4.047   0.869  18.428  0.00  0.00    +0.000 OA
ATOM      6  C   UNL     1       3.699   3.196  17.984  0.00  0.00    +0.000 C 
ATOM      7  C   UNL     1       4.998   3.342  17.656  0.00  0.00    +0.000 C 
ATOM      8  C   UNL     1       2.683   4.281  17.967  0.00  0.00    +0.000 C 
ATOM      9  O   UNL     1       2.876   5.414  17.546  0.00  0.00    +0.000 OA
ATOM     10  N   UNL     1       1.450   3.926  18.439  0.00  0.00    +0.000 N 
ATOM     11  H   UNL     1       1.681   0.781  19.073  0.00  0.00    +0.000 HD
ATOM     12  H   UNL     1       0.743   4.649  18.428  0.00  0.00    +0.000 HD
ENDROOT
BRANCH   7  13
ATOM     13  C   UNL     1       5.599   4.574  17.287  0.00  0.00    +0.000 A 
ATOM     14  C   UNL     1       5.739   5.139  16.030  0.00  0.00    +0.000 A 
ATOM     15  C   UNL     1       6.464   6.369  16.057  0.00  0.00    +0.000 A 
ATOM     16  C   UNL     1       6.848   6.688  17.334  0.00  0.00    +0.000 A 
ATOM     17 BR   UNL     1       7.829   8.224  17.767  0.00  0.00    +0.000 Br
ATOM     18  S   UNL     1       6.362   5.548  18.485  0.00  0.00    +0.000 S 
ENDBRANCH   7  13
TORSDOF 1
ENDMDL
MODEL 9
REMARK VINA RESULT:      -6.4      3.957      5.709
REMARK  Name = 
REMARK  1 active torsions:
REMARK  status: ('A' for Active; 'I' for Inactive)
REMARK    1  A    between atoms: C_7  and  C_8
REMARK                            x       y       z     vdW  Elec       q    Type
REMARK                         _______ _______ _______ _____ _____    ______ ____
ROOT
ATOM      1  O   UNL     1       0.452   3.188  20.485  0.00  0.00    +0.000 OA
ATOM      2  C   UNL     1       1.387   3.472  19.744  0.00  0.00    +0.000 C 
ATOM      3  N   UNL     1       1.460   2.993  18.475  0.00  0.00    +0.000 N 
ATOM      4  C   UNL     1       2.438   3.257  17.559  0.00  0.00    +0.000 C 
ATOM      5  O   UNL     1       2.402   2.759  16.438  0.00  0.00    +0.000 OA
ATOM      6  C   UNL     1       3.518   4.169  18.019  0.00  0.00    +0.000 C 
ATOM      7  C   UNL     1       4.512   4.395  17.138  0.00  0.00    +0.000 C 
ATOM      8  C   UNL     1       3.441   4.741  19.389  0.00  0.00    +0.000 C 
ATOM      9  O   UNL     1       4.212   5.575  19.844  0.00  0.00    +0.000 OA
ATOM     10  N   UNL     1       2.395   4.291  20.146  0.00  0.00    +0.000 N 
ATOM     11  H   UNL     1       0.714   2.379  18.179  0.00  0.00    +0.000 HD
ATOM     12  H   UNL     1       2.320   4.674  21.078  0.00  0.00    +0.000 HD
ENDROOT
BRANCH   7  13
ATOM     13  C   UNL     1       5.661   5.183  17.408  0.00  0.00    +0.000 A 
ATOM     14  C   UNL     1       6.861   4.812  17.990  0.00  0.00    +0.000 A 
ATOM     15  C   UNL     1       7.759   5.912  18.151  0.00  0.00    +0.000 A 
ATOM     16  C   UNL     1       7.203   7.074  17.684  0.00  0.00    +0.000 A 
ATOM     17 BR   UNL     1       8.074   8.732  17.735  0.00  0.00    +0.000 Br
ATOM     18  S   UNL     1       5.640   6.871  17.069  0.00  0.00    +0.000 S 
ENDBRANCH   7  13
TORSDOF 1
ENDMDL
