MODEL 1
REMARK VINA RESULT:      -4.4      0.000      0.000
REMARK  Name = 
REMARK  7 active torsions:
REMARK  status: ('A' for Active; 'I' for Inactive)
REMARK    1  A    between atoms: C_1  and  C_2
REMARK    2  A    between atoms: C_2  and  C_3
REMARK    3  A    between atoms: C_2  and  C_4
REMARK    4  A    between atoms: C_4  and  N_5
REMARK    5  A    between atoms: N_5  and  C_6
REMARK    6  A    between atoms: C_6  and  C_7
REMARK    7  A    between atoms: C_7  and  O_8
REMARK                            x       y       z     vdW  Elec       q    Type
REMARK                         _______ _______ _______ _____ _____    ______ ____
ROOT
ATOM      1  N   UNL     1       5.613   4.972  16.659  0.00  0.00    +0.000 N 
ATOM      2  C   UNL     1       5.581   5.171  15.193  0.00  0.00    +0.000 C 
ATOM      3  C   UNL     1       6.722   4.442  15.850  0.00  0.00    +0.000 C 
ENDROOT
BRANCH   1   4
ATOM      4  C   UNL     1       5.874   6.207  17.489  0.00  0.00    +0.000 C 
BRANCH   4   6
ATOM      5  C   UNL     1       7.731   7.967  17.626  0.00  0.00    +0.000 C 
ATOM      6  C   UNL     1       7.375   6.486  17.678  0.00  0.00    +0.000 C 
ATOM      7  C   UNL     1       7.821   5.917  19.026  0.00  0.00    +0.000 C 
ENDBRANCH   4   6
ENDBRANCH   1   4
BRANCH   1   8
ATOM      8  C   UNL     1       4.606   3.965  17.187  0.00  0.00    +0.000 C 
BRANCH   8   9
ATOM      9  C   UNL     1       4.478   4.044  18.709  0.00  0.00    +0.000 C 
BRANCH   9  10
ATOM     10  O   UNL     1       5.475   3.211  19.304  0.00  0.00    +0.000 OA
ATOM     11  H   UNL     1       5.216   2.293  19.106  0.00  0.00    +0.000 HD
ENDBRANCH   9  10
ENDBRANCH   8   9
ENDBRANCH   1   8
TORSDOF 5
ENDMDL
MODEL 2
REMARK VINA RESULT:      -4.1      2.673      5.104
REMARK  Name = 
REMARK  7 active torsions:
REMARK  status: ('A' for Active; 'I' for Inactive)
REMARK    1  A    between atoms: C_1  and  C_2
REMARK    2  A    between atoms: C_2  and  C_3
REMARK    3  A    between atoms: C_2  and  C_4
REMARK    4  A    between atoms: C_4  and  N_5
REMARK    5  A    between atoms: N_5  and  C_6
REMARK    6  A    between atoms: C_6  and  C_7
REMARK    7  A    between atoms: C_7  and  O_8
REMARK                            x       y       z     vdW  Elec       q    Type
REMARK                         _______ _______ _______ _____ _____    ______ ____
ROOT
ATOM      1  N   UNL     1       3.846   4.484  18.992  0.00  0.00    +0.000 N 
ATOM      2  C   UNL     1       3.326   5.013  17.712  0.00  0.00    +0.000 C 
ATOM      3  C   UNL     1       3.019   5.702  19.014  0.00  0.00    +0.000 C 
ENDROOT
BRANCH   1   4
ATOM      4  C   UNL     1       3.222   3.199  19.481  0.00  0.00    +0.000 C 
BRANCH   4   6
ATOM      5  C   UNL     1       0.873   2.427  18.805  0.00  0.00    +0.000 C 
ATOM      6  C   UNL     1       1.706   3.328  19.710  0.00  0.00    +0.000 C 
ATOM      7  C   UNL     1       1.392   2.990  21.169  0.00  0.00    +0.000 C 
ENDBRANCH   4   6
ENDBRANCH   1   4
BRANCH   1   8
ATOM      8  C   UNL     1       5.340   4.667  19.196  0.00  0.00    +0.000 C 
BRANCH   8   9
ATOM      9  C   UNL     1       6.094   4.646  17.865  0.00  0.00    +0.000 C 
BRANCH   9  10
ATOM     10  O   UNL     1       7.433   4.202  18.094  0.00  0.00    +0.000 OA
ATOM     11  H   UNL     1       7.362   3.307  18.473  0.00  0.00    +0.000 HD
ENDBRANCH   9  10
ENDBRANCH   8   9
ENDBRANCH   1   8
TORSDOF 5
ENDMDL
MODEL 3
REMARK VINA RESULT:      -4.1      2.936      4.259
REMARK  Name = 
REMARK  7 active torsions:
REMARK  status: ('A' for Active; 'I' for Inactive)
REMARK    1  A    between atoms: C_1  and  C_2
REMARK    2  A    between atoms: C_2  and  C_3
REMARK    3  A    between atoms: C_2  and  C_4
REMARK    4  A    between atoms: C_4  and  N_5
REMARK    5  A    between atoms: N_5  and  C_6
REMARK    6  A    between atoms: C_6  and  C_7
REMARK    7  A    between atoms: C_7  and  O_8
REMARK                            x       y       z     vdW  Elec       q    Type
REMARK                         _______ _______ _______ _____ _____    ______ ____
ROOT
ATOM      1  N   UNL     1       2.254   3.457  18.700  0.00  0.00    +0.000 N 
ATOM      2  C   UNL     1       1.107   2.522  18.695  0.00  0.00    +0.000 C 
ATOM      3  C   UNL     1       2.331   2.248  17.864  0.00  0.00    +0.000 C 
ENDROOT
BRANCH   1   4
ATOM      4  C   UNL     1       2.033   4.780  18.007  0.00  0.00    +0.000 C 
BRANCH   4   6
ATOM      5  C   UNL     1       4.298   5.603  17.135  0.00  0.00    +0.000 C 
ATOM      6  C   UNL     1       3.213   5.750  18.195  0.00  0.00    +0.000 C 
ATOM      7  C   UNL     1       2.686   7.186  18.168  0.00  0.00    +0.000 C 
ENDBRANCH   4   6
ENDBRANCH   1   4
BRANCH   1   8
ATOM      8  C   UNL     1       3.068   3.457  19.983  0.00  0.00    +0.000 C 
BRANCH   8   9
ATOM      9  C   UNL     1       4.198   2.428  19.930  0.00  0.00    +0.000 C 
BRANCH   9  10
ATOM     10  O   UNL     1       5.379   3.058  19.427  0.00  0.00    +0.000 OA
ATOM     11  H   UNL     1       5.444   2.804  18.489  0.00  0.00    +0.000 HD
ENDBRANCH   9  10
ENDBRANCH   8   9
ENDBRANCH   1   8
TORSDOF 5
ENDMDL
MODEL 4
REMARK VINA RESULT:      -4.1      1.958      3.134
REMARK  Name = 
REMARK  7 active torsions:
REMARK  status: ('A' for Active; 'I' for Inactive)
REMARK    1  A    between atoms: C_1  and  C_2
REMARK    2  A    between atoms: C_2  and  C_3
REMARK    3  A    between atoms: C_2  and  C_4
REMARK    4  A    between atoms: C_4  and  N_5
REMARK    5  A    between atoms: N_5  and  C_6
REMARK    6  A    between atoms: C_6  and  C_7
REMARK    7  A    between atoms: C_7  and  O_8
REMARK                            x       y       z     vdW  Elec       q    Type
REMARK                         _______ _______ _______ _____ _____    ______ ____
ROOT
ATOM      1  N   UNL     1       4.064   4.598  18.030  0.00  0.00    +0.000 N 
ATOM      2  C   UNL     1       4.248   5.368  19.280  0.00  0.00    +0.000 C 
ATOM      3  C   UNL     1       2.935   5.390  18.546  0.00  0.00    +0.000 C 
ENDROOT
BRANCH   1   4
ATOM      4  C   UNL     1       4.795   5.122  16.816  0.00  0.00    +0.000 C 
BRANCH   4   6
ATOM      5  C   UNL     1       5.980   4.087  14.793  0.00  0.00    +0.000 C 
ATOM      6  C   UNL     1       5.877   4.150  16.313  0.00  0.00    +0.000 C 
ATOM      7  C   UNL     1       7.231   4.574  16.884  0.00  0.00    +0.000 C 
ENDBRANCH   4   6
ENDBRANCH   1   4
BRANCH   1   8
ATOM      8  C   UNL     1       3.987   3.093  18.214  0.00  0.00    +0.000 C 
BRANCH   8   9
ATOM      9  C   UNL     1       4.009   2.708  19.694  0.00  0.00    +0.000 C 
BRANCH   9  10
ATOM     10  O   UNL     1       5.128   1.852  19.936  0.00  0.00    +0.000 OA
ATOM     11  H   UNL     1       5.565   2.195  20.737  0.00  0.00    +0.000 HD
ENDBRANCH   9  10
ENDBRANCH   8   9
ENDBRANCH   1   8
TORSDOF 5
ENDMDL
MODEL 5
REMARK VINA RESULT:      -4.1      1.715      3.508
REMARK  Name = 
REMARK  7 active torsions:
REMARK  status: ('A' for Active; 'I' for Inactive)
REMARK    1  A    between atoms: C_1  and  C_2
REMARK    2  A    between atoms: C_2  and  C_3
REMARK    3  A    between atoms: C_2  and  C_4
REMARK    4  A    between atoms: C_4  and  N_5
REMARK    5  A    between atoms: N_5  and  C_6
REMARK    6  A    between atoms: C_6  and  C_7
REMARK    7  A    between atoms: C_7  and  O_8
REMARK                            x       y       z     vdW  Elec       q    Type
REMARK                         _______ _______ _______ _____ _____    ______ ____
ROOT
ATOM      1  N   UNL     1       6.119   4.618  17.339  0.00  0.00    +0.000 N 
ATOM      2  C   UNL     1       6.127   4.070  15.964  0.00  0.00    +0.000 C 
ATOM      3  C   UNL     1       5.853   5.529  16.213  0.00  0.00    +0.000 C 
ENDROOT
BRANCH   1   4
ATOM      4  C   UNL     1       4.951   4.213  18.207  0.00  0.00    +0.000 C 
BRANCH   4   6
ATOM      5  C   UNL     1       2.450   4.103  17.659  0.00  0.00    +0.000 C 
ATOM      6  C   UNL     1       3.668   4.994  17.875  0.00  0.00    +0.000 C 
ATOM      7  C   UNL     1       3.371   5.970  19.015  0.00  0.00    +0.000 C 
ENDBRANCH   4   6
ENDBRANCH   1   4
BRANCH   1   8
ATOM      8  C   UNL     1       7.486   4.715  17.993  0.00  0.00    +0.000 C 
BRANCH   8   9
ATOM      9  C   UNL     1       7.572   5.914  18.938  0.00  0.00    +0.000 C 
BRANCH   9  10
ATOM     10  O   UNL     1       7.825   5.445  20.264  0.00  0.00    +0.000 OA
ATOM     11  H   UNL     1       7.151   4.765  20.445  0.00  0.00    +0.000 HD
ENDBRANCH   9  10
ENDBRANCH   8   9
ENDBRANCH   1   8
TORSDOF 5
ENDMDL
MODEL 6
REMARK VINA RESULT:      -4.1      1.701      3.903
REMARK  Name = 
REMARK  7 active torsions:
REMARK  status: ('A' for Active; 'I' for Inactive)
REMARK    1  A    between atoms: C_1  and  C_2
REMARK    2  A    between atoms: C_2  and  C_3
REMARK    3  A    between atoms: C_2  and  C_4
REMARK    4  A    between atoms: C_4  and  N_5
REMARK    5  A    between atoms: N_5  and  C_6
REMARK    6  A    between atoms: C_6  and  C_7
REMARK    7  A    between atoms: C_7  and  O_8
REMARK                            x       y       z     vdW  Elec       q    Type
REMARK                         _______ _______ _______ _____ _____    ______ ____
ROOT
ATOM      1  N   UNL     1       5.718   5.319  17.647  0.00  0.00    +0.000 N 
ATOM      2  C   UNL     1       5.505   5.416  16.186  0.00  0.00    +0.000 C 
ATOM      3  C   UNL     1       5.553   6.651  17.043  0.00  0.00    +0.000 C 
ENDROOT
BRANCH   1   4
ATOM      4  C   UNL     1       4.566   4.761  18.449  0.00  0.00    +0.000 C 
BRANCH   4   6
ATOM      5  C   UNL     1       3.415   2.571  17.781  0.00  0.00    +0.000 C 
ATOM      6  C   UNL     1       3.507   4.078  17.567  0.00  0.00    +0.000 C 
ATOM      7  C   UNL     1       2.141   4.703  17.855  0.00  0.00    +0.000 C 
ENDBRANCH   4   6
ENDBRANCH   1   4
BRANCH   1   8
ATOM      8  C   UNL     1       7.125   4.922  18.059  0.00  0.00    +0.000 C 
BRANCH   8   9
ATOM      9  C   UNL     1       7.761   5.974  18.969  0.00  0.00    +0.000 C 
BRANCH   9  10
ATOM     10  O   UNL     1       7.827   5.460  20.301  0.00  0.00    +0.000 OA
ATOM     11  H   UNL     1       7.297   4.642  20.303  0.00  0.00    +0.000 HD
ENDBRANCH   9  10
ENDBRANCH   8   9
ENDBRANCH   1   8
TORSDOF 5
ENDMDL
MODEL 7
REMARK VINA RESULT:      -4.1      2.296      3.400
REMARK  Name = 
REMARK  7 active torsions:
REMARK  status: ('A' for Active; 'I' for Inactive)
REMARK    1  A    between atoms: C_1  and  C_2
REMARK    2  A    between atoms: C_2  and  C_3
REMARK    3  A    between atoms: C_2  and  C_4
REMARK    4  A    between atoms: C_4  and  N_5
REMARK    5  A    between atoms: N_5  and  C_6
REMARK    6  A    between atoms: C_6  and  C_7
REMARK    7  A    between atoms: C_7  and  O_8
REMARK                            x       y       z     vdW  Elec       q    Type
REMARK                         _______ _______ _______ _____ _____    ______ ____
ROOT
ATOM      1  N   UNL     1       4.257   4.259  18.697  0.00  0.00    +0.000 N 
ATOM      2  C   UNL     1       3.726   5.375  19.510  0.00  0.00    +0.000 C 
ATOM      3  C   UNL     1       2.958   4.846  18.329  0.00  0.00    +0.000 C 
ENDROOT
BRANCH   1   4
ATOM      4  C   UNL     1       5.448   4.581  17.826  0.00  0.00    +0.000 C 
BRANCH   4   6
ATOM      5  C   UNL     1       5.258   6.166  15.821  0.00  0.00    +0.000 C 
ATOM      6  C   UNL     1       5.070   4.746  16.344  0.00  0.00    +0.000 C 
ATOM      7  C   UNL     1       5.920   3.792  15.504  0.00  0.00    +0.000 C 
ENDBRANCH   4   6
ENDBRANCH   1   4
BRANCH   1   8
ATOM      8  C   UNL     1       4.228   2.903  19.382  0.00  0.00    +0.000 C 
BRANCH   8   9
ATOM      9  C   UNL     1       3.516   1.857  18.524  0.00  0.00    +0.000 C 
BRANCH   9  10
ATOM     10  O   UNL     1       4.326   0.682  18.453  0.00  0.00    +0.000 OA
ATOM     11  H   UNL     1       4.702   0.664  17.554  0.00  0.00    +0.000 HD
ENDBRANCH   9  10
ENDBRANCH   8   9
ENDBRANCH   1   8
TORSDOF 5
ENDMDL
MODEL 8
REMARK VINA RESULT:      -4.1      2.719      5.129
REMARK  Name = 
REMARK  7 active torsions:
REMARK  status: ('A' for Active; 'I' for Inactive)
REMARK    1  A    between atoms: C_1  and  C_2
REMARK    2  A    between atoms: C_2  and  C_3
REMARK    3  A    between atoms: C_2  and  C_4
REMARK    4  A    between atoms: C_4  and  N_5
REMARK    5  A    between atoms: N_5  and  C_6
REMARK    6  A    between atoms: C_6  and  C_7
REMARK    7  A    between atoms: C_7  and  O_8
REMARK                            x       y       z     vdW  Elec       q    Type
REMARK                         _______ _______ _______ _____ _____    ______ ____
ROOT
ATOM      1  N   UNL     1       3.894   3.898  18.744  0.00  0.00    +0.000 N 
ATOM      2  C   UNL     1       3.649   5.329  19.028  0.00  0.00    +0.000 C 
ATOM      3  C   UNL     1       5.009   4.721  19.237  0.00  0.00    +0.000 C 
ENDROOT
BRANCH   1   4
ATOM      4  C   UNL     1       3.266   2.915  19.704  0.00  0.00    +0.000 C 
BRANCH   4   6
ATOM      5  C   UNL     1       0.820   2.557  19.028  0.00  0.00    +0.000 C 
ATOM      6  C   UNL     1       1.788   3.231  19.993  0.00  0.00    +0.000 C 
ATOM      7  C   UNL     1       1.454   2.789  21.419  0.00  0.00    +0.000 C 
ENDBRANCH   4   6
ENDBRANCH   1   4
BRANCH   1   8
ATOM      8  C   UNL     1       3.907   3.535  17.269  0.00  0.00    +0.000 C 
BRANCH   8   9
ATOM      9  C   UNL     1       5.003   4.291  16.516  0.00  0.00    +0.000 C 
BRANCH   9  10
ATOM     10  O   UNL     1       5.959   3.353  16.019  0.00  0.00    +0.000 OA
ATOM     11  H   UNL     1       5.960   2.607  16.646  0.00  0.00    +0.000 HD
ENDBRANCH   9  10
ENDBRANCH   8   9
ENDBRANCH   1   8
TORSDOF 5
ENDMDL
MODEL 9
REMARK VINA RESULT:      -4.0      2.357      4.421
REMARK  Name = 
REMARK  7 active torsions:
REMARK  status: ('A' for Active; 'I' for Inactive)
REMARK    1  A    between atoms: C_1  and  C_2
REMARK    2  A    between atoms: C_2  and  C_3
REMARK    3  A    between atoms: C_2  and  C_4
REMARK    4  A    between atoms: C_4  and  N_5
REMARK    5  A    between atoms: N_5  and  C_6
REMARK    6  A    between atoms: C_6  and  C_7
REMARK    7  A    between atoms: C_7  and  O_8
REMARK                            x       y       z     vdW  Elec       q    Type
REMARK                         _______ _______ _______ _____ _____    ______ ____
ROOT
ATOM      1  N   UNL     1       5.205   4.805  17.569  0.00  0.00    +0.000 N 
ATOM      2  C   UNL     1       4.898   6.245  17.712  0.00  0.00    +0.000 C 
ATOM      3  C   UNL     1       4.974   5.348  18.918  0.00  0.00    +0.000 C 
ENDROOT
BRANCH   1   4
ATOM      4  C   UNL     1       4.118   3.953  16.957  0.00  0.00    +0.000 C 
BRANCH   4   6
ATOM      5  C   UNL     1       1.689   4.283  17.703  0.00  0.00    +0.000 C 
ATOM      6  C   UNL     1       3.018   3.584  17.967  0.00  0.00    +0.000 C 
ATOM      7  C   UNL     1       2.796   2.070  17.930  0.00  0.00    +0.000 C 
ENDBRANCH   4   6
ENDBRANCH   1   4
BRANCH   1   8
ATOM      8  C   UNL     1       6.643   4.496  17.191  0.00  0.00    +0.000 C 
BRANCH   8   9
ATOM      9  C   UNL     1       6.838   4.499  15.674  0.00  0.00    +0.000 C 
BRANCH   9  10
ATOM     10  O   UNL     1       7.532   5.690  15.296  0.00  0.00    +0.000 OA
ATOM     11  H   UNL     1       6.864   6.399  15.274  0.00  0.00    +0.000 HD
ENDBRANCH   9  10
ENDBRANCH   8   9
ENDBRANCH   1   8
TORSDOF 5
ENDMDL
