MODEL 1
REMARK VINA RESULT:      -6.9      0.000      0.000
REMARK  Name = 
REMARK  5 active torsions:
REMARK  status: ('A' for Active; 'I' for Inactive)
REMARK    1  A    between atoms: C_1  and  O_2
REMARK    2  A    between atoms: O_2  and  C_3
REMARK    3  A    between atoms: C_3  and  C_5
REMARK    4  A    between atoms: C_5  and  C_6
REMARK    5  A    between atoms: C_6  and  N_7
REMARK                            x       y       z     vdW  Elec       q    Type
REMARK                         _______ _______ _______ _____ _____    ______ ____
ROOT
ATOM      1  N   UNL     1       5.223   5.835  18.275  0.00  0.00    +0.000 NA
ATOM      2  C   UNL     1       6.572   6.093  17.713  0.00  0.00    +0.000 C 
ATOM      3  C   UNL     1       7.174   4.932  16.895  0.00  0.00    +0.000 C 
ATOM      4  N   UNL     1       6.242   4.444  15.874  0.00  0.00    +0.000 N 
ATOM      5  C   UNL     1       6.606   4.509  14.545  0.00  0.00    +0.000 A 
ATOM      6  C   UNL     1       6.025   3.660  13.603  0.00  0.00    +0.000 A 
ATOM      7  C   UNL     1       6.443   3.687  12.272  0.00  0.00    +0.000 A 
ATOM      8  C   UNL     1       7.437   4.575  11.898  0.00  0.00    +0.000 A 
ATOM      9  C   UNL     1       7.966   5.394  12.877  0.00  0.00    +0.000 A 
ATOM     10  N   UNL     1       7.581   5.370  14.173  0.00  0.00    +0.000 NA
ATOM     11  C   UNL     1       4.841   4.273  16.273  0.00  0.00    +0.000 C 
ATOM     12  C   UNL     1       4.344   5.464  17.133  0.00  0.00    +0.000 C 
ENDROOT
BRANCH   1  13
ATOM     13  C   UNL     1       5.200   4.765  19.293  0.00  0.00    +0.000 C 
BRANCH  13  14
ATOM     14  C   UNL     1       3.812   4.193  19.580  0.00  0.00    +0.000 C 
BRANCH  14  15
ATOM     15  C   UNL     1       3.912   2.710  19.827  0.00  0.00    +0.000 C 
ATOM     16  O   UNL     1       4.904   2.127  20.241  0.00  0.00    +0.000 OA
BRANCH  15  18
ATOM     17  C   UNL     1       2.201   2.455  18.262  0.00  0.00    +0.000 C 
ATOM     18  O   UNL     1       2.719   2.116  19.548  0.00  0.00    +0.000 OA
ENDBRANCH  15  18
ENDBRANCH  14  15
ENDBRANCH  13  14
ENDBRANCH   1  13
TORSDOF 4
ENDMDL
MODEL 2
REMARK VINA RESULT:      -6.6      3.198      6.708
REMARK  Name = 
REMARK  5 active torsions:
REMARK  status: ('A' for Active; 'I' for Inactive)
REMARK    1  A    between atoms: C_1  and  O_2
REMARK    2  A    between atoms: O_2  and  C_3
REMARK    3  A    between atoms: C_3  and  C_5
REMARK    4  A    between atoms: C_5  and  C_6
REMARK    5  A    between atoms: C_6  and  N_7
REMARK                            x       y       z     vdW  Elec       q    Type
REMARK                         _______ _______ _______ _____ _____    ______ ____
ROOT
ATOM      1  N   UNL     1       5.850   5.438  16.786  0.00  0.00    +0.000 NA
ATOM      2  C   UNL     1       4.424   5.126  16.514  0.00  0.00    +0.000 C 
ATOM      3  C   UNL     1       3.930   3.778  17.079  0.00  0.00    +0.000 C 
ATOM      4  N   UNL     1       4.259   3.629  18.500  0.00  0.00    +0.000 N 
ATOM      5  C   UNL     1       3.238   3.475  19.414  0.00  0.00    +0.000 A 
ATOM      6  C   UNL     1       3.469   2.863  20.646  0.00  0.00    +0.000 A 
ATOM      7  C   UNL     1       2.419   2.652  21.541  0.00  0.00    +0.000 A 
ATOM      8  C   UNL     1       1.145   3.067  21.191  0.00  0.00    +0.000 A 
ATOM      9  C   UNL     1       0.984   3.673  19.960  0.00  0.00    +0.000 A 
ATOM     10  N   UNL     1       1.990   3.872  19.077  0.00  0.00    +0.000 NA
ATOM     11  C   UNL     1       5.604   4.033  18.921  0.00  0.00    +0.000 C 
ATOM     12  C   UNL     1       6.032   5.370  18.261  0.00  0.00    +0.000 C 
ENDROOT
BRANCH   1  13
ATOM     13  C   UNL     1       6.795   4.519  16.122  0.00  0.00    +0.000 C 
BRANCH  13  14
ATOM     14  C   UNL     1       6.390   4.111  14.704  0.00  0.00    +0.000 C 
BRANCH  14  15
ATOM     15  C   UNL     1       7.283   4.796  13.702  0.00  0.00    +0.000 C 
ATOM     16  O   UNL     1       8.133   5.634  13.968  0.00  0.00    +0.000 OA
BRANCH  15  18
ATOM     17  C   UNL     1       5.992   3.333  12.425  0.00  0.00    +0.000 C 
ATOM     18  O   UNL     1       7.022   4.320  12.453  0.00  0.00    +0.000 OA
ENDBRANCH  15  18
ENDBRANCH  14  15
ENDBRANCH  13  14
ENDBRANCH   1  13
TORSDOF 4
ENDMDL
MODEL 3
REMARK VINA RESULT:      -6.4      3.243      6.648
REMARK  Name = 
REMARK  5 active torsions:
REMARK  status: ('A' for Active; 'I' for Inactive)
REMARK    1  A    between atoms: C_1  and  O_2
REMARK    2  A    between atoms: O_2  and  C_3
REMARK    3  A    between atoms: C_3  and  C_5
REMARK    4  A    between atoms: C_5  and  C_6
REMARK    5  A    between atoms: C_6  and  N_7
REMARK                            x       y       z     vdW  Elec       q    Type
REMARK                         _______ _______ _______ _____ _____    ______ ____
ROOT
ATOM      1  N   UNL     1       6.095   5.551  16.595  0.00  0.00    +0.000 NA
ATOM      2  C   UNL     1       5.208   6.400  17.429  0.00  0.00    +0.000 C 
ATOM      3  C   UNL     1       3.732   5.955  17.478  0.00  0.00    +0.000 C 
ATOM      4  N   UNL     1       3.602   4.534  17.815  0.00  0.00    +0.000 N 
ATOM      5  C   UNL     1       2.915   4.174  18.956  0.00  0.00    +0.000 A 
ATOM      6  C   UNL     1       2.350   2.904  19.079  0.00  0.00    +0.000 A 
ATOM      7  C   UNL     1       1.602   2.568  20.207  0.00  0.00    +0.000 A 
ATOM      8  C   UNL     1       1.437   3.509  21.209  0.00  0.00    +0.000 A 
ATOM      9  C   UNL     1       2.029   4.745  21.031  0.00  0.00    +0.000 A 
ATOM     10  N   UNL     1       2.745   5.090  19.936  0.00  0.00    +0.000 NA
ATOM     11  C   UNL     1       4.519   3.601  17.152  0.00  0.00    +0.000 C 
ATOM     12  C   UNL     1       5.966   4.160  17.106  0.00  0.00    +0.000 C 
ENDROOT
BRANCH   1  13
ATOM     13  C   UNL     1       5.767   5.588  15.155  0.00  0.00    +0.000 C 
BRANCH  13  14
ATOM     14  C   UNL     1       6.345   4.427  14.345  0.00  0.00    +0.000 C 
BRANCH  14  15
ATOM     15  C   UNL     1       7.360   4.948  13.360  0.00  0.00    +0.000 C 
ATOM     16  O   UNL     1       8.252   5.745  13.617  0.00  0.00    +0.000 OA
BRANCH  15  18
ATOM     17  C   UNL     1       6.220   3.297  12.171  0.00  0.00    +0.000 C 
ATOM     18  O   UNL     1       7.155   4.375  12.142  0.00  0.00    +0.000 OA
ENDBRANCH  15  18
ENDBRANCH  14  15
ENDBRANCH  13  14
ENDBRANCH   1  13
TORSDOF 4
ENDMDL
MODEL 4
REMARK VINA RESULT:      -6.4      4.097      6.598
REMARK  Name = 
REMARK  5 active torsions:
REMARK  status: ('A' for Active; 'I' for Inactive)
REMARK    1  A    between atoms: C_1  and  O_2
REMARK    2  A    between atoms: O_2  and  C_3
REMARK    3  A    between atoms: C_3  and  C_5
REMARK    4  A    between atoms: C_5  and  C_6
REMARK    5  A    between atoms: C_6  and  N_7
REMARK                            x       y       z     vdW  Elec       q    Type
REMARK                         _______ _______ _______ _____ _____    ______ ____
ROOT
ATOM      1  N   UNL     1       7.575   6.226  17.341  0.00  0.00    +0.000 NA
ATOM      2  C   UNL     1       7.378   4.953  18.078  0.00  0.00    +0.000 C 
ATOM      3  C   UNL     1       6.159   4.925  19.023  0.00  0.00    +0.000 C 
ATOM      4  N   UNL     1       4.934   5.357  18.344  0.00  0.00    +0.000 N 
ATOM      5  C   UNL     1       3.872   4.481  18.250  0.00  0.00    +0.000 A 
ATOM      6  C   UNL     1       2.571   4.952  18.073  0.00  0.00    +0.000 A 
ATOM      7  C   UNL     1       1.494   4.065  18.043  0.00  0.00    +0.000 A 
ATOM      8  C   UNL     1       1.737   2.709  18.182  0.00  0.00    +0.000 A 
ATOM      9  C   UNL     1       3.049   2.306  18.346  0.00  0.00    +0.000 A 
ATOM     10  N   UNL     1       4.101   3.156  18.391  0.00  0.00    +0.000 NA
ATOM     11  C   UNL     1       5.029   6.534  17.474  0.00  0.00    +0.000 C 
ATOM     12  C   UNL     1       6.312   6.496  16.603  0.00  0.00    +0.000 C 
ENDROOT
BRANCH   1  13
ATOM     13  C   UNL     1       7.900   7.371  18.214  0.00  0.00    +0.000 C 
BRANCH  13  14
ATOM     14  C   UNL     1       7.947   8.721  17.497  0.00  0.00    +0.000 C 
BRANCH  14  15
ATOM     15  C   UNL     1       8.633   9.740  18.371  0.00  0.00    +0.000 C 
ATOM     16  O   UNL     1       9.266   9.489  19.386  0.00  0.00    +0.000 OA
BRANCH  15  18
ATOM     17  C   UNL     1       9.610  11.825  18.004  0.00  0.00    +0.000 C 
ATOM     18  O   UNL     1       8.469  10.984  17.842  0.00  0.00    +0.000 OA
ENDBRANCH  15  18
ENDBRANCH  14  15
ENDBRANCH  13  14
ENDBRANCH   1  13
TORSDOF 4
ENDMDL
MODEL 5
REMARK VINA RESULT:      -6.4      1.340      1.642
REMARK  Name = 
REMARK  5 active torsions:
REMARK  status: ('A' for Active; 'I' for Inactive)
REMARK    1  A    between atoms: C_1  and  O_2
REMARK    2  A    between atoms: O_2  and  C_3
REMARK    3  A    between atoms: C_3  and  C_5
REMARK    4  A    between atoms: C_5  and  C_6
REMARK    5  A    between atoms: C_6  and  N_7
REMARK                            x       y       z     vdW  Elec       q    Type
REMARK                         _______ _______ _______ _____ _____    ______ ____
ROOT
ATOM      1  N   UNL     1       4.981   5.837  18.319  0.00  0.00    +0.000 NA
ATOM      2  C   UNL     1       6.356   6.073  17.814  0.00  0.00    +0.000 C 
ATOM      3  C   UNL     1       6.975   4.900  17.025  0.00  0.00    +0.000 C 
ATOM      4  N   UNL     1       6.079   4.424  15.966  0.00  0.00    +0.000 N 
ATOM      5  C   UNL     1       6.500   4.480  14.653  0.00  0.00    +0.000 A 
ATOM      6  C   UNL     1       5.946   3.638  13.689  0.00  0.00    +0.000 A 
ATOM      7  C   UNL     1       6.420   3.654  12.377  0.00  0.00    +0.000 A 
ATOM      8  C   UNL     1       7.443   4.526  12.044  0.00  0.00    +0.000 A 
ATOM      9  C   UNL     1       7.943   5.339  13.042  0.00  0.00    +0.000 A 
ATOM     10  N   UNL     1       7.502   5.324  14.321  0.00  0.00    +0.000 NA
ATOM     11  C   UNL     1       4.660   4.276  16.305  0.00  0.00    +0.000 C 
ATOM     12  C   UNL     1       4.145   5.477  17.142  0.00  0.00    +0.000 C 
ENDROOT
BRANCH   1  13
ATOM     13  C   UNL     1       4.899   4.771  19.337  0.00  0.00    +0.000 C 
BRANCH  13  14
ATOM     14  C   UNL     1       3.519   4.124  19.466  0.00  0.00    +0.000 C 
BRANCH  14  15
ATOM     15  C   UNL     1       2.642   4.966  20.356  0.00  0.00    +0.000 C 
ATOM     16  O   UNL     1       2.270   6.105  20.109  0.00  0.00    +0.000 OA
BRANCH  15  18
ATOM     17  C   UNL     1       2.511   2.853  21.333  0.00  0.00    +0.000 C 
ATOM     18  O   UNL     1       2.298   4.258  21.466  0.00  0.00    +0.000 OA
ENDBRANCH  15  18
ENDBRANCH  14  15
ENDBRANCH  13  14
ENDBRANCH   1  13
TORSDOF 4
ENDMDL
MODEL 6
REMARK VINA RESULT:      -6.2      2.996      6.775
REMARK  Name = 
REMARK  5 active torsions:
REMARK  status: ('A' for Active; 'I' for Inactive)
REMARK    1  A    between atoms: C_1  and  O_2
REMARK    2  A    between atoms: O_2  and  C_3
REMARK    3  A    between atoms: C_3  and  C_5
REMARK    4  A    between atoms: C_5  and  C_6
REMARK    5  A    between atoms: C_6  and  N_7
REMARK                            x       y       z     vdW  Elec       q    Type
REMARK                         _______ _______ _______ _____ _____    ______ ____
ROOT
ATOM      1  N   UNL     1       5.703   6.245  17.478  0.00  0.00    +0.000 NA
ATOM      2  C   UNL     1       4.234   6.145  17.292  0.00  0.00    +0.000 C 
ATOM      3  C   UNL     1       3.647   4.728  17.459  0.00  0.00    +0.000 C 
ATOM      4  N   UNL     1       4.082   4.104  18.713  0.00  0.00    +0.000 N 
ATOM      5  C   UNL     1       3.134   3.739  19.646  0.00  0.00    +0.000 A 
ATOM      6  C   UNL     1       3.405   2.746  20.588  0.00  0.00    +0.000 A 
ATOM      7  C   UNL     1       2.421   2.336  21.488  0.00  0.00    +0.000 A 
ATOM      8  C   UNL     1       1.174   2.936  21.440  0.00  0.00    +0.000 A 
ATOM      9  C   UNL     1       0.972   3.918  20.489  0.00  0.00    +0.000 A 
ATOM     10  N   UNL     1       1.912   4.316  19.601  0.00  0.00    +0.000 NA
ATOM     11  C   UNL     1       5.495   4.248  19.078  0.00  0.00    +0.000 C 
ATOM     12  C   UNL     1       6.006   5.691  18.825  0.00  0.00    +0.000 C 
ENDROOT
BRANCH   1  13
ATOM     13  C   UNL     1       6.481   5.522  16.452  0.00  0.00    +0.000 C 
BRANCH  13  14
ATOM     14  C   UNL     1       5.798   5.434  15.086  0.00  0.00    +0.000 C 
BRANCH  14  15
ATOM     15  C   UNL     1       6.697   4.716  14.112  0.00  0.00    +0.000 C 
ATOM     16  O   UNL     1       6.402   3.705  13.491  0.00  0.00    +0.000 OA
BRANCH  15  18
ATOM     17  C   UNL     1       8.237   5.685  12.654  0.00  0.00    +0.000 C 
ATOM     18  O   UNL     1       7.880   5.381  14.002  0.00  0.00    +0.000 OA
ENDBRANCH  15  18
ENDBRANCH  14  15
ENDBRANCH  13  14
ENDBRANCH   1  13
TORSDOF 4
ENDMDL
MODEL 7
REMARK VINA RESULT:      -6.2      0.767      1.288
REMARK  Name = 
REMARK  5 active torsions:
REMARK  status: ('A' for Active; 'I' for Inactive)
REMARK    1  A    between atoms: C_1  and  O_2
REMARK    2  A    between atoms: O_2  and  C_3
REMARK    3  A    between atoms: C_3  and  C_5
REMARK    4  A    between atoms: C_5  and  C_6
REMARK    5  A    between atoms: C_6  and  N_7
REMARK                            x       y       z     vdW  Elec       q    Type
REMARK                         _______ _______ _______ _____ _____    ______ ____
ROOT
ATOM      1  N   UNL     1       5.224   5.674  18.274  0.00  0.00    +0.000 NA
ATOM      2  C   UNL     1       6.585   5.931  17.739  0.00  0.00    +0.000 C 
ATOM      3  C   UNL     1       7.176   4.793  16.882  0.00  0.00    +0.000 C 
ATOM      4  N   UNL     1       6.248   4.363  15.831  0.00  0.00    +0.000 N 
ATOM      5  C   UNL     1       6.630   4.476  14.510  0.00  0.00    +0.000 A 
ATOM      6  C   UNL     1       6.046   3.677  13.527  0.00  0.00    +0.000 A 
ATOM      7  C   UNL     1       6.481   3.750  12.204  0.00  0.00    +0.000 A 
ATOM      8  C   UNL     1       7.496   4.634  11.878  0.00  0.00    +0.000 A 
ATOM      9  C   UNL     1       8.027   5.403  12.896  0.00  0.00    +0.000 A 
ATOM     10  N   UNL     1       7.625   5.332  14.185  0.00  0.00    +0.000 NA
ATOM     11  C   UNL     1       4.840   4.203  16.205  0.00  0.00    +0.000 C 
ATOM     12  C   UNL     1       4.353   5.367  17.108  0.00  0.00    +0.000 C 
ENDROOT
BRANCH   1  13
ATOM     13  C   UNL     1       5.169   4.565  19.247  0.00  0.00    +0.000 C 
BRANCH  13  14
ATOM     14  C   UNL     1       3.758   4.066  19.559  0.00  0.00    +0.000 C 
BRANCH  14  15
ATOM     15  C   UNL     1       3.832   2.855  20.454  0.00  0.00    +0.000 C 
ATOM     16  O   UNL     1       2.991   2.535  21.282  0.00  0.00    +0.000 OA
BRANCH  15  18
ATOM     17  C   UNL     1       5.200   1.079  21.094  0.00  0.00    +0.000 C 
ATOM     18  O   UNL     1       4.964   2.150  20.181  0.00  0.00    +0.000 OA
ENDBRANCH  15  18
ENDBRANCH  14  15
ENDBRANCH  13  14
ENDBRANCH   1  13
TORSDOF 4
ENDMDL
MODEL 8
REMARK VINA RESULT:      -6.2      1.100      1.168
REMARK  Name = 
REMARK  5 active torsions:
REMARK  status: ('A' for Active; 'I' for Inactive)
REMARK    1  A    between atoms: C_1  and  O_2
REMARK    2  A    between atoms: O_2  and  C_3
REMARK    3  A    between atoms: C_3  and  C_5
REMARK    4  A    between atoms: C_5  and  C_6
REMARK    5  A    between atoms: C_6  and  N_7
REMARK                            x       y       z     vdW  Elec       q    Type
REMARK                         _______ _______ _______ _____ _____    ______ ____
ROOT
ATOM      1  N   UNL     1       5.004   5.444  18.318  0.00  0.00    +0.000 NA
ATOM      2  C   UNL     1       6.363   5.789  17.831  0.00  0.00    +0.000 C 
ATOM      3  C   UNL     1       7.044   4.705  16.969  0.00  0.00    +0.000 C 
ATOM      4  N   UNL     1       6.174   4.247  15.882  0.00  0.00    +0.000 N 
ATOM      5  C   UNL     1       6.588   4.410  14.576  0.00  0.00    +0.000 A 
ATOM      6  C   UNL     1       6.079   3.601  13.560  0.00  0.00    +0.000 A 
ATOM      7  C   UNL     1       6.548   3.728  12.252  0.00  0.00    +0.000 A 
ATOM      8  C   UNL     1       7.520   4.675  11.975  0.00  0.00    +0.000 A 
ATOM      9  C   UNL     1       7.976   5.450  13.024  0.00  0.00    +0.000 A 
ATOM     10  N   UNL     1       7.540   5.329  14.299  0.00  0.00    +0.000 NA
ATOM     11  C   UNL     1       4.766   3.999  16.210  0.00  0.00    +0.000 C 
ATOM     12  C   UNL     1       4.187   5.113  17.120  0.00  0.00    +0.000 C 
ENDROOT
BRANCH   1  13
ATOM     13  C   UNL     1       4.985   4.313  19.266  0.00  0.00    +0.000 C 
BRANCH  13  14
ATOM     14  C   UNL     1       3.722   3.453  19.201  0.00  0.00    +0.000 C 
BRANCH  14  15
ATOM     15  C   UNL     1       2.601   4.136  19.941  0.00  0.00    +0.000 C 
ATOM     16  O   UNL     1       2.696   4.660  21.042  0.00  0.00    +0.000 OA
BRANCH  15  18
ATOM     17  C   UNL     1       1.140   2.809  18.699  0.00  0.00    +0.000 C 
ATOM     18  O   UNL     1       1.468   4.110  19.186  0.00  0.00    +0.000 OA
ENDBRANCH  15  18
ENDBRANCH  14  15
ENDBRANCH  13  14
ENDBRANCH   1  13
TORSDOF 4
ENDMDL
MODEL 9
REMARK VINA RESULT:      -6.1      3.038      6.772
REMARK  Name = 
REMARK  5 active torsions:
REMARK  status: ('A' for Active; 'I' for Inactive)
REMARK    1  A    between atoms: C_1  and  O_2
REMARK    2  A    between atoms: O_2  and  C_3
REMARK    3  A    between atoms: C_3  and  C_5
REMARK    4  A    between atoms: C_5  and  C_6
REMARK    5  A    between atoms: C_6  and  N_7
REMARK                            x       y       z     vdW  Elec       q    Type
REMARK                         _______ _______ _______ _____ _____    ______ ____
ROOT
ATOM      1  N   UNL     1       6.073   4.412  16.999  0.00  0.00    +0.000 NA
ATOM      2  C   UNL     1       6.106   4.543  18.477  0.00  0.00    +0.000 C 
ATOM      3  C   UNL     1       4.846   5.171  19.108  0.00  0.00    +0.000 C 
ATOM      4  N   UNL     1       3.620   4.512  18.646  0.00  0.00    +0.000 N 
ATOM      5  C   UNL     1       2.799   3.897  19.568  0.00  0.00    +0.000 A 
ATOM      6  C   UNL     1       1.446   3.694  19.295  0.00  0.00    +0.000 A 
ATOM      7  C   UNL     1       0.606   3.129  20.256  0.00  0.00    +0.000 A 
ATOM      8  C   UNL     1       1.138   2.764  21.481  0.00  0.00    +0.000 A 
ATOM      9  C   UNL     1       2.487   2.984  21.686  0.00  0.00    +0.000 A 
ATOM     10  N   UNL     1       3.309   3.543  20.768  0.00  0.00    +0.000 NA
ATOM     11  C   UNL     1       3.523   4.206  17.215  0.00  0.00    +0.000 C 
ATOM     12  C   UNL     1       4.853   3.630  16.663  0.00  0.00    +0.000 C 
ENDROOT
BRANCH   1  13
ATOM     13  C   UNL     1       6.049   5.707  16.291  0.00  0.00    +0.000 C 
BRANCH  13  14
ATOM     14  C   UNL     1       5.671   5.614  14.812  0.00  0.00    +0.000 C 
BRANCH  14  15
ATOM     15  C   UNL     1       6.703   4.804  14.071  0.00  0.00    +0.000 C 
ATOM     16  O   UNL     1       6.499   3.730  13.523  0.00  0.00    +0.000 OA
BRANCH  15  18
ATOM     17  C   UNL     1       8.385   5.758  12.769  0.00  0.00    +0.000 C 
ATOM     18  O   UNL     1       7.894   5.463  14.076  0.00  0.00    +0.000 OA
ENDBRANCH  15  18
ENDBRANCH  14  15
ENDBRANCH  13  14
ENDBRANCH   1  13
TORSDOF 4
ENDMDL
