MODEL 1
REMARK VINA RESULT:      -7.2      0.000      0.000
REMARK  Name = 
REMARK  3 active torsions:
REMARK  status: ('A' for Active; 'I' for Inactive)
REMARK    1  A    between atoms: C_8  and  N_9
REMARK    2  A    between atoms: C_10  and  C_11
REMARK    3  A    between atoms: C_11  and  N_12
REMARK                            x       y       z     vdW  Elec       q    Type
REMARK                         _______ _______ _______ _____ _____    ______ ____
ROOT
ATOM      1  N   UNL     1       3.864   4.348  19.377  0.00  0.00    +0.000 N 
ATOM      2  C   UNL     1       2.991   5.401  19.763  0.00  0.00    +0.000 A 
ATOM      3  C   UNL     1       2.056   5.010  20.651  0.00  0.00    +0.000 A 
ATOM      4  S   UNL     1       2.195   3.363  21.114  0.00  0.00    +0.000 S 
ATOM      5  C   UNL     1       3.634   3.146  20.098  0.00  0.00    +0.000 A 
ATOM      6  S   UNL     1       4.557   1.753  20.209  0.00  0.00    +0.000 S 
ENDROOT
BRANCH   1  14
ATOM      7  F   UNL     1       6.511   5.296  19.782  0.00  0.00    +0.000 F 
ATOM      8  C   UNL     1       6.138   4.906  18.553  0.00  0.00    +0.000 A 
ATOM      9  C   UNL     1       7.113   4.951  17.550  0.00  0.00    +0.000 A 
ATOM     10  C   UNL     1       6.834   4.439  16.288  0.00  0.00    +0.000 A 
ATOM     11  C   UNL     1       5.564   3.943  16.023  0.00  0.00    +0.000 A 
ATOM     12  C   UNL     1       4.576   3.978  17.015  0.00  0.00    +0.000 A 
ATOM     13  F   UNL     1       3.333   3.645  16.641  0.00  0.00    +0.000 F 
ATOM     14  C   UNL     1       4.842   4.415  18.318  0.00  0.00    +0.000 A 
ENDBRANCH   1  14
BRANCH   2  15
ATOM     15  C   UNL     1       3.052   6.799  19.178  0.00  0.00    +0.000 C 
BRANCH  15  16
ATOM     16  N   UNL     1       1.820   7.640  19.168  0.00  0.00    +0.000 NA
ATOM     17  C   UNL     1       1.651   8.342  20.464  0.00  0.00    +0.000 C 
ATOM     18  C   UNL     1       0.521   9.374  20.444  0.00  0.00    +0.000 C 
ATOM     19  C   UNL     1       0.755  10.403  19.351  0.00  0.00    +0.000 C 
ATOM     20  C   UNL     1       0.879   9.689  18.015  0.00  0.00    +0.000 C 
ATOM     21  C   UNL     1       1.973   8.622  18.068  0.00  0.00    +0.000 C 
ENDBRANCH  15  16
ENDBRANCH   2  15
TORSDOF 3
ENDMDL
MODEL 2
REMARK VINA RESULT:      -7.1      0.094      1.805
REMARK  Name = 
REMARK  3 active torsions:
REMARK  status: ('A' for Active; 'I' for Inactive)
REMARK    1  A    between atoms: C_8  and  N_9
REMARK    2  A    between atoms: C_10  and  C_11
REMARK    3  A    between atoms: C_11  and  N_12
REMARK                            x       y       z     vdW  Elec       q    Type
REMARK                         _______ _______ _______ _____ _____    ______ ____
ROOT
ATOM      1  N   UNL     1       3.831   4.360  19.382  0.00  0.00    +0.000 N 
ATOM      2  C   UNL     1       2.955   5.417  19.748  0.00  0.00    +0.000 A 
ATOM      3  C   UNL     1       2.014   5.038  20.634  0.00  0.00    +0.000 A 
ATOM      4  S   UNL     1       2.151   3.396  21.119  0.00  0.00    +0.000 S 
ATOM      5  C   UNL     1       3.597   3.168  20.116  0.00  0.00    +0.000 A 
ATOM      6  S   UNL     1       4.520   1.776  20.252  0.00  0.00    +0.000 S 
ENDROOT
BRANCH   1  14
ATOM      7  F   UNL     1       3.285   3.537  16.718  0.00  0.00    +0.000 F 
ATOM      8  C   UNL     1       4.514   3.982  17.025  0.00  0.00    +0.000 A 
ATOM      9  C   UNL     1       5.442   4.054  15.980  0.00  0.00    +0.000 A 
ATOM     10  C   UNL     1       6.689   4.628  16.198  0.00  0.00    +0.000 A 
ATOM     11  C   UNL     1       7.019   5.067  17.474  0.00  0.00    +0.000 A 
ATOM     12  C   UNL     1       6.108   4.916  18.526  0.00  0.00    +0.000 A 
ATOM     13  F   UNL     1       6.554   5.202  19.757  0.00  0.00    +0.000 F 
ATOM     14  C   UNL     1       4.816   4.414  18.328  0.00  0.00    +0.000 A 
ENDBRANCH   1  14
BRANCH   2  15
ATOM     15  C   UNL     1       3.020   6.807  19.145  0.00  0.00    +0.000 C 
BRANCH  15  16
ATOM     16  N   UNL     1       1.797   7.662  19.150  0.00  0.00    +0.000 NA
ATOM     17  C   UNL     1       1.650   8.365  20.447  0.00  0.00    +0.000 C 
ATOM     18  C   UNL     1       0.531   9.409  20.440  0.00  0.00    +0.000 C 
ATOM     19  C   UNL     1       0.764  10.436  19.344  0.00  0.00    +0.000 C 
ATOM     20  C   UNL     1       0.865   9.721  18.007  0.00  0.00    +0.000 C 
ATOM     21  C   UNL     1       1.948   8.643  18.047  0.00  0.00    +0.000 C 
ENDBRANCH  15  16
ENDBRANCH   2  15
TORSDOF 3
ENDMDL
MODEL 3
REMARK VINA RESULT:      -6.8      3.128      5.811
REMARK  Name = 
REMARK  3 active torsions:
REMARK  status: ('A' for Active; 'I' for Inactive)
REMARK    1  A    between atoms: C_8  and  N_9
REMARK    2  A    between atoms: C_10  and  C_11
REMARK    3  A    between atoms: C_11  and  N_12
REMARK                            x       y       z     vdW  Elec       q    Type
REMARK                         _______ _______ _______ _____ _____    ______ ____
ROOT
ATOM      1  N   UNL     1       4.346   5.088  17.662  0.00  0.00    +0.000 N 
ATOM      2  C   UNL     1       4.195   4.004  16.756  0.00  0.00    +0.000 A 
ATOM      3  C   UNL     1       2.974   3.438  16.811  0.00  0.00    +0.000 A 
ATOM      4  S   UNL     1       1.914   4.201  17.925  0.00  0.00    +0.000 S 
ATOM      5  C   UNL     1       3.143   5.412  18.343  0.00  0.00    +0.000 A 
ATOM      6  S   UNL     1       2.745   6.749  19.270  0.00  0.00    +0.000 S 
ENDROOT
BRANCH   1  14
ATOM      7  F   UNL     1       6.052   4.328  19.803  0.00  0.00    +0.000 F 
ATOM      8  C   UNL     1       6.394   5.375  19.035  0.00  0.00    +0.000 A 
ATOM      9  C   UNL     1       7.613   6.000  19.321  0.00  0.00    +0.000 A 
ATOM     10  C   UNL     1       8.092   7.003  18.486  0.00  0.00    +0.000 A 
ATOM     11  C   UNL     1       7.316   7.415  17.409  0.00  0.00    +0.000 A 
ATOM     12  C   UNL     1       6.063   6.834  17.183  0.00  0.00    +0.000 A 
ATOM     13  F   UNL     1       5.299   7.395  16.236  0.00  0.00    +0.000 F 
ATOM     14  C   UNL     1       5.584   5.770  17.956  0.00  0.00    +0.000 A 
ENDBRANCH   1  14
BRANCH   2  15
ATOM     15  C   UNL     1       5.315   3.487  15.873  0.00  0.00    +0.000 C 
BRANCH  15  16
ATOM     16  N   UNL     1       5.637   4.205  14.606  0.00  0.00    +0.000 NA
ATOM     17  C   UNL     1       7.069   4.588  14.566  0.00  0.00    +0.000 C 
ATOM     18  C   UNL     1       7.503   5.146  13.209  0.00  0.00    +0.000 C 
ATOM     19  C   UNL     1       7.230   4.138  12.105  0.00  0.00    +0.000 C 
ATOM     20  C   UNL     1       5.753   3.782  12.112  0.00  0.00    +0.000 C 
ATOM     21  C   UNL     1       5.321   3.281  13.490  0.00  0.00    +0.000 C 
ENDBRANCH  15  16
ENDBRANCH   2  15
TORSDOF 3
ENDMDL
MODEL 4
REMARK VINA RESULT:      -6.7      1.184      1.224
REMARK  Name = 
REMARK  3 active torsions:
REMARK  status: ('A' for Active; 'I' for Inactive)
REMARK    1  A    between atoms: C_8  and  N_9
REMARK    2  A    between atoms: C_10  and  C_11
REMARK    3  A    between atoms: C_11  and  N_12
REMARK                            x       y       z     vdW  Elec       q    Type
REMARK                         _______ _______ _______ _____ _____    ______ ____
ROOT
ATOM      1  N   UNL     1       3.617   4.111  18.154  0.00  0.00    +0.000 N 
ATOM      2  C   UNL     1       2.647   5.111  18.431  0.00  0.00    +0.000 A 
ATOM      3  C   UNL     1       1.430   4.602  18.705  0.00  0.00    +0.000 A 
ATOM      4  S   UNL     1       1.385   2.886  18.693  0.00  0.00    +0.000 S 
ATOM      5  C   UNL     1       3.123   2.793  18.341  0.00  0.00    +0.000 A 
ATOM      6  S   UNL     1       3.933   1.329  18.419  0.00  0.00    +0.000 S 
ENDROOT
BRANCH   1  14
ATOM      7  F   UNL     1       5.778   4.863  19.839  0.00  0.00    +0.000 F 
ATOM      8  C   UNL     1       5.991   4.737  18.519  0.00  0.00    +0.000 A 
ATOM      9  C   UNL     1       7.299   4.945  18.066  0.00  0.00    +0.000 A 
ATOM     10  C   UNL     1       7.619   4.703  16.734  0.00  0.00    +0.000 A 
ATOM     11  C   UNL     1       6.614   4.316  15.856  0.00  0.00    +0.000 A 
ATOM     12  C   UNL     1       5.296   4.190  16.310  0.00  0.00    +0.000 A 
ATOM     13  F   UNL     1       4.353   3.983  15.379  0.00  0.00    +0.000 F 
ATOM     14  C   UNL     1       4.951   4.350  17.657  0.00  0.00    +0.000 A 
ENDBRANCH   1  14
BRANCH   2  15
ATOM     15  C   UNL     1       2.929   6.599  18.349  0.00  0.00    +0.000 C 
BRANCH  15  16
ATOM     16  N   UNL     1       1.835   7.566  18.654  0.00  0.00    +0.000 NA
ATOM     17  C   UNL     1       1.863   7.960  20.083  0.00  0.00    +0.000 C 
ATOM     18  C   UNL     1       0.896   9.101  20.410  0.00  0.00    +0.000 C 
ATOM     19  C   UNL     1       1.198  10.320  19.554  0.00  0.00    +0.000 C 
ATOM     20  C   UNL     1       1.121   9.929  18.088  0.00  0.00    +0.000 C 
ATOM     21  C   UNL     1       2.048   8.752  17.789  0.00  0.00    +0.000 C 
ENDBRANCH  15  16
ENDBRANCH   2  15
TORSDOF 3
ENDMDL
MODEL 5
REMARK VINA RESULT:      -6.6      2.376      5.253
REMARK  Name = 
REMARK  3 active torsions:
REMARK  status: ('A' for Active; 'I' for Inactive)
REMARK    1  A    between atoms: C_8  and  N_9
REMARK    2  A    between atoms: C_10  and  C_11
REMARK    3  A    between atoms: C_11  and  N_12
REMARK                            x       y       z     vdW  Elec       q    Type
REMARK                         _______ _______ _______ _____ _____    ______ ____
ROOT
ATOM      1  N   UNL     1       3.005   6.062  18.434  0.00  0.00    +0.000 N 
ATOM      2  C   UNL     1       3.626   6.864  17.438  0.00  0.00    +0.000 A 
ATOM      3  C   UNL     1       3.239   8.153  17.484  0.00  0.00    +0.000 A 
ATOM      4  S   UNL     1       2.138   8.495  18.756  0.00  0.00    +0.000 S 
ATOM      5  C   UNL     1       2.204   6.816  19.331  0.00  0.00    +0.000 A 
ATOM      6  S   UNL     1       1.519   6.388  20.799  0.00  0.00    +0.000 S 
ENDROOT
BRANCH   1  14
ATOM      7  F   UNL     1       1.115   4.339  17.197  0.00  0.00    +0.000 F 
ATOM      8  C   UNL     1       2.119   3.804  17.909  0.00  0.00    +0.000 A 
ATOM      9  C   UNL     1       2.190   2.407  17.954  0.00  0.00    +0.000 A 
ATOM     10  C   UNL     1       3.276   1.786  18.561  0.00  0.00    +0.000 A 
ATOM     11  C   UNL     1       4.248   2.568  19.173  0.00  0.00    +0.000 A 
ATOM     12  C   UNL     1       4.121   3.962  19.188  0.00  0.00    +0.000 A 
ATOM     13  F   UNL     1       4.998   4.640  19.940  0.00  0.00    +0.000 F 
ATOM     14  C   UNL     1       3.083   4.624  18.522  0.00  0.00    +0.000 A 
ENDBRANCH   1  14
BRANCH   2  15
ATOM     15  C   UNL     1       4.565   6.312  16.383  0.00  0.00    +0.000 C 
BRANCH  15  16
ATOM     16  N   UNL     1       6.021   6.201  16.689  0.00  0.00    +0.000 NA
ATOM     17  C   UNL     1       6.370   6.996  17.890  0.00  0.00    +0.000 C 
ATOM     18  C   UNL     1       7.804   6.760  18.371  0.00  0.00    +0.000 C 
ATOM     19  C   UNL     1       8.032   5.288  18.669  0.00  0.00    +0.000 C 
ATOM     20  C   UNL     1       7.723   4.474  17.423  0.00  0.00    +0.000 C 
ATOM     21  C   UNL     1       6.308   4.765  16.922  0.00  0.00    +0.000 C 
ENDBRANCH  15  16
ENDBRANCH   2  15
TORSDOF 3
ENDMDL
MODEL 6
REMARK VINA RESULT:      -6.6      3.126      5.928
REMARK  Name = 
REMARK  3 active torsions:
REMARK  status: ('A' for Active; 'I' for Inactive)
REMARK    1  A    between atoms: C_8  and  N_9
REMARK    2  A    between atoms: C_10  and  C_11
REMARK    3  A    between atoms: C_11  and  N_12
REMARK                            x       y       z     vdW  Elec       q    Type
REMARK                         _______ _______ _______ _____ _____    ______ ____
ROOT
ATOM      1  N   UNL     1       4.373   5.088  17.634  0.00  0.00    +0.000 N 
ATOM      2  C   UNL     1       4.175   4.002  16.740  0.00  0.00    +0.000 A 
ATOM      3  C   UNL     1       2.944   3.463  16.830  0.00  0.00    +0.000 A 
ATOM      4  S   UNL     1       1.929   4.258  17.964  0.00  0.00    +0.000 S 
ATOM      5  C   UNL     1       3.195   5.444  18.342  0.00  0.00    +0.000 A 
ATOM      6  S   UNL     1       2.850   6.796  19.268  0.00  0.00    +0.000 S 
ENDROOT
BRANCH   1  14
ATOM      7  F   UNL     1       5.317   7.276  16.086  0.00  0.00    +0.000 F 
ATOM      8  C   UNL     1       6.074   6.813  17.093  0.00  0.00    +0.000 A 
ATOM      9  C   UNL     1       7.276   7.485  17.343  0.00  0.00    +0.000 A 
ATOM     10  C   UNL     1       8.045   7.144  18.450  0.00  0.00    +0.000 A 
ATOM     11  C   UNL     1       7.635   6.094  19.262  0.00  0.00    +0.000 A 
ATOM     12  C   UNL     1       6.471   5.381  18.953  0.00  0.00    +0.000 A 
ATOM     13  F   UNL     1       6.229   4.277  19.673  0.00  0.00    +0.000 F 
ATOM     14  C   UNL     1       5.633   5.744  17.892  0.00  0.00    +0.000 A 
ENDBRANCH   1  14
BRANCH   2  15
ATOM     15  C   UNL     1       5.261   3.452  15.834  0.00  0.00    +0.000 C 
BRANCH  15  16
ATOM     16  N   UNL     1       5.585   4.169  14.566  0.00  0.00    +0.000 NA
ATOM     17  C   UNL     1       7.016   4.556  14.531  0.00  0.00    +0.000 C 
ATOM     18  C   UNL     1       7.454   5.112  13.174  0.00  0.00    +0.000 C 
ATOM     19  C   UNL     1       7.188   4.102  12.071  0.00  0.00    +0.000 C 
ATOM     20  C   UNL     1       5.712   3.741  12.073  0.00  0.00    +0.000 C 
ATOM     21  C   UNL     1       5.276   3.242  13.451  0.00  0.00    +0.000 C 
ENDBRANCH  15  16
ENDBRANCH   2  15
TORSDOF 3
ENDMDL
MODEL 7
REMARK VINA RESULT:      -6.6      2.340      4.932
REMARK  Name = 
REMARK  3 active torsions:
REMARK  status: ('A' for Active; 'I' for Inactive)
REMARK    1  A    between atoms: C_8  and  N_9
REMARK    2  A    between atoms: C_10  and  C_11
REMARK    3  A    between atoms: C_11  and  N_12
REMARK                            x       y       z     vdW  Elec       q    Type
REMARK                         _______ _______ _______ _____ _____    ______ ____
ROOT
ATOM      1  N   UNL     1       2.998   6.046  18.438  0.00  0.00    +0.000 N 
ATOM      2  C   UNL     1       3.592   6.886  17.458  0.00  0.00    +0.000 A 
ATOM      3  C   UNL     1       3.190   8.168  17.551  0.00  0.00    +0.000 A 
ATOM      4  S   UNL     1       2.108   8.455  18.853  0.00  0.00    +0.000 S 
ATOM      5  C   UNL     1       2.204   6.761  19.372  0.00  0.00    +0.000 A 
ATOM      6  S   UNL     1       1.549   6.278  20.837  0.00  0.00    +0.000 S 
ENDROOT
BRANCH   1  14
ATOM      7  F   UNL     1       5.048   4.677  19.852  0.00  0.00    +0.000 F 
ATOM      8  C   UNL     1       4.133   3.965  19.175  0.00  0.00    +0.000 A 
ATOM      9  C   UNL     1       4.229   2.571  19.255  0.00  0.00    +0.000 A 
ATOM     10  C   UNL     1       3.241   1.773  18.690  0.00  0.00    +0.000 A 
ATOM     11  C   UNL     1       2.199   2.376  17.996  0.00  0.00    +0.000 A 
ATOM     12  C   UNL     1       2.160   3.768  17.858  0.00  0.00    +0.000 A 
ATOM     13  F   UNL     1       1.227   4.268  17.035  0.00  0.00    +0.000 F 
ATOM     14  C   UNL     1       3.094   4.606  18.478  0.00  0.00    +0.000 A 
ENDBRANCH   1  14
BRANCH   2  15
ATOM     15  C   UNL     1       4.520   6.380  16.370  0.00  0.00    +0.000 C 
BRANCH  15  16
ATOM     16  N   UNL     1       5.978   6.253  16.656  0.00  0.00    +0.000 NA
ATOM     17  C   UNL     1       6.342   7.002  17.883  0.00  0.00    +0.000 C 
ATOM     18  C   UNL     1       7.780   6.743  18.339  0.00  0.00    +0.000 C 
ATOM     19  C   UNL     1       8.007   5.260  18.578  0.00  0.00    +0.000 C 
ATOM     20  C   UNL     1       7.683   4.496  17.305  0.00  0.00    +0.000 C 
ATOM     21  C   UNL     1       6.264   4.809  16.830  0.00  0.00    +0.000 C 
ENDBRANCH  15  16
ENDBRANCH   2  15
TORSDOF 3
ENDMDL
MODEL 8
REMARK VINA RESULT:      -6.6      1.160      2.082
REMARK  Name = 
REMARK  3 active torsions:
REMARK  status: ('A' for Active; 'I' for Inactive)
REMARK    1  A    between atoms: C_8  and  N_9
REMARK    2  A    between atoms: C_10  and  C_11
REMARK    3  A    between atoms: C_11  and  N_12
REMARK                            x       y       z     vdW  Elec       q    Type
REMARK                         _______ _______ _______ _____ _____    ______ ____
ROOT
ATOM      1  N   UNL     1       3.622   4.071  18.196  0.00  0.00    +0.000 N 
ATOM      2  C   UNL     1       2.669   5.086  18.479  0.00  0.00    +0.000 A 
ATOM      3  C   UNL     1       1.446   4.596  18.761  0.00  0.00    +0.000 A 
ATOM      4  S   UNL     1       1.375   2.880  18.748  0.00  0.00    +0.000 S 
ATOM      5  C   UNL     1       3.108   2.761  18.385  0.00  0.00    +0.000 A 
ATOM      6  S   UNL     1       3.896   1.284  18.456  0.00  0.00    +0.000 S 
ENDROOT
BRANCH   1  14
ATOM      7  F   UNL     1       4.286   3.826  15.444  0.00  0.00    +0.000 F 
ATOM      8  C   UNL     1       5.249   4.144  16.323  0.00  0.00    +0.000 A 
ATOM      9  C   UNL     1       6.527   4.382  15.804  0.00  0.00    +0.000 A 
ATOM     10  C   UNL     1       7.540   4.843  16.638  0.00  0.00    +0.000 A 
ATOM     11  C   UNL     1       7.282   5.001  17.994  0.00  0.00    +0.000 A 
ATOM     12  C   UNL     1       6.020   4.683  18.510  0.00  0.00    +0.000 A 
ATOM     13  F   UNL     1       5.893   4.695  19.844  0.00  0.00    +0.000 F 
ATOM     14  C   UNL     1       4.956   4.291  17.690  0.00  0.00    +0.000 A 
ENDBRANCH   1  14
BRANCH   2  15
ATOM     15  C   UNL     1       2.973   6.569  18.397  0.00  0.00    +0.000 C 
BRANCH  15  16
ATOM     16  N   UNL     1       1.880   7.553  18.648  0.00  0.00    +0.000 NA
ATOM     17  C   UNL     1       1.860   7.968  20.071  0.00  0.00    +0.000 C 
ATOM     18  C   UNL     1       0.896   9.124  20.346  0.00  0.00    +0.000 C 
ATOM     19  C   UNL     1       1.243  10.326  19.486  0.00  0.00    +0.000 C 
ATOM     20  C   UNL     1       1.215   9.916  18.023  0.00  0.00    +0.000 C 
ATOM     21  C   UNL     1       2.139   8.724  17.775  0.00  0.00    +0.000 C 
ENDBRANCH  15  16
ENDBRANCH   2  15
TORSDOF 3
ENDMDL
MODEL 9
REMARK VINA RESULT:      -6.6      2.690      5.488
REMARK  Name = 
REMARK  3 active torsions:
REMARK  status: ('A' for Active; 'I' for Inactive)
REMARK    1  A    between atoms: C_8  and  N_9
REMARK    2  A    between atoms: C_10  and  C_11
REMARK    3  A    between atoms: C_11  and  N_12
REMARK                            x       y       z     vdW  Elec       q    Type
REMARK                         _______ _______ _______ _____ _____    ______ ____
ROOT
ATOM      1  N   UNL     1       4.689   5.504  17.448  0.00  0.00    +0.000 N 
ATOM      2  C   UNL     1       4.334   4.196  17.023  0.00  0.00    +0.000 A 
ATOM      3  C   UNL     1       5.332   3.563  16.377  0.00  0.00    +0.000 A 
ATOM      4  S   UNL     1       6.778   4.484  16.278  0.00  0.00    +0.000 S 
ATOM      5  C   UNL     1       6.052   5.815  17.202  0.00  0.00    +0.000 A 
ATOM      6  S   UNL     1       6.996   7.081  17.761  0.00  0.00    +0.000 S 
ENDROOT
BRANCH   1  14
ATOM      7  F   UNL     1       3.681   7.695  15.945  0.00  0.00    +0.000 F 
ATOM      8  C   UNL     1       3.318   7.562  17.231  0.00  0.00    +0.000 A 
ATOM      9  C   UNL     1       2.414   8.504  17.736  0.00  0.00    +0.000 A 
ATOM     10  C   UNL     1       1.894   8.352  19.016  0.00  0.00    +0.000 A 
ATOM     11  C   UNL     1       2.330   7.292  19.802  0.00  0.00    +0.000 A 
ATOM     12  C   UNL     1       3.294   6.404  19.310  0.00  0.00    +0.000 A 
ATOM     13  F   UNL     1       3.793   5.513  20.179  0.00  0.00    +0.000 F 
ATOM     14  C   UNL     1       3.782   6.482  18.001  0.00  0.00    +0.000 A 
ENDBRANCH   1  14
BRANCH   2  15
ATOM     15  C   UNL     1       2.951   3.601  17.206  0.00  0.00    +0.000 C 
BRANCH  15  16
ATOM     16  N   UNL     1       2.656   2.803  18.432  0.00  0.00    +0.000 NA
ATOM     17  C   UNL     1       3.812   2.817  19.360  0.00  0.00    +0.000 C 
ATOM     18  C   UNL     1       3.498   2.188  20.720  0.00  0.00    +0.000 C 
ATOM     19  C   UNL     1       2.325   2.895  21.378  0.00  0.00    +0.000 C 
ATOM     20  C   UNL     1       1.125   2.838  20.448  0.00  0.00    +0.000 C 
ATOM     21  C   UNL     1       1.471   3.417  19.077  0.00  0.00    +0.000 C 
ENDBRANCH  15  16
ENDBRANCH   2  15
TORSDOF 3
ENDMDL
