MODEL 1
REMARK VINA RESULT:      -9.9      0.000      0.000
REMARK  Name = 
REMARK  3 active torsions:
REMARK  status: ('A' for Active; 'I' for Inactive)
REMARK    1  A    between atoms: C_1  and  C_2
REMARK    2  A    between atoms: C_6  and  C_7
REMARK    3  A    between atoms: C_15  and  C_16
REMARK                            x       y       z     vdW  Elec       q    Type
REMARK                         _______ _______ _______ _____ _____    ______ ____
ROOT
ATOM      1  C   UNL     1       6.756   5.412  15.932  0.00  0.00    +0.000 A 
ATOM      2  O   UNL     1       7.588   5.418  14.845  0.00  0.00    +0.000 OA
ATOM      3  C   UNL     1       6.979   4.723  13.852  0.00  0.00    +0.000 A 
ATOM      4  C   UNL     1       7.520   4.494  12.587  0.00  0.00    +0.000 A 
ATOM      5  C   UNL     1       6.745   3.740  11.700  0.00  0.00    +0.000 A 
ATOM      6  C   UNL     1       5.490   3.257  12.076  0.00  0.00    +0.000 A 
ATOM      7  C   UNL     1       4.969   3.523  13.350  0.00  0.00    +0.000 A 
ATOM      8  C   UNL     1       5.741   4.264  14.273  0.00  0.00    +0.000 A 
ATOM      9  C   UNL     1       5.578   4.730  15.625  0.00  0.00    +0.000 A 
ENDROOT
BRANCH   9  10
ATOM     10  C   UNL     1       4.431   4.563  16.516  0.00  0.00    +0.000 A 
ATOM     11  C   UNL     1       3.874   5.684  17.178  0.00  0.00    +0.000 A 
ATOM     12  C   UNL     1       2.797   5.548  18.062  0.00  0.00    +0.000 A 
ATOM     13  C   UNL     1       2.269   4.289  18.238  0.00  0.00    +0.000 A 
ATOM     14  C   UNL     1       2.787   3.196  17.588  0.00  0.00    +0.000 A 
ATOM     15  C   UNL     1       3.875   3.295  16.747  0.00  0.00    +0.000 A 
ATOM     16  O   UNL     1       2.111   2.052  17.877  0.00  0.00    +0.000 OA
ATOM     17  C   UNL     1       1.142   2.544  18.825  0.00  0.00    +0.000 C 
ATOM     18  O   UNL     1       1.217   3.969  19.036  0.00  0.00    +0.000 OA
ENDBRANCH   9  10
BRANCH   1  24
ATOM     19  C   UNL     1       8.479   9.577  18.105  0.00  0.00    +0.000 C 
ATOM     20  C   UNL     1       8.160   8.114  18.188  0.00  0.00    +0.000 A 
ATOM     21  C   UNL     1       8.469   7.370  19.329  0.00  0.00    +0.000 A 
ATOM     22  C   UNL     1       8.191   6.004  19.372  0.00  0.00    +0.000 A 
ATOM     23  C   UNL     1       7.622   5.369  18.266  0.00  0.00    +0.000 A 
ATOM     24  C   UNL     1       7.311   6.091  17.105  0.00  0.00    +0.000 A 
ATOM     25  C   UNL     1       7.566   7.470  17.092  0.00  0.00    +0.000 A 
ENDBRANCH   1  24
TORSDOF 2
ENDMDL
MODEL 2
REMARK VINA RESULT:      -9.2      0.652      1.361
REMARK  Name = 
REMARK  3 active torsions:
REMARK  status: ('A' for Active; 'I' for Inactive)
REMARK    1  A    between atoms: C_1  and  C_2
REMARK    2  A    between atoms: C_6  and  C_7
REMARK    3  A    between atoms: C_15  and  C_16
REMARK                            x       y       z     vdW  Elec       q    Type
REMARK                         _______ _______ _______ _____ _____    ______ ____
ROOT
ATOM      1  C   UNL     1       6.780   5.329  15.942  0.00  0.00    +0.000 A 
ATOM      2  O   UNL     1       7.538   5.483  14.813  0.00  0.00    +0.000 OA
ATOM      3  C   UNL     1       6.957   4.764  13.820  0.00  0.00    +0.000 A 
ATOM      4  C   UNL     1       7.444   4.657  12.518  0.00  0.00    +0.000 A 
ATOM      5  C   UNL     1       6.711   3.856  11.637  0.00  0.00    +0.000 A 
ATOM      6  C   UNL     1       5.546   3.210  12.055  0.00  0.00    +0.000 A 
ATOM      7  C   UNL     1       5.074   3.355  13.368  0.00  0.00    +0.000 A 
ATOM      8  C   UNL     1       5.809   4.142  14.283  0.00  0.00    +0.000 A 
ATOM      9  C   UNL     1       5.673   4.525  15.665  0.00  0.00    +0.000 A 
ENDROOT
BRANCH   9  10
ATOM     10  C   UNL     1       4.609   4.183  16.607  0.00  0.00    +0.000 A 
ATOM     11  C   UNL     1       4.232   2.832  16.798  0.00  0.00    +0.000 A 
ATOM     12  C   UNL     1       3.194   2.480  17.669  0.00  0.00    +0.000 A 
ATOM     13  C   UNL     1       2.574   3.492  18.366  0.00  0.00    +0.000 A 
ATOM     14  C   UNL     1       2.941   4.804  18.205  0.00  0.00    +0.000 A 
ATOM     15  C   UNL     1       3.929   5.183  17.321  0.00  0.00    +0.000 A 
ATOM     16  O   UNL     1       2.225   5.645  18.999  0.00  0.00    +0.000 OA
ATOM     17  C   UNL     1       1.330   4.713  19.639  0.00  0.00    +0.000 C 
ATOM     18  O   UNL     1       1.566   3.340  19.265  0.00  0.00    +0.000 OA
ENDBRANCH   9  10
BRANCH   1  24
ATOM     19  C   UNL     1       8.437   9.520  18.115  0.00  0.00    +0.000 C 
ATOM     20  C   UNL     1       8.137   8.053  18.200  0.00  0.00    +0.000 A 
ATOM     21  C   UNL     1       8.452   7.315  19.343  0.00  0.00    +0.000 A 
ATOM     22  C   UNL     1       8.192   5.945  19.387  0.00  0.00    +0.000 A 
ATOM     23  C   UNL     1       7.637   5.301  18.280  0.00  0.00    +0.000 A 
ATOM     24  C   UNL     1       7.321   6.017  17.116  0.00  0.00    +0.000 A 
ATOM     25  C   UNL     1       7.557   7.399  17.102  0.00  0.00    +0.000 A 
ENDBRANCH   1  24
TORSDOF 2
ENDMDL
MODEL 3
REMARK VINA RESULT:      -8.8      0.330      1.384
REMARK  Name = 
REMARK  3 active torsions:
REMARK  status: ('A' for Active; 'I' for Inactive)
REMARK    1  A    between atoms: C_1  and  C_2
REMARK    2  A    between atoms: C_6  and  C_7
REMARK    3  A    between atoms: C_15  and  C_16
REMARK                            x       y       z     vdW  Elec       q    Type
REMARK                         _______ _______ _______ _____ _____    ______ ____
ROOT
ATOM      1  C   UNL     1       6.756   5.396  15.801  0.00  0.00    +0.000 A 
ATOM      2  O   UNL     1       7.570   5.369  14.701  0.00  0.00    +0.000 OA
ATOM      3  C   UNL     1       6.937   4.661  13.733  0.00  0.00    +0.000 A 
ATOM      4  C   UNL     1       7.454   4.398  12.465  0.00  0.00    +0.000 A 
ATOM      5  C   UNL     1       6.656   3.636  11.607  0.00  0.00    +0.000 A 
ATOM      6  C   UNL     1       5.402   3.176  12.013  0.00  0.00    +0.000 A 
ATOM      7  C   UNL     1       4.904   3.476  13.289  0.00  0.00    +0.000 A 
ATOM      8  C   UNL     1       5.701   4.226  14.183  0.00  0.00    +0.000 A 
ATOM      9  C   UNL     1       5.565   4.723  15.528  0.00  0.00    +0.000 A 
ENDROOT
BRANCH   9  10
ATOM     10  C   UNL     1       4.431   4.590  16.440  0.00  0.00    +0.000 A 
ATOM     11  C   UNL     1       3.969   5.710  17.172  0.00  0.00    +0.000 A 
ATOM     12  C   UNL     1       2.906   5.604  18.077  0.00  0.00    +0.000 A 
ATOM     13  C   UNL     1       2.297   4.376  18.204  0.00  0.00    +0.000 A 
ATOM     14  C   UNL     1       2.721   3.285  17.488  0.00  0.00    +0.000 A 
ATOM     15  C   UNL     1       3.794   3.352  16.624  0.00  0.00    +0.000 A 
ATOM     16  O   UNL     1       1.975   2.177  17.739  0.00  0.00    +0.000 OA
ATOM     17  C   UNL     1       1.065   2.684  18.735  0.00  0.00    +0.000 C 
ATOM     18  O   UNL     1       1.243   4.089  19.014  0.00  0.00    +0.000 OA
ENDBRANCH   9  10
BRANCH   1  24
ATOM     19  C   UNL     1       8.400   5.315  20.527  0.00  0.00    +0.000 C 
ATOM     20  C   UNL     1       8.147   6.078  19.261  0.00  0.00    +0.000 A 
ATOM     21  C   UNL     1       8.368   7.455  19.188  0.00  0.00    +0.000 A 
ATOM     22  C   UNL     1       8.096   8.148  18.009  0.00  0.00    +0.000 A 
ATOM     23  C   UNL     1       7.580   7.473  16.902  0.00  0.00    +0.000 A 
ATOM     24  C   UNL     1       7.339   6.092  16.951  0.00  0.00    +0.000 A 
ATOM     25  C   UNL     1       7.651   5.405  18.133  0.00  0.00    +0.000 A 
ENDBRANCH   1  24
TORSDOF 2
ENDMDL
MODEL 4
REMARK VINA RESULT:      -8.5      2.726      6.768
REMARK  Name = 
REMARK  3 active torsions:
REMARK  status: ('A' for Active; 'I' for Inactive)
REMARK    1  A    between atoms: C_1  and  C_2
REMARK    2  A    between atoms: C_6  and  C_7
REMARK    3  A    between atoms: C_15  and  C_16
REMARK                            x       y       z     vdW  Elec       q    Type
REMARK                         _______ _______ _______ _____ _____    ______ ____
ROOT
ATOM      1  C   UNL     1       2.630   6.098  19.516  0.00  0.00    +0.000 A 
ATOM      2  O   UNL     1       1.838   5.602  20.517  0.00  0.00    +0.000 OA
ATOM      3  C   UNL     1       2.226   4.325  20.759  0.00  0.00    +0.000 A 
ATOM      4  C   UNL     1       1.646   3.477  21.703  0.00  0.00    +0.000 A 
ATOM      5  C   UNL     1       2.176   2.187  21.798  0.00  0.00    +0.000 A 
ATOM      6  C   UNL     1       3.238   1.787  20.985  0.00  0.00    +0.000 A 
ATOM      7  C   UNL     1       3.810   2.671  20.060  0.00  0.00    +0.000 A 
ATOM      8  C   UNL     1       3.279   3.974  19.930  0.00  0.00    +0.000 A 
ATOM      9  C   UNL     1       3.565   5.136  19.129  0.00  0.00    +0.000 A 
ENDROOT
BRANCH   9  10
ATOM     10  C   UNL     1       4.613   5.320  18.128  0.00  0.00    +0.000 A 
ATOM     11  C   UNL     1       5.725   6.152  18.403  0.00  0.00    +0.000 A 
ATOM     12  C   UNL     1       6.727   6.371  17.450  0.00  0.00    +0.000 A 
ATOM     13  C   UNL     1       6.615   5.718  16.244  0.00  0.00    +0.000 A 
ATOM     14  C   UNL     1       5.552   4.893  15.969  0.00  0.00    +0.000 A 
ATOM     15  C   UNL     1       4.530   4.695  16.873  0.00  0.00    +0.000 A 
ATOM     16  O   UNL     1       5.640   4.327  14.737  0.00  0.00    +0.000 OA
ATOM     17  C   UNL     1       6.854   4.931  14.247  0.00  0.00    +0.000 C 
ATOM     18  O   UNL     1       7.495   5.792  15.211  0.00  0.00    +0.000 OA
ENDBRANCH   9  10
BRANCH   1  24
ATOM     19  C   UNL     1       0.381  10.459  20.497  0.00  0.00    +0.000 C 
ATOM     20  C   UNL     1       1.195   9.605  19.571  0.00  0.00    +0.000 A 
ATOM     21  C   UNL     1       1.552  10.055  18.297  0.00  0.00    +0.000 A 
ATOM     22  C   UNL     1       2.282   9.231  17.441  0.00  0.00    +0.000 A 
ATOM     23  C   UNL     1       2.642   7.944  17.845  0.00  0.00    +0.000 A 
ATOM     24  C   UNL     1       2.288   7.464  19.114  0.00  0.00    +0.000 A 
ATOM     25  C   UNL     1       1.583   8.319  19.974  0.00  0.00    +0.000 A 
ENDBRANCH   1  24
TORSDOF 2
ENDMDL
MODEL 5
REMARK VINA RESULT:      -8.4      2.837      4.742
REMARK  Name = 
REMARK  3 active torsions:
REMARK  status: ('A' for Active; 'I' for Inactive)
REMARK    1  A    between atoms: C_1  and  C_2
REMARK    2  A    between atoms: C_6  and  C_7
REMARK    3  A    between atoms: C_15  and  C_16
REMARK                            x       y       z     vdW  Elec       q    Type
REMARK                         _______ _______ _______ _____ _____    ______ ____
ROOT
ATOM      1  C   UNL     1       3.394   6.780  17.660  0.00  0.00    +0.000 A 
ATOM      2  O   UNL     1       4.248   7.244  16.696  0.00  0.00    +0.000 OA
ATOM      3  C   UNL     1       4.954   6.187  16.222  0.00  0.00    +0.000 A 
ATOM      4  C   UNL     1       5.938   6.259  15.237  0.00  0.00    +0.000 A 
ATOM      5  C   UNL     1       6.568   5.060  14.890  0.00  0.00    +0.000 A 
ATOM      6  C   UNL     1       6.210   3.858  15.503  0.00  0.00    +0.000 A 
ATOM      7  C   UNL     1       5.201   3.820  16.477  0.00  0.00    +0.000 A 
ATOM      8  C   UNL     1       4.565   5.021  16.861  0.00  0.00    +0.000 A 
ATOM      9  C   UNL     1       3.528   5.397  17.787  0.00  0.00    +0.000 A 
ENDROOT
BRANCH   9  10
ATOM     10  C   UNL     1       2.744   4.541  18.675  0.00  0.00    +0.000 A 
ATOM     11  C   UNL     1       1.550   3.937  18.212  0.00  0.00    +0.000 A 
ATOM     12  C   UNL     1       0.762   3.140  19.052  0.00  0.00    +0.000 A 
ATOM     13  C   UNL     1       1.208   2.930  20.336  0.00  0.00    +0.000 A 
ATOM     14  C   UNL     1       2.373   3.494  20.794  0.00  0.00    +0.000 A 
ATOM     15  C   UNL     1       3.144   4.319  20.003  0.00  0.00    +0.000 A 
ATOM     16  O   UNL     1       2.649   3.146  22.079  0.00  0.00    +0.000 OA
ATOM     17  C   UNL     1       1.495   2.340  22.394  0.00  0.00    +0.000 C 
ATOM     18  O   UNL     1       0.591   2.174  21.282  0.00  0.00    +0.000 OA
ENDBRANCH   9  10
BRANCH   1  24
ATOM     19  C   UNL     1       0.854   8.471  21.625  0.00  0.00    +0.000 C 
ATOM     20  C   UNL     1       1.347   8.677  20.224  0.00  0.00    +0.000 A 
ATOM     21  C   UNL     1       0.981   9.805  19.486  0.00  0.00    +0.000 A 
ATOM     22  C   UNL     1       1.427   9.960  18.174  0.00  0.00    +0.000 A 
ATOM     23  C   UNL     1       2.223   8.976  17.583  0.00  0.00    +0.000 A 
ATOM     24  C   UNL     1       2.596   7.829  18.298  0.00  0.00    +0.000 A 
ATOM     25  C   UNL     1       2.167   7.707  19.628  0.00  0.00    +0.000 A 
ENDBRANCH   1  24
TORSDOF 2
ENDMDL
MODEL 6
REMARK VINA RESULT:      -8.4      1.053      1.120
REMARK  Name = 
REMARK  3 active torsions:
REMARK  status: ('A' for Active; 'I' for Inactive)
REMARK    1  A    between atoms: C_1  and  C_2
REMARK    2  A    between atoms: C_6  and  C_7
REMARK    3  A    between atoms: C_15  and  C_16
REMARK                            x       y       z     vdW  Elec       q    Type
REMARK                         _______ _______ _______ _____ _____    ______ ____
ROOT
ATOM      1  C   UNL     1       6.815   5.351  16.015  0.00  0.00    +0.000 A 
ATOM      2  O   UNL     1       7.531   5.530  14.862  0.00  0.00    +0.000 OA
ATOM      3  C   UNL     1       6.956   4.773  13.894  0.00  0.00    +0.000 A 
ATOM      4  C   UNL     1       7.409   4.676  12.579  0.00  0.00    +0.000 A 
ATOM      5  C   UNL     1       6.691   3.830  11.729  0.00  0.00    +0.000 A 
ATOM      6  C   UNL     1       5.573   3.132  12.188  0.00  0.00    +0.000 A 
ATOM      7  C   UNL     1       5.133   3.268  13.513  0.00  0.00    +0.000 A 
ATOM      8  C   UNL     1       5.855   4.100  14.398  0.00  0.00    +0.000 A 
ATOM      9  C   UNL     1       5.742   4.491  15.779  0.00  0.00    +0.000 A 
ENDROOT
BRANCH   9  10
ATOM     10  C   UNL     1       4.724   4.107  16.756  0.00  0.00    +0.000 A 
ATOM     11  C   UNL     1       3.354   4.335  16.485  0.00  0.00    +0.000 A 
ATOM     12  C   UNL     1       2.361   4.008  17.417  0.00  0.00    +0.000 A 
ATOM     13  C   UNL     1       2.760   3.420  18.595  0.00  0.00    +0.000 A 
ATOM     14  C   UNL     1       4.084   3.176  18.865  0.00  0.00    +0.000 A 
ATOM     15  C   UNL     1       5.084   3.529  17.984  0.00  0.00    +0.000 A 
ATOM     16  O   UNL     1       4.266   2.569  20.068  0.00  0.00    +0.000 OA
ATOM     17  C   UNL     1       2.907   2.507  20.547  0.00  0.00    +0.000 C 
ATOM     18  O   UNL     1       1.942   3.018  19.604  0.00  0.00    +0.000 OA
ENDBRANCH   9  10
BRANCH   1  24
ATOM     19  C   UNL     1       8.427   9.623  18.063  0.00  0.00    +0.000 C 
ATOM     20  C   UNL     1       8.151   8.154  18.188  0.00  0.00    +0.000 A 
ATOM     21  C   UNL     1       8.487   7.451  19.348  0.00  0.00    +0.000 A 
ATOM     22  C   UNL     1       8.249   6.079  19.430  0.00  0.00    +0.000 A 
ATOM     23  C   UNL     1       7.693   5.398  18.345  0.00  0.00    +0.000 A 
ATOM     24  C   UNL     1       7.356   6.078  17.166  0.00  0.00    +0.000 A 
ATOM     25  C   UNL     1       7.570   7.463  17.114  0.00  0.00    +0.000 A 
ENDBRANCH   1  24
TORSDOF 2
ENDMDL
MODEL 7
REMARK VINA RESULT:      -8.3      3.091      6.049
REMARK  Name = 
REMARK  3 active torsions:
REMARK  status: ('A' for Active; 'I' for Inactive)
REMARK    1  A    between atoms: C_1  and  C_2
REMARK    2  A    between atoms: C_6  and  C_7
REMARK    3  A    between atoms: C_15  and  C_16
REMARK                            x       y       z     vdW  Elec       q    Type
REMARK                         _______ _______ _______ _____ _____    ______ ____
ROOT
ATOM      1  C   UNL     1       4.262   4.985  18.734  0.00  0.00    +0.000 A 
ATOM      2  O   UNL     1       4.441   3.686  19.130  0.00  0.00    +0.000 OA
ATOM      3  C   UNL     1       3.440   3.373  19.990  0.00  0.00    +0.000 A 
ATOM      4  C   UNL     1       3.286   2.140  20.623  0.00  0.00    +0.000 A 
ATOM      5  C   UNL     1       2.195   2.011  21.489  0.00  0.00    +0.000 A 
ATOM      6  C   UNL     1       1.310   3.071  21.690  0.00  0.00    +0.000 A 
ATOM      7  C   UNL     1       1.484   4.291  21.022  0.00  0.00    +0.000 A 
ATOM      8  C   UNL     1       2.591   4.455  20.158  0.00  0.00    +0.000 A 
ATOM      9  C   UNL     1       3.109   5.506  19.322  0.00  0.00    +0.000 A 
ENDROOT
BRANCH   9  10
ATOM     10  C   UNL     1       2.564   6.843  19.093  0.00  0.00    +0.000 A 
ATOM     11  C   UNL     1       2.658   7.442  17.815  0.00  0.00    +0.000 A 
ATOM     12  C   UNL     1       2.174   8.734  17.576  0.00  0.00    +0.000 A 
ATOM     13  C   UNL     1       1.566   9.391  18.621  0.00  0.00    +0.000 A 
ATOM     14  C   UNL     1       1.451   8.816  19.862  0.00  0.00    +0.000 A 
ATOM     15  C   UNL     1       1.958   7.564  20.136  0.00  0.00    +0.000 A 
ATOM     16  O   UNL     1       0.799   9.616  20.747  0.00  0.00    +0.000 OA
ATOM     17  C   UNL     1       0.565  10.783  19.933  0.00  0.00    +0.000 C 
ATOM     18  O   UNL     1       1.022  10.636  18.573  0.00  0.00    +0.000 OA
ENDBRANCH   9  10
BRANCH   1  24
ATOM     19  C   UNL     1       7.999   8.174  17.783  0.00  0.00    +0.000 C 
ATOM     20  C   UNL     1       7.137   7.028  17.346  0.00  0.00    +0.000 A 
ATOM     21  C   UNL     1       7.250   6.485  16.063  0.00  0.00    +0.000 A 
ATOM     22  C   UNL     1       6.416   5.439  15.668  0.00  0.00    +0.000 A 
ATOM     23  C   UNL     1       5.449   4.944  16.545  0.00  0.00    +0.000 A 
ATOM     24  C   UNL     1       5.307   5.478  17.834  0.00  0.00    +0.000 A 
ATOM     25  C   UNL     1       6.177   6.505  18.227  0.00  0.00    +0.000 A 
ENDBRANCH   1  24
TORSDOF 2
ENDMDL
MODEL 8
REMARK VINA RESULT:      -8.3      2.949      6.245
REMARK  Name = 
REMARK  3 active torsions:
REMARK  status: ('A' for Active; 'I' for Inactive)
REMARK    1  A    between atoms: C_1  and  C_2
REMARK    2  A    between atoms: C_6  and  C_7
REMARK    3  A    between atoms: C_15  and  C_16
REMARK                            x       y       z     vdW  Elec       q    Type
REMARK                         _______ _______ _______ _____ _____    ______ ____
ROOT
ATOM      1  C   UNL     1       3.621   4.842  18.491  0.00  0.00    +0.000 A 
ATOM      2  O   UNL     1       4.739   4.135  18.142  0.00  0.00    +0.000 OA
ATOM      3  C   UNL     1       5.662   5.016  17.681  0.00  0.00    +0.000 A 
ATOM      4  C   UNL     1       6.931   4.676  17.213  0.00  0.00    +0.000 A 
ATOM      5  C   UNL     1       7.737   5.726  16.764  0.00  0.00    +0.000 A 
ATOM      6  C   UNL     1       7.280   7.045  16.797  0.00  0.00    +0.000 A 
ATOM      7  C   UNL     1       6.005   7.353  17.292  0.00  0.00    +0.000 A 
ATOM      8  C   UNL     1       5.163   6.308  17.732  0.00  0.00    +0.000 A 
ATOM      9  C   UNL     1       3.837   6.205  18.282  0.00  0.00    +0.000 A 
ENDROOT
BRANCH   9  10
ATOM     10  C   UNL     1       2.891   7.276  18.592  0.00  0.00    +0.000 A 
ATOM     11  C   UNL     1       2.572   8.250  17.615  0.00  0.00    +0.000 A 
ATOM     12  C   UNL     1       1.696   9.305  17.895  0.00  0.00    +0.000 A 
ATOM     13  C   UNL     1       1.121   9.343  19.145  0.00  0.00    +0.000 A 
ATOM     14  C   UNL     1       1.406   8.396  20.097  0.00  0.00    +0.000 A 
ATOM     15  C   UNL     1       2.300   7.372  19.862  0.00  0.00    +0.000 A 
ATOM     16  O   UNL     1       0.721   8.598  21.253  0.00  0.00    +0.000 OA
ATOM     17  C   UNL     1       0.010   9.812  20.937  0.00  0.00    +0.000 C 
ATOM     18  O   UNL     1       0.236  10.275  19.589  0.00  0.00    +0.000 OA
ENDBRANCH   9  10
BRANCH   1  24
ATOM     19  C   UNL     1       1.309   2.437  22.221  0.00  0.00    +0.000 C 
ATOM     20  C   UNL     1       1.368   2.820  20.772  0.00  0.00    +0.000 A 
ATOM     21  C   UNL     1       0.445   2.318  19.852  0.00  0.00    +0.000 A 
ATOM     22  C   UNL     1       0.539   2.664  18.504  0.00  0.00    +0.000 A 
ATOM     23  C   UNL     1       1.570   3.496  18.064  0.00  0.00    +0.000 A 
ATOM     24  C   UNL     1       2.516   4.006  18.965  0.00  0.00    +0.000 A 
ATOM     25  C   UNL     1       2.386   3.675  20.322  0.00  0.00    +0.000 A 
ENDBRANCH   1  24
TORSDOF 2
ENDMDL
MODEL 9
REMARK VINA RESULT:      -8.3      3.063      6.203
REMARK  Name = 
REMARK  3 active torsions:
REMARK  status: ('A' for Active; 'I' for Inactive)
REMARK    1  A    between atoms: C_1  and  C_2
REMARK    2  A    between atoms: C_6  and  C_7
REMARK    3  A    between atoms: C_15  and  C_16
REMARK                            x       y       z     vdW  Elec       q    Type
REMARK                         _______ _______ _______ _____ _____    ______ ____
ROOT
ATOM      1  C   UNL     1       4.257   4.890  18.696  0.00  0.00    +0.000 A 
ATOM      2  O   UNL     1       4.424   3.596  19.111  0.00  0.00    +0.000 OA
ATOM      3  C   UNL     1       3.442   3.315  20.004  0.00  0.00    +0.000 A 
ATOM      4  C   UNL     1       3.285   2.097  20.664  0.00  0.00    +0.000 A 
ATOM      5  C   UNL     1       2.217   2.003  21.562  0.00  0.00    +0.000 A 
ATOM      6  C   UNL     1       1.356   3.083  21.767  0.00  0.00    +0.000 A 
ATOM      7  C   UNL     1       1.532   4.287  21.071  0.00  0.00    +0.000 A 
ATOM      8  C   UNL     1       2.617   4.415  20.175  0.00  0.00    +0.000 A 
ATOM      9  C   UNL     1       3.130   5.442  19.306  0.00  0.00    +0.000 A 
ENDROOT
BRANCH   9  10
ATOM     10  C   UNL     1       2.601   6.784  19.067  0.00  0.00    +0.000 A 
ATOM     11  C   UNL     1       2.733   7.385  17.793  0.00  0.00    +0.000 A 
ATOM     12  C   UNL     1       2.265   8.682  17.546  0.00  0.00    +0.000 A 
ATOM     13  C   UNL     1       1.636   9.341  18.577  0.00  0.00    +0.000 A 
ATOM     14  C   UNL     1       1.484   8.763  19.813  0.00  0.00    +0.000 A 
ATOM     15  C   UNL     1       1.975   7.506  20.095  0.00  0.00    +0.000 A 
ATOM     16  O   UNL     1       0.817   9.566  20.683  0.00  0.00    +0.000 OA
ATOM     17  C   UNL     1       0.613  10.738  19.867  0.00  0.00    +0.000 C 
ATOM     18  O   UNL     1       1.103  10.590  18.518  0.00  0.00    +0.000 OA
ENDBRANCH   9  10
BRANCH   1  24
ATOM     19  C   UNL     1       6.427   4.631  14.195  0.00  0.00    +0.000 C 
ATOM     20  C   UNL     1       6.363   5.238  15.564  0.00  0.00    +0.000 A 
ATOM     21  C   UNL     1       7.321   6.160  15.993  0.00  0.00    +0.000 A 
ATOM     22  C   UNL     1       7.260   6.687  17.283  0.00  0.00    +0.000 A 
ATOM     23  C   UNL     1       6.253   6.279  18.160  0.00  0.00    +0.000 A 
ATOM     24  C   UNL     1       5.285   5.347  17.758  0.00  0.00    +0.000 A 
ATOM     25  C   UNL     1       5.342   4.854  16.447  0.00  0.00    +0.000 A 
ENDBRANCH   1  24
TORSDOF 2
ENDMDL
