MODEL 1
REMARK VINA RESULT:      -8.0      0.000      0.000
REMARK  Name = 
REMARK  6 active torsions:
REMARK  status: ('A' for Active; 'I' for Inactive)
REMARK    1  A    between atoms: C_1  and  O_2
REMARK    2  A    between atoms: O_2  and  C_3
REMARK    3  A    between atoms: C_4  and  C_5
REMARK    4  A    between atoms: N_7  and  C_8
REMARK    5  A    between atoms: N_11  and  C_12
REMARK    6  A    between atoms: C_12  and  C_13
REMARK                            x       y       z     vdW  Elec       q    Type
REMARK                         _______ _______ _______ _____ _____    ______ ____
ROOT
ATOM      1  C   UNL     1       1.694   8.683  19.049  0.00  0.00    +0.000 C 
ATOM      2  O   UNL     1       1.896   9.076  17.903  0.00  0.00    +0.000 OA
ATOM      3  N   UNL     1       2.201   7.469  19.508  0.00  0.00    +0.000 N 
ATOM      4  H   UNL     1       1.898   7.094  20.399  0.00  0.00    +0.000 HD
ENDROOT
BRANCH   1   6
ATOM      5  C   UNL     1      -0.041  10.485  19.613  0.00  0.00    +0.000 A 
ATOM      6  C   UNL     1       0.897   9.508  20.009  0.00  0.00    +0.000 A 
ATOM      7  C   UNL     1       1.103   9.359  21.369  0.00  0.00    +0.000 A 
ATOM      8  N   UNL     1       0.443  10.046  22.329  0.00  0.00    +0.000 NA
ATOM      9  C   UNL     1      -0.492  10.931  21.950  0.00  0.00    +0.000 A 
ATOM     10  C   UNL     1      -1.185  11.603  22.952  0.00  0.00    +0.000 A 
ATOM     11  C   UNL     1      -2.192  12.529  22.670  0.00  0.00    +0.000 A 
ATOM     12  C   UNL     1      -2.538  12.773  21.353  0.00  0.00    +0.000 A 
ATOM     13  C   UNL     1      -1.870  12.093  20.336  0.00  0.00    +0.000 A 
ATOM     14  C   UNL     1      -0.804  11.187  20.598  0.00  0.00    +0.000 A 
BRANCH   5  16
ATOM     15  C   UNL     1      -1.458  10.019  17.751  0.00  0.00    +0.000 C 
ATOM     16  O   UNL     1      -0.272  10.632  18.263  0.00  0.00    +0.000 OA
ENDBRANCH   5  16
ENDBRANCH   1   6
BRANCH   3  17
ATOM     17  C   UNL     1       2.854   6.527  18.589  0.00  0.00    +0.000 C 
ATOM     18  C   UNL     1       1.889   5.434  18.152  0.00  0.00    +0.000 C 
ATOM     19  C   UNL     1       2.104   4.353  19.196  0.00  0.00    +0.000 C 
ATOM     20  N   UNL     1       3.555   4.339  19.456  0.00  0.00    +0.000 NA
ATOM     21  C   UNL     1       4.008   5.737  19.245  0.00  0.00    +0.000 C 
BRANCH  20  22
ATOM     22  C   UNL     1       4.228   3.385  18.549  0.00  0.00    +0.000 C 
BRANCH  22  23
ATOM     23  C   UNL     1       5.166   4.029  17.548  0.00  0.00    +0.000 A 
ATOM     24  C   UNL     1       6.455   4.433  17.922  0.00  0.00    +0.000 A 
ATOM     25  C   UNL     1       7.321   5.002  16.986  0.00  0.00    +0.000 A 
ATOM     26  C   UNL     1       6.910   5.174  15.665  0.00  0.00    +0.000 A 
ATOM     27  C   UNL     1       5.632   4.776  15.279  0.00  0.00    +0.000 A 
ATOM     28  C   UNL     1       4.766   4.206  16.214  0.00  0.00    +0.000 A 
ENDBRANCH  22  23
ENDBRANCH  20  22
ENDBRANCH   3  17
TORSDOF 5
ENDMDL
MODEL 2
REMARK VINA RESULT:      -7.9      1.153      1.940
REMARK  Name = 
REMARK  6 active torsions:
REMARK  status: ('A' for Active; 'I' for Inactive)
REMARK    1  A    between atoms: C_1  and  O_2
REMARK    2  A    between atoms: O_2  and  C_3
REMARK    3  A    between atoms: C_4  and  C_5
REMARK    4  A    between atoms: N_7  and  C_8
REMARK    5  A    between atoms: N_11  and  C_12
REMARK    6  A    between atoms: C_12  and  C_13
REMARK                            x       y       z     vdW  Elec       q    Type
REMARK                         _______ _______ _______ _____ _____    ______ ____
ROOT
ATOM      1  C   UNL     1       1.697   8.812  18.491  0.00  0.00    +0.000 C 
ATOM      2  O   UNL     1       2.194   9.133  17.415  0.00  0.00    +0.000 OA
ATOM      3  N   UNL     1       1.989   7.592  19.100  0.00  0.00    +0.000 N 
ATOM      4  H   UNL     1       1.456   7.282  19.903  0.00  0.00    +0.000 HD
ENDROOT
BRANCH   1   6
ATOM      5  C   UNL     1       0.387   9.583  20.556  0.00  0.00    +0.000 A 
ATOM      6  C   UNL     1       0.757   9.733  19.203  0.00  0.00    +0.000 A 
ATOM      7  C   UNL     1       0.166  10.773  18.507  0.00  0.00    +0.000 A 
ATOM      8  N   UNL     1      -0.696  11.667  19.044  0.00  0.00    +0.000 NA
ATOM      9  C   UNL     1      -0.999  11.559  20.346  0.00  0.00    +0.000 A 
ATOM     10  C   UNL     1      -1.859  12.508  20.888  0.00  0.00    +0.000 A 
ATOM     11  C   UNL     1      -2.224  12.501  22.236  0.00  0.00    +0.000 A 
ATOM     12  C   UNL     1      -1.695  11.537  23.076  0.00  0.00    +0.000 A 
ATOM     13  C   UNL     1      -0.814  10.591  22.556  0.00  0.00    +0.000 A 
ATOM     14  C   UNL     1      -0.472  10.545  21.175  0.00  0.00    +0.000 A 
BRANCH   5  16
ATOM     15  C   UNL     1       1.809   8.956  22.366  0.00  0.00    +0.000 C 
ATOM     16  O   UNL     1       0.982   8.565  21.268  0.00  0.00    +0.000 OA
ENDBRANCH   5  16
ENDBRANCH   1   6
BRANCH   3  17
ATOM     17  C   UNL     1       2.770   6.565  18.397  0.00  0.00    +0.000 C 
ATOM     18  C   UNL     1       1.908   5.353  18.072  0.00  0.00    +0.000 C 
ATOM     19  C   UNL     1       2.095   4.467  19.291  0.00  0.00    +0.000 C 
ATOM     20  N   UNL     1       3.517   4.595  19.657  0.00  0.00    +0.000 NA
ATOM     21  C   UNL     1       3.906   5.971  19.256  0.00  0.00    +0.000 C 
BRANCH  20  22
ATOM     22  C   UNL     1       4.317   3.559  18.969  0.00  0.00    +0.000 C 
BRANCH  22  23
ATOM     23  C   UNL     1       5.214   4.090  17.868  0.00  0.00    +0.000 A 
ATOM     24  C   UNL     1       6.468   4.643  18.161  0.00  0.00    +0.000 A 
ATOM     25  C   UNL     1       7.297   5.106  17.137  0.00  0.00    +0.000 A 
ATOM     26  C   UNL     1       6.883   5.021  15.808  0.00  0.00    +0.000 A 
ATOM     27  C   UNL     1       5.640   4.472  15.502  0.00  0.00    +0.000 A 
ATOM     28  C   UNL     1       4.811   4.008  16.526  0.00  0.00    +0.000 A 
ENDBRANCH  22  23
ENDBRANCH  20  22
ENDBRANCH   3  17
TORSDOF 5
ENDMDL
MODEL 3
REMARK VINA RESULT:      -7.7      2.234      9.453
REMARK  Name = 
REMARK  6 active torsions:
REMARK  status: ('A' for Active; 'I' for Inactive)
REMARK    1  A    between atoms: C_1  and  O_2
REMARK    2  A    between atoms: O_2  and  C_3
REMARK    3  A    between atoms: C_4  and  C_5
REMARK    4  A    between atoms: N_7  and  C_8
REMARK    5  A    between atoms: N_11  and  C_12
REMARK    6  A    between atoms: C_12  and  C_13
REMARK                            x       y       z     vdW  Elec       q    Type
REMARK                         _______ _______ _______ _____ _____    ______ ____
ROOT
ATOM      1  C   UNL     1       2.188   6.358  20.049  0.00  0.00    +0.000 C 
ATOM      2  O   UNL     1       1.679   5.379  20.586  0.00  0.00    +0.000 OA
ATOM      3  N   UNL     1       1.979   7.651  20.528  0.00  0.00    +0.000 N 
ATOM      4  H   UNL     1       2.279   8.451  19.985  0.00  0.00    +0.000 HD
ENDROOT
BRANCH   1   6
ATOM      5  C   UNL     1       3.622   4.966  18.442  0.00  0.00    +0.000 A 
ATOM      6  C   UNL     1       3.072   6.199  18.852  0.00  0.00    +0.000 A 
ATOM      7  C   UNL     1       3.425   7.315  18.113  0.00  0.00    +0.000 A 
ATOM      8  N   UNL     1       4.214   7.293  17.014  0.00  0.00    +0.000 NA
ATOM      9  C   UNL     1       4.686   6.111  16.591  0.00  0.00    +0.000 A 
ATOM     10  C   UNL     1       5.467   6.104  15.441  0.00  0.00    +0.000 A 
ATOM     11  C   UNL     1       5.992   4.928  14.902  0.00  0.00    +0.000 A 
ATOM     12  C   UNL     1       5.708   3.718  15.511  0.00  0.00    +0.000 A 
ATOM     13  C   UNL     1       4.909   3.702  16.652  0.00  0.00    +0.000 A 
ATOM     14  C   UNL     1       4.410   4.894  17.250  0.00  0.00    +0.000 A 
BRANCH   5  16
ATOM     15  C   UNL     1       4.313   3.194  19.882  0.00  0.00    +0.000 C 
ATOM     16  O   UNL     1       3.266   3.844  19.156  0.00  0.00    +0.000 OA
ENDBRANCH   5  16
ENDBRANCH   1   6
BRANCH   3  17
ATOM     17  C   UNL     1       1.002   7.912  21.593  0.00  0.00    +0.000 C 
ATOM     18  C   UNL     1      -0.373   8.210  21.011  0.00  0.00    +0.000 C 
ATOM     19  C   UNL     1      -0.352   9.720  20.848  0.00  0.00    +0.000 C 
ATOM     20  N   UNL     1       0.346  10.235  22.039  0.00  0.00    +0.000 NA
ATOM     21  C   UNL     1       1.320   9.179  22.414  0.00  0.00    +0.000 C 
BRANCH  20  22
ATOM     22  C   UNL     1      -0.624  10.518  23.118  0.00  0.00    +0.000 C 
BRANCH  22  23
ATOM     23  C   UNL     1      -1.336  11.850  22.986  0.00  0.00    +0.000 A 
ATOM     24  C   UNL     1      -0.680  12.971  22.460  0.00  0.00    +0.000 A 
ATOM     25  C   UNL     1      -1.353  14.187  22.319  0.00  0.00    +0.000 A 
ATOM     26  C   UNL     1      -2.689  14.296  22.700  0.00  0.00    +0.000 A 
ATOM     27  C   UNL     1      -3.354  13.189  23.223  0.00  0.00    +0.000 A 
ATOM     28  C   UNL     1      -2.683  11.973  23.363  0.00  0.00    +0.000 A 
ENDBRANCH  22  23
ENDBRANCH  20  22
ENDBRANCH   3  17
TORSDOF 5
ENDMDL
MODEL 4
REMARK VINA RESULT:      -7.7      0.817      1.359
REMARK  Name = 
REMARK  6 active torsions:
REMARK  status: ('A' for Active; 'I' for Inactive)
REMARK    1  A    between atoms: C_1  and  O_2
REMARK    2  A    between atoms: O_2  and  C_3
REMARK    3  A    between atoms: C_4  and  C_5
REMARK    4  A    between atoms: N_7  and  C_8
REMARK    5  A    between atoms: N_11  and  C_12
REMARK    6  A    between atoms: C_12  and  C_13
REMARK                            x       y       z     vdW  Elec       q    Type
REMARK                         _______ _______ _______ _____ _____    ______ ____
ROOT
ATOM      1  C   UNL     1       1.587   8.533  19.040  0.00  0.00    +0.000 C 
ATOM      2  O   UNL     1       1.593   8.864  17.858  0.00  0.00    +0.000 OA
ATOM      3  N   UNL     1       2.272   7.405  19.491  0.00  0.00    +0.000 N 
ATOM      4  H   UNL     1       2.131   7.065  20.434  0.00  0.00    +0.000 HD
ENDROOT
BRANCH   1   6
ATOM      5  C   UNL     1       0.530  10.708  19.892  0.00  0.00    +0.000 A 
ATOM      6  C   UNL     1       0.845   9.343  20.056  0.00  0.00    +0.000 A 
ATOM      7  C   UNL     1       0.476   8.759  21.255  0.00  0.00    +0.000 A 
ATOM      8  N   UNL     1      -0.197   9.390  22.245  0.00  0.00    +0.000 NA
ATOM      9  C   UNL     1      -0.549  10.671  22.060  0.00  0.00    +0.000 A 
ATOM     10  C   UNL     1      -1.270  11.293  23.074  0.00  0.00    +0.000 A 
ATOM     11  C   UNL     1      -1.704  12.616  22.977  0.00  0.00    +0.000 A 
ATOM     12  C   UNL     1      -1.437  13.334  21.825  0.00  0.00    +0.000 A 
ATOM     13  C   UNL     1      -0.735  12.721  20.789  0.00  0.00    +0.000 A 
ATOM     14  C   UNL     1      -0.234  11.393  20.889  0.00  0.00    +0.000 A 
BRANCH   5  16
ATOM     15  C   UNL     1       1.989  12.194  18.729  0.00  0.00    +0.000 C 
ATOM     16  O   UNL     1       0.875  11.300  18.696  0.00  0.00    +0.000 OA
ENDBRANCH   5  16
ENDBRANCH   1   6
BRANCH   3  17
ATOM     17  C   UNL     1       2.889   6.468  18.542  0.00  0.00    +0.000 C 
ATOM     18  C   UNL     1       1.909   5.374  18.142  0.00  0.00    +0.000 C 
ATOM     19  C   UNL     1       2.170   4.290  19.172  0.00  0.00    +0.000 C 
ATOM     20  N   UNL     1       3.630   4.279  19.372  0.00  0.00    +0.000 NA
ATOM     21  C   UNL     1       4.070   5.679  19.147  0.00  0.00    +0.000 C 
BRANCH  20  22
ATOM     22  C   UNL     1       4.267   3.330  18.435  0.00  0.00    +0.000 C 
BRANCH  22  23
ATOM     23  C   UNL     1       5.216   3.972  17.443  0.00  0.00    +0.000 A 
ATOM     24  C   UNL     1       4.843   4.163  16.106  0.00  0.00    +0.000 A 
ATOM     25  C   UNL     1       5.715   4.779  15.206  0.00  0.00    +0.000 A 
ATOM     26  C   UNL     1       6.970   5.212  15.631  0.00  0.00    +0.000 A 
ATOM     27  C   UNL     1       7.354   5.029  16.958  0.00  0.00    +0.000 A 
ATOM     28  C   UNL     1       6.482   4.415  17.859  0.00  0.00    +0.000 A 
ENDBRANCH  22  23
ENDBRANCH  20  22
ENDBRANCH   3  17
TORSDOF 5
ENDMDL
MODEL 5
REMARK VINA RESULT:      -7.7      2.229      9.450
REMARK  Name = 
REMARK  6 active torsions:
REMARK  status: ('A' for Active; 'I' for Inactive)
REMARK    1  A    between atoms: C_1  and  O_2
REMARK    2  A    between atoms: O_2  and  C_3
REMARK    3  A    between atoms: C_4  and  C_5
REMARK    4  A    between atoms: N_7  and  C_8
REMARK    5  A    between atoms: N_11  and  C_12
REMARK    6  A    between atoms: C_12  and  C_13
REMARK                            x       y       z     vdW  Elec       q    Type
REMARK                         _______ _______ _______ _____ _____    ______ ____
ROOT
ATOM      1  C   UNL     1       2.170   6.402  20.112  0.00  0.00    +0.000 C 
ATOM      2  O   UNL     1       1.662   5.428  20.661  0.00  0.00    +0.000 OA
ATOM      3  N   UNL     1       1.964   7.699  20.580  0.00  0.00    +0.000 N 
ATOM      4  H   UNL     1       2.264   8.494  20.028  0.00  0.00    +0.000 HD
ENDROOT
BRANCH   1   6
ATOM      5  C   UNL     1       3.658   5.009  18.557  0.00  0.00    +0.000 A 
ATOM      6  C   UNL     1       3.049   6.230  18.913  0.00  0.00    +0.000 A 
ATOM      7  C   UNL     1       3.336   7.325  18.117  0.00  0.00    +0.000 A 
ATOM      8  N   UNL     1       4.114   7.290  17.010  0.00  0.00    +0.000 NA
ATOM      9  C   UNL     1       4.643   6.114  16.639  0.00  0.00    +0.000 A 
ATOM     10  C   UNL     1       5.411   6.091  15.481  0.00  0.00    +0.000 A 
ATOM     11  C   UNL     1       5.991   4.919  14.993  0.00  0.00    +0.000 A 
ATOM     12  C   UNL     1       5.777   3.727  15.663  0.00  0.00    +0.000 A 
ATOM     13  C   UNL     1       4.991   3.726  16.815  0.00  0.00    +0.000 A 
ATOM     14  C   UNL     1       4.437   4.918  17.360  0.00  0.00    +0.000 A 
BRANCH   5  16
ATOM     15  C   UNL     1       2.472   2.949  18.758  0.00  0.00    +0.000 C 
ATOM     16  O   UNL     1       3.368   3.905  19.329  0.00  0.00    +0.000 OA
ENDBRANCH   5  16
ENDBRANCH   1   6
BRANCH   3  17
ATOM     17  C   UNL     1       0.992   7.972  21.646  0.00  0.00    +0.000 C 
ATOM     18  C   UNL     1      -0.388   8.253  21.067  0.00  0.00    +0.000 C 
ATOM     19  C   UNL     1      -0.377   9.759  20.879  0.00  0.00    +0.000 C 
ATOM     20  N   UNL     1       0.325  10.299  22.057  0.00  0.00    +0.000 NA
ATOM     21  C   UNL     1       1.307   9.255  22.445  0.00  0.00    +0.000 C 
BRANCH  20  22
ATOM     22  C   UNL     1      -0.640  10.593  23.137  0.00  0.00    +0.000 C 
BRANCH  22  23
ATOM     23  C   UNL     1      -1.387  11.902  22.970  0.00  0.00    +0.000 A 
ATOM     24  C   UNL     1      -2.742  12.010  23.311  0.00  0.00    +0.000 A 
ATOM     25  C   UNL     1      -3.413  13.227  23.177  0.00  0.00    +0.000 A 
ATOM     26  C   UNL     1      -2.739  14.351  22.701  0.00  0.00    +0.000 A 
ATOM     27  C   UNL     1      -1.391  14.258  22.359  0.00  0.00    +0.000 A 
ATOM     28  C   UNL     1      -0.719  13.042  22.494  0.00  0.00    +0.000 A 
ENDBRANCH  22  23
ENDBRANCH  20  22
ENDBRANCH   3  17
TORSDOF 5
ENDMDL
MODEL 6
REMARK VINA RESULT:      -7.7      1.530      2.125
REMARK  Name = 
REMARK  6 active torsions:
REMARK  status: ('A' for Active; 'I' for Inactive)
REMARK    1  A    between atoms: C_1  and  O_2
REMARK    2  A    between atoms: O_2  and  C_3
REMARK    3  A    between atoms: C_4  and  C_5
REMARK    4  A    between atoms: N_7  and  C_8
REMARK    5  A    between atoms: N_11  and  C_12
REMARK    6  A    between atoms: C_12  and  C_13
REMARK                            x       y       z     vdW  Elec       q    Type
REMARK                         _______ _______ _______ _____ _____    ______ ____
ROOT
ATOM      1  C   UNL     1       1.627   9.187  18.535  0.00  0.00    +0.000 C 
ATOM      2  O   UNL     1       1.617   9.228  17.307  0.00  0.00    +0.000 OA
ATOM      3  N   UNL     1       2.031   8.047  19.228  0.00  0.00    +0.000 N 
ATOM      4  H   UNL     1       1.888   7.980  20.228  0.00  0.00    +0.000 HD
ENDROOT
BRANCH   1   6
ATOM      5  C   UNL     1       0.228  10.334  20.352  0.00  0.00    +0.000 A 
ATOM      6  C   UNL     1       1.212  10.376  19.342  0.00  0.00    +0.000 A 
ATOM      7  C   UNL     1       1.775  11.612  19.072  0.00  0.00    +0.000 A 
ATOM      8  N   UNL     1       1.479  12.754  19.734  0.00  0.00    +0.000 NA
ATOM      9  C   UNL     1       0.587  12.698  20.735  0.00  0.00    +0.000 A 
ATOM     10  C   UNL     1       0.323  13.875  21.427  0.00  0.00    +0.000 A 
ATOM     11  C   UNL     1      -0.571  13.926  22.498  0.00  0.00    +0.000 A 
ATOM     12  C   UNL     1      -1.200  12.765  22.911  0.00  0.00    +0.000 A 
ATOM     13  C   UNL     1      -0.931  11.571  22.245  0.00  0.00    +0.000 A 
ATOM     14  C   UNL     1      -0.066  11.507  21.116  0.00  0.00    +0.000 A 
BRANCH   5  16
ATOM     15  C   UNL     1      -0.029   8.568  21.935  0.00  0.00    +0.000 C 
ATOM     16  O   UNL     1      -0.328   9.108  20.645  0.00  0.00    +0.000 OA
ENDBRANCH   5  16
ENDBRANCH   1   6
BRANCH   3  17
ATOM     17  C   UNL     1       2.299   6.788  18.519  0.00  0.00    +0.000 C 
ATOM     18  C   UNL     1       1.810   5.593  19.327  0.00  0.00    +0.000 C 
ATOM     19  C   UNL     1       3.025   5.225  20.158  0.00  0.00    +0.000 C 
ATOM     20  N   UNL     1       4.183   5.402  19.264  0.00  0.00    +0.000 NA
ATOM     21  C   UNL     1       3.804   6.499  18.338  0.00  0.00    +0.000 C 
BRANCH  20  22
ATOM     22  C   UNL     1       4.477   4.140  18.553  0.00  0.00    +0.000 C 
BRANCH  22  23
ATOM     23  C   UNL     1       5.340   4.304  17.317  0.00  0.00    +0.000 A 
ATOM     24  C   UNL     1       4.800   4.153  16.033  0.00  0.00    +0.000 A 
ATOM     25  C   UNL     1       5.598   4.332  14.901  0.00  0.00    +0.000 A 
ATOM     26  C   UNL     1       6.945   4.664  15.039  0.00  0.00    +0.000 A 
ATOM     27  C   UNL     1       7.495   4.818  16.310  0.00  0.00    +0.000 A 
ATOM     28  C   UNL     1       6.697   4.641  17.442  0.00  0.00    +0.000 A 
ENDBRANCH  22  23
ENDBRANCH  20  22
ENDBRANCH   3  17
TORSDOF 5
ENDMDL
MODEL 7
REMARK VINA RESULT:      -7.6      1.945      2.981
REMARK  Name = 
REMARK  6 active torsions:
REMARK  status: ('A' for Active; 'I' for Inactive)
REMARK    1  A    between atoms: C_1  and  O_2
REMARK    2  A    between atoms: O_2  and  C_3
REMARK    3  A    between atoms: C_4  and  C_5
REMARK    4  A    between atoms: N_7  and  C_8
REMARK    5  A    between atoms: N_11  and  C_12
REMARK    6  A    between atoms: C_12  and  C_13
REMARK                            x       y       z     vdW  Elec       q    Type
REMARK                         _______ _______ _______ _____ _____    ______ ____
ROOT
ATOM      1  C   UNL     1       2.237   6.566  19.893  0.00  0.00    +0.000 C 
ATOM      2  O   UNL     1       1.765   5.468  20.175  0.00  0.00    +0.000 OA
ATOM      3  N   UNL     1       3.381   6.694  19.106  0.00  0.00    +0.000 N 
ATOM      4  H   UNL     1       3.838   7.592  19.013  0.00  0.00    +0.000 HD
ENDROOT
BRANCH   1   6
ATOM      5  C   UNL     1       1.214   8.890  19.537  0.00  0.00    +0.000 A 
ATOM      6  C   UNL     1       1.589   7.823  20.381  0.00  0.00    +0.000 A 
ATOM      7  C   UNL     1       1.374   7.997  21.737  0.00  0.00    +0.000 A 
ATOM      8  N   UNL     1       0.797   9.088  22.292  0.00  0.00    +0.000 NA
ATOM      9  C   UNL     1       0.387  10.075  21.481  0.00  0.00    +0.000 A 
ATOM     10  C   UNL     1      -0.235  11.172  22.067  0.00  0.00    +0.000 A 
ATOM     11  C   UNL     1      -0.719  12.244  21.316  0.00  0.00    +0.000 A 
ATOM     12  C   UNL     1      -0.606  12.212  19.937  0.00  0.00    +0.000 A 
ATOM     13  C   UNL     1      -0.005  11.110  19.330  0.00  0.00    +0.000 A 
ATOM     14  C   UNL     1       0.545  10.032  20.079  0.00  0.00    +0.000 A 
BRANCH   5  16
ATOM     15  C   UNL     1       2.383   9.569  17.571  0.00  0.00    +0.000 C 
ATOM     16  O   UNL     1       1.404   8.725  18.183  0.00  0.00    +0.000 OA
ENDBRANCH   5  16
ENDBRANCH   1   6
BRANCH   3  17
ATOM     17  C   UNL     1       4.169   5.515  18.723  0.00  0.00    +0.000 C 
ATOM     18  C   UNL     1       5.660   5.814  18.780  0.00  0.00    +0.000 C 
ATOM     19  C   UNL     1       5.962   6.304  17.375  0.00  0.00    +0.000 C 
ATOM     20  N   UNL     1       5.163   5.449  16.479  0.00  0.00    +0.000 NA
ATOM     21  C   UNL     1       3.950   5.088  17.256  0.00  0.00    +0.000 C 
BRANCH  20  22
ATOM     22  C   UNL     1       5.946   4.264  16.070  0.00  0.00    +0.000 C 
BRANCH  22  23
ATOM     23  C   UNL     1       6.353   4.256  14.610  0.00  0.00    +0.000 A 
ATOM     24  C   UNL     1       5.687   3.446  13.679  0.00  0.00    +0.000 A 
ATOM     25  C   UNL     1       6.053   3.466  12.331  0.00  0.00    +0.000 A 
ATOM     26  C   UNL     1       7.088   4.294  11.898  0.00  0.00    +0.000 A 
ATOM     27  C   UNL     1       7.757   5.105  12.812  0.00  0.00    +0.000 A 
ATOM     28  C   UNL     1       7.390   5.087  14.160  0.00  0.00    +0.000 A 
ENDBRANCH  22  23
ENDBRANCH  20  22
ENDBRANCH   3  17
TORSDOF 5
ENDMDL
MODEL 8
REMARK VINA RESULT:      -7.6      2.725      4.459
REMARK  Name = 
REMARK  6 active torsions:
REMARK  status: ('A' for Active; 'I' for Inactive)
REMARK    1  A    between atoms: C_1  and  O_2
REMARK    2  A    between atoms: O_2  and  C_3
REMARK    3  A    between atoms: C_4  and  C_5
REMARK    4  A    between atoms: N_7  and  C_8
REMARK    5  A    between atoms: N_11  and  C_12
REMARK    6  A    between atoms: C_12  and  C_13
REMARK                            x       y       z     vdW  Elec       q    Type
REMARK                         _______ _______ _______ _____ _____    ______ ____
ROOT
ATOM      1  C   UNL     1      -0.869  11.856  19.865  0.00  0.00    +0.000 C 
ATOM      2  O   UNL     1      -0.064  12.766  20.047  0.00  0.00    +0.000 OA
ATOM      3  N   UNL     1      -0.462  10.528  19.750  0.00  0.00    +0.000 N 
ATOM      4  H   UNL     1      -1.119   9.817  19.451  0.00  0.00    +0.000 HD
ENDROOT
BRANCH   1   6
ATOM      5  C   UNL     1      -3.190  11.548  18.819  0.00  0.00    +0.000 A 
ATOM      6  C   UNL     1      -2.335  12.142  19.771  0.00  0.00    +0.000 A 
ATOM      7  C   UNL     1      -2.903  13.072  20.624  0.00  0.00    +0.000 A 
ATOM      8  N   UNL     1      -4.214  13.410  20.632  0.00  0.00    +0.000 NA
ATOM      9  C   UNL     1      -5.035  12.799  19.766  0.00  0.00    +0.000 A 
ATOM     10  C   UNL     1      -6.384  13.134  19.813  0.00  0.00    +0.000 A 
ATOM     11  C   UNL     1      -7.329  12.544  18.971  0.00  0.00    +0.000 A 
ATOM     12  C   UNL     1      -6.924  11.571  18.075  0.00  0.00    +0.000 A 
ATOM     13  C   UNL     1      -5.580  11.206  18.028  0.00  0.00    +0.000 A 
ATOM     14  C   UNL     1      -4.591  11.834  18.837  0.00  0.00    +0.000 A 
BRANCH   5  16
ATOM     15  C   UNL     1      -2.425  11.017  16.623  0.00  0.00    +0.000 C 
ATOM     16  O   UNL     1      -2.643  10.606  17.975  0.00  0.00    +0.000 OA
ENDBRANCH   5  16
ENDBRANCH   1   6
BRANCH   3  17
ATOM     17  C   UNL     1       0.962  10.179  19.669  0.00  0.00    +0.000 C 
ATOM     18  C   UNL     1       1.503  10.419  18.267  0.00  0.00    +0.000 C 
ATOM     19  C   UNL     1       1.277   9.083  17.582  0.00  0.00    +0.000 C 
ATOM     20  N   UNL     1       1.591   8.062  18.597  0.00  0.00    +0.000 NA
ATOM     21  C   UNL     1       1.236   8.678  19.901  0.00  0.00    +0.000 C 
BRANCH  20  22
ATOM     22  C   UNL     1       3.019   7.687  18.521  0.00  0.00    +0.000 C 
BRANCH  22  23
ATOM     23  C   UNL     1       3.269   6.269  18.046  0.00  0.00    +0.000 A 
ATOM     24  C   UNL     1       2.242   5.316  18.046  0.00  0.00    +0.000 A 
ATOM     25  C   UNL     1       2.477   4.019  17.582  0.00  0.00    +0.000 A 
ATOM     26  C   UNL     1       3.740   3.661  17.111  0.00  0.00    +0.000 A 
ATOM     27  C   UNL     1       4.769   4.599  17.105  0.00  0.00    +0.000 A 
ATOM     28  C   UNL     1       4.535   5.896  17.567  0.00  0.00    +0.000 A 
ENDBRANCH  22  23
ENDBRANCH  20  22
ENDBRANCH   3  17
TORSDOF 5
ENDMDL
MODEL 9
REMARK VINA RESULT:      -7.5      2.292      3.943
REMARK  Name = 
REMARK  6 active torsions:
REMARK  status: ('A' for Active; 'I' for Inactive)
REMARK    1  A    between atoms: C_1  and  O_2
REMARK    2  A    between atoms: O_2  and  C_3
REMARK    3  A    between atoms: C_4  and  C_5
REMARK    4  A    between atoms: N_7  and  C_8
REMARK    5  A    between atoms: N_11  and  C_12
REMARK    6  A    between atoms: C_12  and  C_13
REMARK                            x       y       z     vdW  Elec       q    Type
REMARK                         _______ _______ _______ _____ _____    ______ ____
ROOT
ATOM      1  C   UNL     1       2.740   6.673  18.266  0.00  0.00    +0.000 C 
ATOM      2  O   UNL     1       2.146   5.741  17.730  0.00  0.00    +0.000 OA
ATOM      3  N   UNL     1       4.131   6.765  18.247  0.00  0.00    +0.000 N 
ATOM      4  H   UNL     1       4.605   7.453  18.821  0.00  0.00    +0.000 HD
ENDROOT
BRANCH   1   6
ATOM      5  C   UNL     1       1.593   7.710  20.311  0.00  0.00    +0.000 A 
ATOM      6  C   UNL     1       1.984   7.764  18.956  0.00  0.00    +0.000 A 
ATOM      7  C   UNL     1       1.590   8.880  18.238  0.00  0.00    +0.000 A 
ATOM      8  N   UNL     1       0.906   9.926  18.755  0.00  0.00    +0.000 NA
ATOM      9  C   UNL     1       0.588   9.900  20.058  0.00  0.00    +0.000 A 
ATOM     10  C   UNL     1      -0.085  11.000  20.579  0.00  0.00    +0.000 A 
ATOM     11  C   UNL     1      -0.445  11.086  21.924  0.00  0.00    +0.000 A 
ATOM     12  C   UNL     1      -0.100  10.059  22.785  0.00  0.00    +0.000 A 
ATOM     13  C   UNL     1       0.595   8.958  22.287  0.00  0.00    +0.000 A 
ATOM     14  C   UNL     1       0.922   8.824  20.908  0.00  0.00    +0.000 A 
BRANCH   5  16
ATOM     15  C   UNL     1       1.301   5.391  20.783  0.00  0.00    +0.000 C 
ATOM     16  O   UNL     1       1.992   6.615  21.044  0.00  0.00    +0.000 OA
ENDBRANCH   5  16
ENDBRANCH   1   6
BRANCH   3  17
ATOM     17  C   UNL     1       4.954   5.661  17.735  0.00  0.00    +0.000 C 
ATOM     18  C   UNL     1       6.321   5.644  18.404  0.00  0.00    +0.000 C 
ATOM     19  C   UNL     1       7.160   6.515  17.486  0.00  0.00    +0.000 C 
ATOM     20  N   UNL     1       6.729   6.176  16.118  0.00  0.00    +0.000 NA
ATOM     21  C   UNL     1       5.297   5.802  16.236  0.00  0.00    +0.000 C 
BRANCH  20  22
ATOM     22  C   UNL     1       7.556   5.075  15.580  0.00  0.00    +0.000 C 
BRANCH  22  23
ATOM     23  C   UNL     1       7.192   4.650  14.171  0.00  0.00    +0.000 A 
ATOM     24  C   UNL     1       6.197   3.690  13.941  0.00  0.00    +0.000 A 
ATOM     25  C   UNL     1       5.851   3.324  12.638  0.00  0.00    +0.000 A 
ATOM     26  C   UNL     1       6.494   3.914  11.550  0.00  0.00    +0.000 A 
ATOM     27  C   UNL     1       7.484   4.871  11.765  0.00  0.00    +0.000 A 
ATOM     28  C   UNL     1       7.829   5.238  13.067  0.00  0.00    +0.000 A 
ENDBRANCH  22  23
ENDBRANCH  20  22
ENDBRANCH   3  17
TORSDOF 5
ENDMDL
