MODEL 1
REMARK VINA RESULT:      -7.9      0.000      0.000
REMARK  Name = 
REMARK  9 active torsions:
REMARK  status: ('A' for Active; 'I' for Inactive)
REMARK    1  A    between atoms: C_1  and  C_2
REMARK    2  A    between atoms: N_4  and  C_5
REMARK    3  A    between atoms: C_8  and  S_9
REMARK    4  A    between atoms: S_9  and  N_12
REMARK    5  A    between atoms: N_12  and  C_13
REMARK    6  A    between atoms: N_12  and  C_14
REMARK    7  A    between atoms: C_14  and  C_15
REMARK    8  A    between atoms: N_17  and  N_18
REMARK    9  A    between atoms: C_19  and  C_20
REMARK                            x       y       z     vdW  Elec       q    Type
REMARK                         _______ _______ _______ _____ _____    ______ ____
ROOT
ATOM      1  N   UNL     1       6.192   6.467  15.961  0.00  0.00    +0.000 NA
ATOM      2  C   UNL     1       4.996   6.926  15.201  0.00  0.00    +0.000 C 
ENDROOT
BRANCH   1   3
ATOM      3  S   UNL     1       6.465   4.765  15.829  0.00  0.00    +0.000 S 
ATOM      4  O   UNL     1       7.825   4.508  16.255  0.00  0.00    +0.000 OA
ATOM      5  O   UNL     1       5.991   4.347  14.526  0.00  0.00    +0.000 OA
BRANCH   3   9
ATOM      6  C   UNL     1       3.603   3.132  19.011  0.00  0.00    +0.000 A 
ATOM      7  C   UNL     1       4.916   3.505  19.331  0.00  0.00    +0.000 A 
ATOM      8  C   UNL     1       5.788   3.972  18.349  0.00  0.00    +0.000 A 
ATOM      9  C   UNL     1       5.359   4.063  17.026  0.00  0.00    +0.000 A 
ATOM     10  C   UNL     1       4.060   3.683  16.679  0.00  0.00    +0.000 A 
ATOM     11  C   UNL     1       3.190   3.208  17.673  0.00  0.00    +0.000 A 
BRANCH   6  15
ATOM     12  C   UNL     1       1.217   2.643  21.898  0.00  0.00    +0.000 C 
ATOM     13  C   UNL     1       2.050   3.453  20.938  0.00  0.00    +0.000 C 
ATOM     14  O   UNL     1       2.125   4.671  21.059  0.00  0.00    +0.000 OA
ATOM     15  N   UNL     1       2.681   2.675  19.979  0.00  0.00    +0.000 N 
ATOM     16  H   UNL     1       2.394   1.706  19.909  0.00  0.00    +0.000 HD
ENDBRANCH   6  15
ENDBRANCH   3   9
ENDBRANCH   1   3
BRANCH   1  17
ATOM     17  C   UNL     1       6.122   6.872  17.405  0.00  0.00    +0.000 C 
BRANCH  17  18
ATOM     18  C   UNL     1       7.410   7.432  17.980  0.00  0.00    +0.000 C 
ATOM     19  O   UNL     1       8.142   6.741  18.689  0.00  0.00    +0.000 OA
ATOM     20  N   UNL     1       7.665   8.754  17.631  0.00  0.00    +0.000 N 
ATOM     21  H   UNL     1       6.984   9.289  17.102  0.00  0.00    +0.000 HD
BRANCH  20  22
ATOM     22  N   UNL     1       8.786   9.349  18.127  0.00  0.00    +0.000 NA
ATOM     23  C   UNL     1       8.844  10.641  18.107  0.00  0.00    +0.000 C 
BRANCH  23  24
ATOM     24  C   UNL     1      10.031  11.343  18.647  0.00  0.00    +0.000 A 
ATOM     25  C   UNL     1      11.016  11.823  17.785  0.00  0.00    +0.000 A 
ATOM     26  C   UNL     1      12.110  12.460  18.340  0.00  0.00    +0.000 A 
ATOM     27  N   UNL     1      12.274  12.638  19.668  0.00  0.00    +0.000 NA
ATOM     28  C   UNL     1      11.301  12.165  20.477  0.00  0.00    +0.000 A 
ATOM     29  C   UNL     1      10.165  11.514  20.022  0.00  0.00    +0.000 A 
ENDBRANCH  23  24
ENDBRANCH  20  22
ENDBRANCH  17  18
ENDBRANCH   1  17
TORSDOF 7
ENDMDL
MODEL 2
REMARK VINA RESULT:      -7.6      3.453      4.056
REMARK  Name = 
REMARK  9 active torsions:
REMARK  status: ('A' for Active; 'I' for Inactive)
REMARK    1  A    between atoms: C_1  and  C_2
REMARK    2  A    between atoms: N_4  and  C_5
REMARK    3  A    between atoms: C_8  and  S_9
REMARK    4  A    between atoms: S_9  and  N_12
REMARK    5  A    between atoms: N_12  and  C_13
REMARK    6  A    between atoms: N_12  and  C_14
REMARK    7  A    between atoms: C_14  and  C_15
REMARK    8  A    between atoms: N_17  and  N_18
REMARK    9  A    between atoms: C_19  and  C_20
REMARK                            x       y       z     vdW  Elec       q    Type
REMARK                         _______ _______ _______ _____ _____    ______ ____
ROOT
ATOM      1  N   UNL     1       5.379   5.272  18.436  0.00  0.00    +0.000 NA
ATOM      2  C   UNL     1       5.183   3.916  19.019  0.00  0.00    +0.000 C 
ENDROOT
BRANCH   1   3
ATOM      3  S   UNL     1       4.057   5.782  17.446  0.00  0.00    +0.000 S 
ATOM      4  O   UNL     1       3.315   4.598  17.069  0.00  0.00    +0.000 OA
ATOM      5  O   UNL     1       4.584   6.692  16.450  0.00  0.00    +0.000 OA
BRANCH   3   9
ATOM      6  C   UNL     1       1.312   8.260  20.150  0.00  0.00    +0.000 A 
ATOM      7  C   UNL     1       1.711   8.726  18.890  0.00  0.00    +0.000 A 
ATOM      8  C   UNL     1       2.572   7.977  18.087  0.00  0.00    +0.000 A 
ATOM      9  C   UNL     1       3.053   6.750  18.543  0.00  0.00    +0.000 A 
ATOM     10  C   UNL     1       2.683   6.272  19.802  0.00  0.00    +0.000 A 
ATOM     11  C   UNL     1       1.820   7.035  20.605  0.00  0.00    +0.000 A 
BRANCH   6  15
ATOM     12  C   UNL     1      -0.479  10.102  22.918  0.00  0.00    +0.000 C 
ATOM     13  C   UNL     1       0.720   9.498  22.234  0.00  0.00    +0.000 C 
ATOM     14  O   UNL     1       1.814   9.493  22.790  0.00  0.00    +0.000 OA
ATOM     15  N   UNL     1       0.425   8.977  20.983  0.00  0.00    +0.000 N 
ATOM     16  H   UNL     1      -0.483   9.199  20.593  0.00  0.00    +0.000 HD
ENDBRANCH   6  15
ENDBRANCH   3   9
ENDBRANCH   1   3
BRANCH   1  17
ATOM     17  C   UNL     1       6.668   5.366  17.669  0.00  0.00    +0.000 C 
BRANCH  17  18
ATOM     18  C   UNL     1       7.533   6.565  18.009  0.00  0.00    +0.000 C 
ATOM     19  O   UNL     1       8.236   6.576  19.019  0.00  0.00    +0.000 OA
ATOM     20  N   UNL     1       7.451   7.607  17.091  0.00  0.00    +0.000 N 
ATOM     21  H   UNL     1       6.798   7.563  16.316  0.00  0.00    +0.000 HD
BRANCH  20  22
ATOM     22  N   UNL     1       8.172   8.739  17.329  0.00  0.00    +0.000 NA
ATOM     23  C   UNL     1       8.379   9.077  18.560  0.00  0.00    +0.000 C 
BRANCH  23  24
ATOM     24  C   UNL     1       9.169  10.287  18.879  0.00  0.00    +0.000 A 
ATOM     25  C   UNL     1       9.491  10.588  20.202  0.00  0.00    +0.000 A 
ATOM     26  C   UNL     1      10.220  11.736  20.448  0.00  0.00    +0.000 A 
ATOM     27  N   UNL     1      10.633  12.580  19.478  0.00  0.00    +0.000 NA
ATOM     28  C   UNL     1      10.308  12.260  18.206  0.00  0.00    +0.000 A 
ATOM     29  C   UNL     1       9.584  11.132  17.853  0.00  0.00    +0.000 A 
ENDBRANCH  23  24
ENDBRANCH  20  22
ENDBRANCH  17  18
ENDBRANCH   1  17
TORSDOF 7
ENDMDL
MODEL 3
REMARK VINA RESULT:      -7.6      3.277      3.712
REMARK  Name = 
REMARK  9 active torsions:
REMARK  status: ('A' for Active; 'I' for Inactive)
REMARK    1  A    between atoms: C_1  and  C_2
REMARK    2  A    between atoms: N_4  and  C_5
REMARK    3  A    between atoms: C_8  and  S_9
REMARK    4  A    between atoms: S_9  and  N_12
REMARK    5  A    between atoms: N_12  and  C_13
REMARK    6  A    between atoms: N_12  and  C_14
REMARK    7  A    between atoms: C_14  and  C_15
REMARK    8  A    between atoms: N_17  and  N_18
REMARK    9  A    between atoms: C_19  and  C_20
REMARK                            x       y       z     vdW  Elec       q    Type
REMARK                         _______ _______ _______ _____ _____    ______ ____
ROOT
ATOM      1  N   UNL     1       5.812   5.812  18.015  0.00  0.00    +0.000 NA
ATOM      2  C   UNL     1       6.149   4.395  18.322  0.00  0.00    +0.000 C 
ENDROOT
BRANCH   1   3
ATOM      3  S   UNL     1       4.309   5.983  17.177  0.00  0.00    +0.000 S 
ATOM      4  O   UNL     1       3.785   4.654  16.947  0.00  0.00    +0.000 OA
ATOM      5  O   UNL     1       4.524   6.909  16.083  0.00  0.00    +0.000 OA
BRANCH   3   9
ATOM      6  C   UNL     1       1.452   8.101  20.064  0.00  0.00    +0.000 A 
ATOM      7  C   UNL     1       1.857   8.702  18.864  0.00  0.00    +0.000 A 
ATOM      8  C   UNL     1       2.751   8.061  18.007  0.00  0.00    +0.000 A 
ATOM      9  C   UNL     1       3.261   6.809  18.347  0.00  0.00    +0.000 A 
ATOM     10  C   UNL     1       2.885   6.196  19.544  0.00  0.00    +0.000 A 
ATOM     11  C   UNL     1       1.988   6.850  20.404  0.00  0.00    +0.000 A 
BRANCH   6  15
ATOM     12  C   UNL     1      -0.390   9.731  22.931  0.00  0.00    +0.000 C 
ATOM     13  C   UNL     1       0.834   9.282  22.173  0.00  0.00    +0.000 C 
ATOM     14  O   UNL     1       1.951   9.434  22.656  0.00  0.00    +0.000 OA
ATOM     15  N   UNL     1       0.532   8.705  20.949  0.00  0.00    +0.000 N 
ATOM     16  H   UNL     1      -0.422   8.797  20.618  0.00  0.00    +0.000 HD
ENDBRANCH   6  15
ENDBRANCH   3   9
ENDBRANCH   1   3
BRANCH   1  17
ATOM     17  C   UNL     1       6.913   6.493  17.252  0.00  0.00    +0.000 C 
BRANCH  17  18
ATOM     18  C   UNL     1       7.808   7.394  18.082  0.00  0.00    +0.000 C 
ATOM     19  O   UNL     1       8.496   6.938  18.996  0.00  0.00    +0.000 OA
ATOM     20  N   UNL     1       7.772   8.734  17.712  0.00  0.00    +0.000 N 
ATOM     21  H   UNL     1       7.129   9.054  16.995  0.00  0.00    +0.000 HD
BRANCH  20  22
ATOM     22  N   UNL     1       8.523   9.623  18.421  0.00  0.00    +0.000 NA
ATOM     23  C   UNL     1       9.069  10.603  17.779  0.00  0.00    +0.000 C 
BRANCH  23  24
ATOM     24  C   UNL     1       9.881  11.608  18.501  0.00  0.00    +0.000 A 
ATOM     25  C   UNL     1       9.852  12.947  18.110  0.00  0.00    +0.000 A 
ATOM     26  C   UNL     1      10.638  13.844  18.809  0.00  0.00    +0.000 A 
ATOM     27  N   UNL     1      11.432  13.492  19.842  0.00  0.00    +0.000 NA
ATOM     28  C   UNL     1      11.437  12.189  20.198  0.00  0.00    +0.000 A 
ATOM     29  C   UNL     1      10.685  11.211  19.566  0.00  0.00    +0.000 A 
ENDBRANCH  23  24
ENDBRANCH  20  22
ENDBRANCH  17  18
ENDBRANCH   1  17
TORSDOF 7
ENDMDL
MODEL 4
REMARK VINA RESULT:      -7.6      4.961      8.149
REMARK  Name = 
REMARK  9 active torsions:
REMARK  status: ('A' for Active; 'I' for Inactive)
REMARK    1  A    between atoms: C_1  and  C_2
REMARK    2  A    between atoms: N_4  and  C_5
REMARK    3  A    between atoms: C_8  and  S_9
REMARK    4  A    between atoms: S_9  and  N_12
REMARK    5  A    between atoms: N_12  and  C_13
REMARK    6  A    between atoms: N_12  and  C_14
REMARK    7  A    between atoms: C_14  and  C_15
REMARK    8  A    between atoms: N_17  and  N_18
REMARK    9  A    between atoms: C_19  and  C_20
REMARK                            x       y       z     vdW  Elec       q    Type
REMARK                         _______ _______ _______ _____ _____    ______ ____
ROOT
ATOM      1  N   UNL     1       2.774   4.110  19.752  0.00  0.00    +0.000 NA
ATOM      2  C   UNL     1       2.052   3.711  20.992  0.00  0.00    +0.000 C 
ENDROOT
BRANCH   1   3
ATOM      3  S   UNL     1       3.876   2.901  19.192  0.00  0.00    +0.000 S 
ATOM      4  O   UNL     1       3.093   1.844  18.588  0.00  0.00    +0.000 OA
ATOM      5  O   UNL     1       4.808   2.629  20.267  0.00  0.00    +0.000 OA
BRANCH   3   9
ATOM      6  C   UNL     1       6.382   4.870  15.901  0.00  0.00    +0.000 A 
ATOM      7  C   UNL     1       6.857   4.761  17.216  0.00  0.00    +0.000 A 
ATOM      8  C   UNL     1       6.073   4.186  18.216  0.00  0.00    +0.000 A 
ATOM      9  C   UNL     1       4.794   3.722  17.914  0.00  0.00    +0.000 A 
ATOM     10  C   UNL     1       4.292   3.834  16.616  0.00  0.00    +0.000 A 
ATOM     11  C   UNL     1       5.086   4.417  15.615  0.00  0.00    +0.000 A 
BRANCH   6  15
ATOM     12  C   UNL     1       8.256   5.676  12.722  0.00  0.00    +0.000 C 
ATOM     13  C   UNL     1       7.260   4.922  13.566  0.00  0.00    +0.000 C 
ATOM     14  O   UNL     1       6.652   3.964  13.099  0.00  0.00    +0.000 OA
ATOM     15  N   UNL     1       7.152   5.424  14.854  0.00  0.00    +0.000 N 
ATOM     16  H   UNL     1       7.597   6.315  15.041  0.00  0.00    +0.000 HD
ENDBRANCH   6  15
ENDBRANCH   3   9
ENDBRANCH   1   3
BRANCH   1  17
ATOM     17  C   UNL     1       3.484   5.422  19.920  0.00  0.00    +0.000 C 
BRANCH  17  18
ATOM     18  C   UNL     1       2.651   6.650  19.604  0.00  0.00    +0.000 C 
ATOM     19  O   UNL     1       2.416   6.975  18.440  0.00  0.00    +0.000 OA
ATOM     20  N   UNL     1       2.198   7.338  20.724  0.00  0.00    +0.000 N 
ATOM     21  H   UNL     1       2.487   7.057  21.655  0.00  0.00    +0.000 HD
BRANCH  20  22
ATOM     22  N   UNL     1       1.466   8.472  20.536  0.00  0.00    +0.000 NA
ATOM     23  C   UNL     1       0.568   8.767  21.418  0.00  0.00    +0.000 C 
BRANCH  23  24
ATOM     24  C   UNL     1      -0.246   9.995  21.274  0.00  0.00    +0.000 A 
ATOM     25  C   UNL     1      -0.700  10.673  22.405  0.00  0.00    +0.000 A 
ATOM     26  C   UNL     1      -1.467  11.808  22.216  0.00  0.00    +0.000 A 
ATOM     27  N   UNL     1      -1.800  12.290  20.999  0.00  0.00    +0.000 NA
ATOM     28  C   UNL     1      -1.342  11.612  19.923  0.00  0.00    +0.000 A 
ATOM     29  C   UNL     1      -0.565  10.467  20.004  0.00  0.00    +0.000 A 
ENDBRANCH  23  24
ENDBRANCH  20  22
ENDBRANCH  17  18
ENDBRANCH   1  17
TORSDOF 7
ENDMDL
MODEL 5
REMARK VINA RESULT:      -7.4      4.848      8.082
REMARK  Name = 
REMARK  9 active torsions:
REMARK  status: ('A' for Active; 'I' for Inactive)
REMARK    1  A    between atoms: C_1  and  C_2
REMARK    2  A    between atoms: N_4  and  C_5
REMARK    3  A    between atoms: C_8  and  S_9
REMARK    4  A    between atoms: S_9  and  N_12
REMARK    5  A    between atoms: N_12  and  C_13
REMARK    6  A    between atoms: N_12  and  C_14
REMARK    7  A    between atoms: C_14  and  C_15
REMARK    8  A    between atoms: N_17  and  N_18
REMARK    9  A    between atoms: C_19  and  C_20
REMARK                            x       y       z     vdW  Elec       q    Type
REMARK                         _______ _______ _______ _____ _____    ______ ____
ROOT
ATOM      1  N   UNL     1       3.251   4.591  18.568  0.00  0.00    +0.000 NA
ATOM      2  C   UNL     1       2.249   3.493  18.652  0.00  0.00    +0.000 C 
ENDROOT
BRANCH   1   3
ATOM      3  S   UNL     1       4.850   4.024  18.239  0.00  0.00    +0.000 S 
ATOM      4  O   UNL     1       4.817   3.344  16.963  0.00  0.00    +0.000 OA
ATOM      5  O   UNL     1       5.332   3.363  19.434  0.00  0.00    +0.000 OA
BRANCH   3   9
ATOM      6  C   UNL     1       7.446   7.758  17.682  0.00  0.00    +0.000 A 
ATOM      7  C   UNL     1       7.846   6.708  18.520  0.00  0.00    +0.000 A 
ATOM      8  C   UNL     1       7.034   5.589  18.706  0.00  0.00    +0.000 A 
ATOM      9  C   UNL     1       5.801   5.512  18.060  0.00  0.00    +0.000 A 
ATOM     10  C   UNL     1       5.372   6.553  17.232  0.00  0.00    +0.000 A 
ATOM     11  C   UNL     1       6.194   7.678  17.055  0.00  0.00    +0.000 A 
BRANCH   6  15
ATOM     12  C   UNL     1       9.523  10.909  17.843  0.00  0.00    +0.000 C 
ATOM     13  C   UNL     1       8.829   9.700  18.418  0.00  0.00    +0.000 C 
ATOM     14  O   UNL     1       8.811   9.514  19.630  0.00  0.00    +0.000 OA
ATOM     15  N   UNL     1       8.247   8.897  17.448  0.00  0.00    +0.000 N 
ATOM     16  H   UNL     1       8.484   9.095  16.483  0.00  0.00    +0.000 HD
ENDBRANCH   6  15
ENDBRANCH   3   9
ENDBRANCH   1   3
BRANCH   1  17
ATOM     17  C   UNL     1       3.245   5.443  19.805  0.00  0.00    +0.000 C 
BRANCH  17  18
ATOM     18  C   UNL     1       2.487   6.752  19.682  0.00  0.00    +0.000 C 
ATOM     19  O   UNL     1       2.365   7.315  18.595  0.00  0.00    +0.000 OA
ATOM     20  N   UNL     1       1.964   7.224  20.881  0.00  0.00    +0.000 N 
ATOM     21  H   UNL     1       2.161   6.747  21.754  0.00  0.00    +0.000 HD
BRANCH  20  22
ATOM     22  N   UNL     1       1.291   8.409  20.872  0.00  0.00    +0.000 NA
ATOM     23  C   UNL     1       0.756   8.810  21.978  0.00  0.00    +0.000 C 
BRANCH  23  24
ATOM     24  C   UNL     1       0.027  10.098  22.031  0.00  0.00    +0.000 A 
ATOM     25  C   UNL     1       0.229  11.061  21.041  0.00  0.00    +0.000 A 
ATOM     26  C   UNL     1      -0.466  12.251  21.143  0.00  0.00    +0.000 A 
ATOM     27  N   UNL     1      -1.323  12.531  22.148  0.00  0.00    +0.000 NA
ATOM     28  C   UNL     1      -1.499  11.578  23.090  0.00  0.00    +0.000 A 
ATOM     29  C   UNL     1      -0.853  10.352  23.079  0.00  0.00    +0.000 A 
ENDBRANCH  23  24
ENDBRANCH  20  22
ENDBRANCH  17  18
ENDBRANCH   1  17
TORSDOF 7
ENDMDL
MODEL 6
REMARK VINA RESULT:      -7.3      1.333      2.016
REMARK  Name = 
REMARK  9 active torsions:
REMARK  status: ('A' for Active; 'I' for Inactive)
REMARK    1  A    between atoms: C_1  and  C_2
REMARK    2  A    between atoms: N_4  and  C_5
REMARK    3  A    between atoms: C_8  and  S_9
REMARK    4  A    between atoms: S_9  and  N_12
REMARK    5  A    between atoms: N_12  and  C_13
REMARK    6  A    between atoms: N_12  and  C_14
REMARK    7  A    between atoms: C_14  and  C_15
REMARK    8  A    between atoms: N_17  and  N_18
REMARK    9  A    between atoms: C_19  and  C_20
REMARK                            x       y       z     vdW  Elec       q    Type
REMARK                         _______ _______ _______ _____ _____    ______ ____
ROOT
ATOM      1  N   UNL     1       6.752   6.747  16.625  0.00  0.00    +0.000 NA
ATOM      2  C   UNL     1       5.390   7.313  16.830  0.00  0.00    +0.000 C 
ENDROOT
BRANCH   1   3
ATOM      3  S   UNL     1       6.738   5.045  16.317  0.00  0.00    +0.000 S 
ATOM      4  O   UNL     1       8.031   4.523  16.704  0.00  0.00    +0.000 OA
ATOM      5  O   UNL     1       6.213   4.849  14.982  0.00  0.00    +0.000 OA
BRANCH   3   9
ATOM      6  C   UNL     1       3.615   3.247  19.145  0.00  0.00    +0.000 A 
ATOM      7  C   UNL     1       3.396   3.315  17.762  0.00  0.00    +0.000 A 
ATOM      8  C   UNL     1       4.340   3.893  16.914  0.00  0.00    +0.000 A 
ATOM      9  C   UNL     1       5.517   4.420  17.443  0.00  0.00    +0.000 A 
ATOM     10  C   UNL     1       5.752   4.378  18.820  0.00  0.00    +0.000 A 
ATOM     11  C   UNL     1       4.793   3.800  19.667  0.00  0.00    +0.000 A 
BRANCH   6  15
ATOM     12  C   UNL     1       1.188   2.356  21.899  0.00  0.00    +0.000 C 
ATOM     13  C   UNL     1       2.000   3.298  21.047  0.00  0.00    +0.000 C 
ATOM     14  O   UNL     1       2.009   4.500  21.288  0.00  0.00    +0.000 OA
ATOM     15  N   UNL     1       2.695   2.651  20.036  0.00  0.00    +0.000 N 
ATOM     16  H   UNL     1       2.461   1.680  19.864  0.00  0.00    +0.000 HD
ENDBRANCH   6  15
ENDBRANCH   3   9
ENDBRANCH   1   3
BRANCH   1  17
ATOM     17  C   UNL     1       7.664   7.059  17.777  0.00  0.00    +0.000 C 
BRANCH  17  18
ATOM     18  C   UNL     1       8.065   8.516  17.904  0.00  0.00    +0.000 C 
ATOM     19  O   UNL     1       7.690   9.352  17.081  0.00  0.00    +0.000 OA
ATOM     20  N   UNL     1       8.865   8.796  19.006  0.00  0.00    +0.000 N 
ATOM     21  H   UNL     1       9.197   8.048  19.606  0.00  0.00    +0.000 HD
BRANCH  20  22
ATOM     22  N   UNL     1       9.299  10.075  19.185  0.00  0.00    +0.000 NA
ATOM     23  C   UNL     1       9.307  10.549  20.387  0.00  0.00    +0.000 C 
BRANCH  23  24
ATOM     24  C   UNL     1       9.784  11.928  20.643  0.00  0.00    +0.000 A 
ATOM     25  C   UNL     1       9.186  12.705  21.635  0.00  0.00    +0.000 A 
ATOM     26  C   UNL     1       9.660  13.989  21.826  0.00  0.00    +0.000 A 
ATOM     27  N   UNL     1      10.664  14.530  21.103  0.00  0.00    +0.000 NA
ATOM     28  C   UNL     1      11.224  13.751  20.152  0.00  0.00    +0.000 A 
ATOM     29  C   UNL     1      10.826  12.451  19.883  0.00  0.00    +0.000 A 
ENDBRANCH  23  24
ENDBRANCH  20  22
ENDBRANCH  17  18
ENDBRANCH   1  17
TORSDOF 7
ENDMDL
MODEL 7
REMARK VINA RESULT:      -7.3      4.999      8.280
REMARK  Name = 
REMARK  9 active torsions:
REMARK  status: ('A' for Active; 'I' for Inactive)
REMARK    1  A    between atoms: C_1  and  C_2
REMARK    2  A    between atoms: N_4  and  C_5
REMARK    3  A    between atoms: C_8  and  S_9
REMARK    4  A    between atoms: S_9  and  N_12
REMARK    5  A    between atoms: N_12  and  C_13
REMARK    6  A    between atoms: N_12  and  C_14
REMARK    7  A    between atoms: C_14  and  C_15
REMARK    8  A    between atoms: N_17  and  N_18
REMARK    9  A    between atoms: C_19  and  C_20
REMARK                            x       y       z     vdW  Elec       q    Type
REMARK                         _______ _______ _______ _____ _____    ______ ____
ROOT
ATOM      1  N   UNL     1       2.615   4.337  18.787  0.00  0.00    +0.000 NA
ATOM      2  C   UNL     1       1.314   3.729  18.392  0.00  0.00    +0.000 C 
ENDROOT
BRANCH   1   3
ATOM      3  S   UNL     1       3.917   3.199  18.800  0.00  0.00    +0.000 S 
ATOM      4  O   UNL     1       3.389   1.928  18.355  0.00  0.00    +0.000 OA
ATOM      5  O   UNL     1       4.596   3.330  20.073  0.00  0.00    +0.000 OA
BRANCH   3   9
ATOM      6  C   UNL     1       6.665   4.940  15.575  0.00  0.00    +0.000 A 
ATOM      7  C   UNL     1       5.389   4.451  15.262  0.00  0.00    +0.000 A 
ATOM      8  C   UNL     1       4.573   3.896  16.247  0.00  0.00    +0.000 A 
ATOM      9  C   UNL     1       5.030   3.813  17.562  0.00  0.00    +0.000 A 
ATOM     10  C   UNL     1       6.304   4.278  17.896  0.00  0.00    +0.000 A 
ATOM     11  C   UNL     1       7.121   4.831  16.897  0.00  0.00    +0.000 A 
BRANCH   6  15
ATOM     12  C   UNL     1       8.717   5.899  12.552  0.00  0.00    +0.000 C 
ATOM     13  C   UNL     1       7.635   5.148  13.285  0.00  0.00    +0.000 C 
ATOM     14  O   UNL     1       6.975   4.292  12.706  0.00  0.00    +0.000 OA
ATOM     15  N   UNL     1       7.515   5.530  14.613  0.00  0.00    +0.000 N 
ATOM     16  H   UNL     1       8.019   6.360  14.902  0.00  0.00    +0.000 HD
ENDBRANCH   6  15
ENDBRANCH   3   9
ENDBRANCH   1   3
BRANCH   1  17
ATOM     17  C   UNL     1       2.521   5.035  20.114  0.00  0.00    +0.000 C 
BRANCH  17  18
ATOM     18  C   UNL     1       2.131   6.499  20.045  0.00  0.00    +0.000 C 
ATOM     19  O   UNL     1       2.269   7.144  19.006  0.00  0.00    +0.000 OA
ATOM     20  N   UNL     1       1.620   7.012  21.233  0.00  0.00    +0.000 N 
ATOM     21  H   UNL     1       1.600   6.444  22.074  0.00  0.00    +0.000 HD
BRANCH  20  22
ATOM     22  N   UNL     1       1.270   8.328  21.273  0.00  0.00    +0.000 NA
ATOM     23  C   UNL     1       0.040   8.620  21.541  0.00  0.00    +0.000 C 
BRANCH  23  24
ATOM     24  C   UNL     1      -0.394  10.034  21.614  0.00  0.00    +0.000 A 
ATOM     25  C   UNL     1      -0.701  10.611  22.846  0.00  0.00    +0.000 A 
ATOM     26  C   UNL     1      -1.112  11.931  22.859  0.00  0.00    +0.000 A 
ATOM     27  N   UNL     1      -1.235  12.685  21.746  0.00  0.00    +0.000 NA
ATOM     28  C   UNL     1      -0.928  12.098  20.568  0.00  0.00    +0.000 A 
ATOM     29  C   UNL     1      -0.504  10.784  20.447  0.00  0.00    +0.000 A 
ENDBRANCH  23  24
ENDBRANCH  20  22
ENDBRANCH  17  18
ENDBRANCH   1  17
TORSDOF 7
ENDMDL
MODEL 8
REMARK VINA RESULT:      -7.2      7.660     10.065
REMARK  Name = 
REMARK  9 active torsions:
REMARK  status: ('A' for Active; 'I' for Inactive)
REMARK    1  A    between atoms: C_1  and  C_2
REMARK    2  A    between atoms: N_4  and  C_5
REMARK    3  A    between atoms: C_8  and  S_9
REMARK    4  A    between atoms: S_9  and  N_12
REMARK    5  A    between atoms: N_12  and  C_13
REMARK    6  A    between atoms: N_12  and  C_14
REMARK    7  A    between atoms: C_14  and  C_15
REMARK    8  A    between atoms: N_17  and  N_18
REMARK    9  A    between atoms: C_19  and  C_20
REMARK                            x       y       z     vdW  Elec       q    Type
REMARK                         _______ _______ _______ _____ _____    ______ ____
ROOT
ATOM      1  N   UNL     1      -0.231  12.131  18.589  0.00  0.00    +0.000 NA
ATOM      2  C   UNL     1      -0.382  13.604  18.749  0.00  0.00    +0.000 C 
ENDROOT
BRANCH   1   3
ATOM      3  S   UNL     1      -1.646  11.252  19.052  0.00  0.00    +0.000 S 
ATOM      4  O   UNL     1      -2.465  12.136  19.852  0.00  0.00    +0.000 OA
ATOM      5  O   UNL     1      -1.214   9.964  19.554  0.00  0.00    +0.000 OA
BRANCH   3   9
ATOM      6  C   UNL     1      -3.830  10.278  15.144  0.00  0.00    +0.000 A 
ATOM      7  C   UNL     1      -2.599   9.687  15.461  0.00  0.00    +0.000 A 
ATOM      8  C   UNL     1      -1.928  10.013  16.639  0.00  0.00    +0.000 A 
ATOM      9  C   UNL     1      -2.479  10.948  17.515  0.00  0.00    +0.000 A 
ATOM     10  C   UNL     1      -3.696  11.563  17.214  0.00  0.00    +0.000 A 
ATOM     11  C   UNL     1      -4.363  11.232  16.023  0.00  0.00    +0.000 A 
BRANCH   6  15
ATOM     12  C   UNL     1      -5.054   9.495  11.658  0.00  0.00    +0.000 C 
ATOM     13  C   UNL     1      -4.009   9.676  12.729  0.00  0.00    +0.000 C 
ATOM     14  O   UNL     1      -2.817   9.581  12.455  0.00  0.00    +0.000 OA
ATOM     15  N   UNL     1      -4.552   9.959  13.973  0.00  0.00    +0.000 N 
ATOM     16  H   UNL     1      -5.554   9.845  14.076  0.00  0.00    +0.000 HD
ENDBRANCH   6  15
ENDBRANCH   3   9
ENDBRANCH   1   3
BRANCH   1  17
ATOM     17  C   UNL     1       0.968  11.612  19.330  0.00  0.00    +0.000 C 
BRANCH  17  18
ATOM     18  C   UNL     1       1.894  10.727  18.516  0.00  0.00    +0.000 C 
ATOM     19  O   UNL     1       2.779  11.212  17.811  0.00  0.00    +0.000 OA
ATOM     20  N   UNL     1       1.646   9.365  18.649  0.00  0.00    +0.000 N 
ATOM     21  H   UNL     1       0.855   9.034  19.191  0.00  0.00    +0.000 HD
BRANCH  20  22
ATOM     22  N   UNL     1       2.411   8.494  17.931  0.00  0.00    +0.000 NA
ATOM     23  C   UNL     1       2.627   7.323  18.433  0.00  0.00    +0.000 C 
BRANCH  23  24
ATOM     24  C   UNL     1       3.436   6.330  17.690  0.00  0.00    +0.000 A 
ATOM     25  C   UNL     1       3.160   4.968  17.810  0.00  0.00    +0.000 A 
ATOM     26  C   UNL     1       3.952   4.081  17.105  0.00  0.00    +0.000 A 
ATOM     27  N   UNL     1       4.977   4.463  16.312  0.00  0.00    +0.000 NA
ATOM     28  C   UNL     1       5.217   5.790  16.214  0.00  0.00    +0.000 A 
ATOM     29  C   UNL     1       4.481   6.760  16.877  0.00  0.00    +0.000 A 
ENDBRANCH  23  24
ENDBRANCH  20  22
ENDBRANCH  17  18
ENDBRANCH   1  17
TORSDOF 7
ENDMDL
MODEL 9
REMARK VINA RESULT:      -7.2      1.015      1.404
REMARK  Name = 
REMARK  9 active torsions:
REMARK  status: ('A' for Active; 'I' for Inactive)
REMARK    1  A    between atoms: C_1  and  C_2
REMARK    2  A    between atoms: N_4  and  C_5
REMARK    3  A    between atoms: C_8  and  S_9
REMARK    4  A    between atoms: S_9  and  N_12
REMARK    5  A    between atoms: N_12  and  C_13
REMARK    6  A    between atoms: N_12  and  C_14
REMARK    7  A    between atoms: C_14  and  C_15
REMARK    8  A    between atoms: N_17  and  N_18
REMARK    9  A    between atoms: C_19  and  C_20
REMARK                            x       y       z     vdW  Elec       q    Type
REMARK                         _______ _______ _______ _____ _____    ______ ____
ROOT
ATOM      1  N   UNL     1       6.653   6.235  15.942  0.00  0.00    +0.000 NA
ATOM      2  C   UNL     1       5.705   6.505  14.825  0.00  0.00    +0.000 C 
ENDROOT
BRANCH   1   3
ATOM      3  S   UNL     1       6.747   4.560  16.359  0.00  0.00    +0.000 S 
ATOM      4  O   UNL     1       7.997   4.355  17.058  0.00  0.00    +0.000 OA
ATOM      5  O   UNL     1       6.411   3.796  15.175  0.00  0.00    +0.000 OA
BRANCH   3   9
ATOM      6  C   UNL     1       3.313   3.775  19.288  0.00  0.00    +0.000 A 
ATOM      7  C   UNL     1       3.155   3.583  17.908  0.00  0.00    +0.000 A 
ATOM      8  C   UNL     1       4.198   3.854  17.023  0.00  0.00    +0.000 A 
ATOM      9  C   UNL     1       5.414   4.332  17.509  0.00  0.00    +0.000 A 
ATOM     10  C   UNL     1       5.591   4.547  18.878  0.00  0.00    +0.000 A 
ATOM     11  C   UNL     1       4.534   4.276  19.762  0.00  0.00    +0.000 A 
BRANCH   6  15
ATOM     12  C   UNL     1       1.103   2.491  22.069  0.00  0.00    +0.000 C 
ATOM     13  C   UNL     1       2.411   2.692  21.347  0.00  0.00    +0.000 C 
ATOM     14  O   UNL     1       3.435   2.161  21.763  0.00  0.00    +0.000 OA
ATOM     15  N   UNL     1       2.291   3.491  20.220  0.00  0.00    +0.000 N 
ATOM     16  H   UNL     1       1.415   3.986  20.097  0.00  0.00    +0.000 HD
ENDBRANCH   6  15
ENDBRANCH   3   9
ENDBRANCH   1   3
BRANCH   1  17
ATOM     17  C   UNL     1       6.328   7.056  17.157  0.00  0.00    +0.000 C 
BRANCH  17  18
ATOM     18  C   UNL     1       7.523   7.694  17.840  0.00  0.00    +0.000 C 
ATOM     19  O   UNL     1       8.316   7.018  18.496  0.00  0.00    +0.000 OA
ATOM     20  N   UNL     1       7.624   9.068  17.651  0.00  0.00    +0.000 N 
ATOM     21  H   UNL     1       6.896   9.576  17.159  0.00  0.00    +0.000 HD
BRANCH  20  22
ATOM     22  N   UNL     1       8.650   9.732  18.253  0.00  0.00    +0.000 NA
ATOM     23  C   UNL     1       8.804  10.986  17.979  0.00  0.00    +0.000 C 
BRANCH  23  24
ATOM     24  C   UNL     1       9.893  11.761  18.616  0.00  0.00    +0.000 A 
ATOM     25  C   UNL     1       9.741  13.129  18.843  0.00  0.00    +0.000 A 
ATOM     26  C   UNL     1      10.791  13.810  19.429  0.00  0.00    +0.000 A 
ATOM     27  N   UNL     1      11.952  13.223  19.790  0.00  0.00    +0.000 NA
ATOM     28  C   UNL     1      12.068  11.896  19.560  0.00  0.00    +0.000 A 
ATOM     29  C   UNL     1      11.075  11.122  18.981  0.00  0.00    +0.000 A 
ENDBRANCH  23  24
ENDBRANCH  20  22
ENDBRANCH  17  18
ENDBRANCH   1  17
TORSDOF 7
ENDMDL
