MODEL 1
REMARK VINA RESULT:      -7.1      0.000      0.000
REMARK  Name = 
REMARK  15 active torsions:
REMARK  status: ('A' for Active; 'I' for Inactive)
REMARK    1  A    between atoms: C_1  and  C_2
REMARK    2  A    between atoms: C_2  and  C_3
REMARK    3  A    between atoms: C_3  and  C_4
REMARK    4  A    between atoms: C_4  and  C_5
REMARK    5  A    between atoms: C_5  and  C_6
REMARK    6  A    between atoms: C_6  and  C_7
REMARK    7  A    between atoms: C_7  and  N_8
REMARK    8  A    between atoms: N_8  and  C_9
REMARK    9  A    between atoms: N_8  and  C_11
REMARK   10  A    between atoms: C_9  and  C_10
REMARK   11  A    between atoms: C_11  and  C_12
REMARK   12  A    between atoms: C_13  and  C_14
REMARK   13  A    between atoms: C_14  and  C_15
REMARK   14  A    between atoms: C_15  and  C_16
REMARK   15  A    between atoms: C_19  and  C_20
REMARK                            x       y       z     vdW  Elec       q    Type
REMARK                         _______ _______ _______ _____ _____    ______ ____
ROOT
ATOM      1  C   UNL     1       7.237   5.182  18.191  0.00  0.00    +0.000 C 
ENDROOT
BRANCH   1   2
ATOM      2  C   UNL     1       7.588   6.611  18.146  0.00  0.00    +0.000 C 
ATOM      3  C   UNL     1       7.938   7.866  18.101  0.00  0.00    +0.000 C 
BRANCH   3   4
ATOM      4  C   UNL     1       8.347   9.330  18.049  0.00  0.00    +0.000 C 
BRANCH   4   5
ATOM      5  C   UNL     1       9.142   9.710  19.300  0.00  0.00    +0.000 C 
BRANCH   5   6
ATOM      6  C   UNL     1       9.924  10.993  19.155  0.00  0.00    +0.000 A 
ATOM      7  C   UNL     1      10.341  11.707  20.288  0.00  0.00    +0.000 A 
ATOM      8  C   UNL     1      11.110  12.867  20.160  0.00  0.00    +0.000 A 
ATOM      9  C   UNL     1      11.475  13.342  18.897  0.00  0.00    +0.000 A 
ATOM     10  C   UNL     1      12.328  14.568  18.747  0.00  0.00    +0.000 C 
ATOM     11  C   UNL     1      11.042  12.644  17.763  0.00  0.00    +0.000 A 
ATOM     12  C   UNL     1      10.271  11.485  17.892  0.00  0.00    +0.000 A 
ENDBRANCH   5   6
ENDBRANCH   4   5
ENDBRANCH   3   4
ENDBRANCH   1   2
BRANCH   1  13
ATOM     13  N   UNL     1       6.260   4.806  17.155  0.00  0.00    +0.000 NA
BRANCH  13  14
ATOM     14  C   UNL     1       6.881   4.579  15.836  0.00  0.00    +0.000 C 
ATOM     15  C   UNL     1       6.058   3.785  14.828  0.00  0.00    +0.000 C 
ENDBRANCH  13  14
BRANCH  13  16
ATOM     16  C   UNL     1       5.139   5.770  17.137  0.00  0.00    +0.000 C 
BRANCH  16  17
ATOM     17  C   UNL     1       3.964   5.334  18.021  0.00  0.00    +0.000 C 
BRANCH  17  18
ATOM     18  C   UNL     1       3.336   4.013  17.578  0.00  0.00    +0.000 C 
BRANCH  18  19
ATOM     19  C   UNL     1       1.815   4.107  17.727  0.00  0.00    +0.000 C 
BRANCH  19  20
ATOM     20  C   UNL     1       1.268   3.090  18.722  0.00  0.00    +0.000 C 
BRANCH  20  22
ATOM     21  C   UNL     1       1.458   3.012  21.231  0.00  0.00    +0.000 C 
ATOM     22  C   UNL     1       0.896   3.769  20.040  0.00  0.00    +0.000 C 
ENDBRANCH  20  22
ENDBRANCH  19  20
ENDBRANCH  18  19
ENDBRANCH  17  18
ENDBRANCH  16  17
ENDBRANCH  13  16
ENDBRANCH   1  13
TORSDOF 12
ENDMDL
MODEL 2
REMARK VINA RESULT:      -6.7      4.581      7.420
REMARK  Name = 
REMARK  15 active torsions:
REMARK  status: ('A' for Active; 'I' for Inactive)
REMARK    1  A    between atoms: C_1  and  C_2
REMARK    2  A    between atoms: C_2  and  C_3
REMARK    3  A    between atoms: C_3  and  C_4
REMARK    4  A    between atoms: C_4  and  C_5
REMARK    5  A    between atoms: C_5  and  C_6
REMARK    6  A    between atoms: C_6  and  C_7
REMARK    7  A    between atoms: C_7  and  N_8
REMARK    8  A    between atoms: N_8  and  C_9
REMARK    9  A    between atoms: N_8  and  C_11
REMARK   10  A    between atoms: C_9  and  C_10
REMARK   11  A    between atoms: C_11  and  C_12
REMARK   12  A    between atoms: C_13  and  C_14
REMARK   13  A    between atoms: C_14  and  C_15
REMARK   14  A    between atoms: C_15  and  C_16
REMARK   15  A    between atoms: C_19  and  C_20
REMARK                            x       y       z     vdW  Elec       q    Type
REMARK                         _______ _______ _______ _____ _____    ______ ____
ROOT
ATOM      1  C   UNL     1       4.957   4.798  19.157  0.00  0.00    +0.000 C 
ENDROOT
BRANCH   1   2
ATOM      2  C   UNL     1       3.908   5.821  19.303  0.00  0.00    +0.000 C 
ATOM      3  C   UNL     1       3.004   6.746  19.457  0.00  0.00    +0.000 C 
BRANCH   3   4
ATOM      4  C   UNL     1       1.949   7.827  19.638  0.00  0.00    +0.000 C 
BRANCH   4   5
ATOM      5  C   UNL     1       1.260   7.682  20.997  0.00  0.00    +0.000 C 
BRANCH   5   6
ATOM      6  C   UNL     1       0.596   8.950  21.477  0.00  0.00    +0.000 A 
ATOM      7  C   UNL     1       0.561  10.091  20.662  0.00  0.00    +0.000 A 
ATOM      8  C   UNL     1      -0.099  11.250  21.082  0.00  0.00    +0.000 A 
ATOM      9  C   UNL     1      -0.735  11.296  22.325  0.00  0.00    +0.000 A 
ATOM     10  C   UNL     1      -1.473  12.523  22.772  0.00  0.00    +0.000 C 
ATOM     11  C   UNL     1      -0.683  10.166  23.151  0.00  0.00    +0.000 A 
ATOM     12  C   UNL     1      -0.021   9.008  22.732  0.00  0.00    +0.000 A 
ENDBRANCH   5   6
ENDBRANCH   4   5
ENDBRANCH   3   4
ENDBRANCH   1   2
BRANCH   1  13
ATOM     13  N   UNL     1       5.346   4.581  17.753  0.00  0.00    +0.000 NA
BRANCH  13  14
ATOM     14  C   UNL     1       5.715   5.831  17.061  0.00  0.00    +0.000 C 
ATOM     15  C   UNL     1       7.123   6.358  17.320  0.00  0.00    +0.000 C 
ENDBRANCH  13  14
BRANCH  13  16
ATOM     16  C   UNL     1       4.314   3.786  17.055  0.00  0.00    +0.000 C 
BRANCH  16  17
ATOM     17  C   UNL     1       3.818   2.594  17.885  0.00  0.00    +0.000 C 
BRANCH  17  18
ATOM     18  C   UNL     1       2.338   2.284  17.664  0.00  0.00    +0.000 C 
BRANCH  18  19
ATOM     19  C   UNL     1       1.495   3.406  18.278  0.00  0.00    +0.000 C 
BRANCH  19  20
ATOM     20  C   UNL     1       0.729   2.944  19.512  0.00  0.00    +0.000 C 
BRANCH  20  22
ATOM     21  C   UNL     1       2.325   3.073  21.454  0.00  0.00    +0.000 C 
ATOM     22  C   UNL     1       1.158   3.738  20.745  0.00  0.00    +0.000 C 
ENDBRANCH  20  22
ENDBRANCH  19  20
ENDBRANCH  18  19
ENDBRANCH  17  18
ENDBRANCH  16  17
ENDBRANCH  13  16
ENDBRANCH   1  13
TORSDOF 12
ENDMDL
MODEL 3
REMARK VINA RESULT:      -6.5      4.856      7.991
REMARK  Name = 
REMARK  15 active torsions:
REMARK  status: ('A' for Active; 'I' for Inactive)
REMARK    1  A    between atoms: C_1  and  C_2
REMARK    2  A    between atoms: C_2  and  C_3
REMARK    3  A    between atoms: C_3  and  C_4
REMARK    4  A    between atoms: C_4  and  C_5
REMARK    5  A    between atoms: C_5  and  C_6
REMARK    6  A    between atoms: C_6  and  C_7
REMARK    7  A    between atoms: C_7  and  N_8
REMARK    8  A    between atoms: N_8  and  C_9
REMARK    9  A    between atoms: N_8  and  C_11
REMARK   10  A    between atoms: C_9  and  C_10
REMARK   11  A    between atoms: C_11  and  C_12
REMARK   12  A    between atoms: C_13  and  C_14
REMARK   13  A    between atoms: C_14  and  C_15
REMARK   14  A    between atoms: C_15  and  C_16
REMARK   15  A    between atoms: C_19  and  C_20
REMARK                            x       y       z     vdW  Elec       q    Type
REMARK                         _______ _______ _______ _____ _____    ______ ____
ROOT
ATOM      1  C   UNL     1       1.592   3.891  18.398  0.00  0.00    +0.000 C 
ENDROOT
BRANCH   1   2
ATOM      2  C   UNL     1       2.092   5.263  18.206  0.00  0.00    +0.000 C 
ATOM      3  C   UNL     1       2.495   6.491  18.039  0.00  0.00    +0.000 C 
BRANCH   3   4
ATOM      4  C   UNL     1       2.966   7.924  17.843  0.00  0.00    +0.000 C 
BRANCH   4   5
ATOM      5  C   UNL     1       1.775   8.885  17.849  0.00  0.00    +0.000 C 
BRANCH   5   6
ATOM      6  C   UNL     1       1.174   9.096  19.217  0.00  0.00    +0.000 A 
ATOM      7  C   UNL     1       1.647   8.376  20.324  0.00  0.00    +0.000 A 
ATOM      8  C   UNL     1       1.129   8.607  21.602  0.00  0.00    +0.000 A 
ATOM      9  C   UNL     1       0.126   9.559  21.802  0.00  0.00    +0.000 A 
ATOM     10  C   UNL     1      -0.414   9.838  23.174  0.00  0.00    +0.000 C 
ATOM     11  C   UNL     1      -0.364  10.265  20.697  0.00  0.00    +0.000 A 
ATOM     12  C   UNL     1       0.153  10.032  19.418  0.00  0.00    +0.000 A 
ENDBRANCH   5   6
ENDBRANCH   4   5
ENDBRANCH   3   4
ENDBRANCH   1   2
BRANCH   1  13
ATOM     13  N   UNL     1       2.625   2.980  18.921  0.00  0.00    +0.000 NA
BRANCH  13  14
ATOM     14  C   UNL     1       2.652   2.930  20.396  0.00  0.00    +0.000 C 
ATOM     15  C   UNL     1       1.300   2.834  21.094  0.00  0.00    +0.000 C 
ENDBRANCH  13  14
BRANCH  13  16
ATOM     16  C   UNL     1       3.932   3.283  18.302  0.00  0.00    +0.000 C 
BRANCH  16  17
ATOM     17  C   UNL     1       5.018   3.612  19.335  0.00  0.00    +0.000 C 
BRANCH  17  18
ATOM     18  C   UNL     1       5.625   5.002  19.145  0.00  0.00    +0.000 C 
BRANCH  18  19
ATOM     19  C   UNL     1       6.920   4.875  18.337  0.00  0.00    +0.000 C 
BRANCH  19  20
ATOM     20  C   UNL     1       7.070   5.989  17.307  0.00  0.00    +0.000 C 
BRANCH  20  22
ATOM     21  C   UNL     1       5.282   5.564  15.587  0.00  0.00    +0.000 C 
ATOM     22  C   UNL     1       6.765   5.472  15.901  0.00  0.00    +0.000 C 
ENDBRANCH  20  22
ENDBRANCH  19  20
ENDBRANCH  18  19
ENDBRANCH  17  18
ENDBRANCH  16  17
ENDBRANCH  13  16
ENDBRANCH   1  13
TORSDOF 12
ENDMDL
MODEL 4
REMARK VINA RESULT:      -6.4      4.953      8.362
REMARK  Name = 
REMARK  15 active torsions:
REMARK  status: ('A' for Active; 'I' for Inactive)
REMARK    1  A    between atoms: C_1  and  C_2
REMARK    2  A    between atoms: C_2  and  C_3
REMARK    3  A    between atoms: C_3  and  C_4
REMARK    4  A    between atoms: C_4  and  C_5
REMARK    5  A    between atoms: C_5  and  C_6
REMARK    6  A    between atoms: C_6  and  C_7
REMARK    7  A    between atoms: C_7  and  N_8
REMARK    8  A    between atoms: N_8  and  C_9
REMARK    9  A    between atoms: N_8  and  C_11
REMARK   10  A    between atoms: C_9  and  C_10
REMARK   11  A    between atoms: C_11  and  C_12
REMARK   12  A    between atoms: C_13  and  C_14
REMARK   13  A    between atoms: C_14  and  C_15
REMARK   14  A    between atoms: C_15  and  C_16
REMARK   15  A    between atoms: C_19  and  C_20
REMARK                            x       y       z     vdW  Elec       q    Type
REMARK                         _______ _______ _______ _____ _____    ______ ____
ROOT
ATOM      1  C   UNL     1       5.048   6.462  16.011  0.00  0.00    +0.000 C 
ENDROOT
BRANCH   1   2
ATOM      2  C   UNL     1       4.078   6.793  17.068  0.00  0.00    +0.000 C 
ATOM      3  C   UNL     1       3.233   7.126  18.002  0.00  0.00    +0.000 C 
BRANCH   3   4
ATOM      4  C   UNL     1       2.247   7.515  19.093  0.00  0.00    +0.000 C 
BRANCH   4   5
ATOM      5  C   UNL     1       1.673   8.908  18.826  0.00  0.00    +0.000 C 
BRANCH   5   6
ATOM      6  C   UNL     1       0.914   9.485  19.996  0.00  0.00    +0.000 A 
ATOM      7  C   UNL     1       0.583  10.848  20.030  0.00  0.00    +0.000 A 
ATOM      8  C   UNL     1      -0.165  11.376  21.086  0.00  0.00    +0.000 A 
ATOM      9  C   UNL     1      -0.595  10.557  22.133  0.00  0.00    +0.000 A 
ATOM     10  C   UNL     1      -1.426  11.106  23.256  0.00  0.00    +0.000 C 
ATOM     11  C   UNL     1      -0.247   9.200  22.114  0.00  0.00    +0.000 A 
ATOM     12  C   UNL     1       0.502   8.673  21.058  0.00  0.00    +0.000 A 
ENDBRANCH   5   6
ENDBRANCH   4   5
ENDBRANCH   3   4
ENDBRANCH   1   2
BRANCH   1  13
ATOM     13  N   UNL     1       5.703   5.160  16.230  0.00  0.00    +0.000 NA
BRANCH  13  14
ATOM     14  C   UNL     1       6.309   5.042  17.570  0.00  0.00    +0.000 C 
ATOM     15  C   UNL     1       7.522   5.925  17.844  0.00  0.00    +0.000 C 
ENDBRANCH  13  14
BRANCH  13  16
ATOM     16  C   UNL     1       6.630   4.862  15.119  0.00  0.00    +0.000 C 
BRANCH  16  17
ATOM     17  C   UNL     1       6.164   3.683  14.254  0.00  0.00    +0.000 C 
BRANCH  17  18
ATOM     18  C   UNL     1       6.569   3.818  12.787  0.00  0.00    +0.000 C 
BRANCH  18  19
ATOM     19  C   UNL     1       5.630   2.967  11.929  0.00  0.00    +0.000 C 
BRANCH  19  20
ATOM     20  C   UNL     1       4.255   3.605  11.769  0.00  0.00    +0.000 C 
BRANCH  20  22
ATOM     21  C   UNL     1       2.995   4.141   9.658  0.00  0.00    +0.000 C 
ATOM     22  C   UNL     1       3.531   3.035  10.550  0.00  0.00    +0.000 C 
ENDBRANCH  20  22
ENDBRANCH  19  20
ENDBRANCH  18  19
ENDBRANCH  17  18
ENDBRANCH  16  17
ENDBRANCH  13  16
ENDBRANCH   1  13
TORSDOF 12
ENDMDL
MODEL 5
REMARK VINA RESULT:      -6.3      3.970      7.997
REMARK  Name = 
REMARK  15 active torsions:
REMARK  status: ('A' for Active; 'I' for Inactive)
REMARK    1  A    between atoms: C_1  and  C_2
REMARK    2  A    between atoms: C_2  and  C_3
REMARK    3  A    between atoms: C_3  and  C_4
REMARK    4  A    between atoms: C_4  and  C_5
REMARK    5  A    between atoms: C_5  and  C_6
REMARK    6  A    between atoms: C_6  and  C_7
REMARK    7  A    between atoms: C_7  and  N_8
REMARK    8  A    between atoms: N_8  and  C_9
REMARK    9  A    between atoms: N_8  and  C_11
REMARK   10  A    between atoms: C_9  and  C_10
REMARK   11  A    between atoms: C_11  and  C_12
REMARK   12  A    between atoms: C_13  and  C_14
REMARK   13  A    between atoms: C_14  and  C_15
REMARK   14  A    between atoms: C_15  and  C_16
REMARK   15  A    between atoms: C_19  and  C_20
REMARK                            x       y       z     vdW  Elec       q    Type
REMARK                         _______ _______ _______ _____ _____    ______ ____
ROOT
ATOM      1  C   UNL     1       1.853   4.087  18.523  0.00  0.00    +0.000 C 
ENDROOT
BRANCH   1   2
ATOM      2  C   UNL     1       2.215   5.498  18.310  0.00  0.00    +0.000 C 
ATOM      3  C   UNL     1       2.502   6.759  18.145  0.00  0.00    +0.000 C 
BRANCH   3   4
ATOM      4  C   UNL     1       2.838   8.229  17.952  0.00  0.00    +0.000 C 
BRANCH   4   5
ATOM      5  C   UNL     1       1.559   9.069  17.897  0.00  0.00    +0.000 C 
BRANCH   5   6
ATOM      6  C   UNL     1       0.992   9.398  19.257  0.00  0.00    +0.000 A 
ATOM      7  C   UNL     1       0.037  10.415  19.405  0.00  0.00    +0.000 A 
ATOM      8  C   UNL     1      -0.530  10.688  20.653  0.00  0.00    +0.000 A 
ATOM      9  C   UNL     1      -0.153   9.954  21.782  0.00  0.00    +0.000 A 
ATOM     10  C   UNL     1      -0.778  10.216  23.120  0.00  0.00    +0.000 C 
ATOM     11  C   UNL     1       0.815   8.953  21.642  0.00  0.00    +0.000 A 
ATOM     12  C   UNL     1       1.384   8.681  20.393  0.00  0.00    +0.000 A 
ENDBRANCH   5   6
ENDBRANCH   4   5
ENDBRANCH   3   4
ENDBRANCH   1   2
BRANCH   1  13
ATOM     13  N   UNL     1       3.010   3.182  18.410  0.00  0.00    +0.000 NA
BRANCH  13  14
ATOM     14  C   UNL     1       4.003   3.386  19.482  0.00  0.00    +0.000 C 
ATOM     15  C   UNL     1       4.445   2.139  20.241  0.00  0.00    +0.000 C 
ENDBRANCH  13  14
BRANCH  13  16
ATOM     16  C   UNL     1       3.574   3.243  17.045  0.00  0.00    +0.000 C 
BRANCH  16  17
ATOM     17  C   UNL     1       4.967   3.884  17.004  0.00  0.00    +0.000 C 
BRANCH  17  18
ATOM     18  C   UNL     1       5.143   4.863  15.845  0.00  0.00    +0.000 C 
BRANCH  18  19
ATOM     19  C   UNL     1       6.405   5.697  16.082  0.00  0.00    +0.000 C 
BRANCH  19  20
ATOM     20  C   UNL     1       6.231   6.701  17.216  0.00  0.00    +0.000 C 
BRANCH  20  22
ATOM     21  C   UNL     1       7.969   8.431  17.779  0.00  0.00    +0.000 C 
ATOM     22  C   UNL     1       7.565   6.973  17.909  0.00  0.00    +0.000 C 
ENDBRANCH  20  22
ENDBRANCH  19  20
ENDBRANCH  18  19
ENDBRANCH  17  18
ENDBRANCH  16  17
ENDBRANCH  13  16
ENDBRANCH   1  13
TORSDOF 12
ENDMDL
MODEL 6
REMARK VINA RESULT:      -6.3      1.047      1.605
REMARK  Name = 
REMARK  15 active torsions:
REMARK  status: ('A' for Active; 'I' for Inactive)
REMARK    1  A    between atoms: C_1  and  C_2
REMARK    2  A    between atoms: C_2  and  C_3
REMARK    3  A    between atoms: C_3  and  C_4
REMARK    4  A    between atoms: C_4  and  C_5
REMARK    5  A    between atoms: C_5  and  C_6
REMARK    6  A    between atoms: C_6  and  C_7
REMARK    7  A    between atoms: C_7  and  N_8
REMARK    8  A    between atoms: N_8  and  C_9
REMARK    9  A    between atoms: N_8  and  C_11
REMARK   10  A    between atoms: C_9  and  C_10
REMARK   11  A    between atoms: C_11  and  C_12
REMARK   12  A    between atoms: C_13  and  C_14
REMARK   13  A    between atoms: C_14  and  C_15
REMARK   14  A    between atoms: C_15  and  C_16
REMARK   15  A    between atoms: C_19  and  C_20
REMARK                            x       y       z     vdW  Elec       q    Type
REMARK                         _______ _______ _______ _____ _____    ______ ____
ROOT
ATOM      1  C   UNL     1       6.499   5.283  17.993  0.00  0.00    +0.000 C 
ENDROOT
BRANCH   1   2
ATOM      2  C   UNL     1       7.168   6.592  17.928  0.00  0.00    +0.000 C 
ATOM      3  C   UNL     1       7.724   7.769  17.865  0.00  0.00    +0.000 C 
BRANCH   3   4
ATOM      4  C   UNL     1       8.372   9.143  17.791  0.00  0.00    +0.000 C 
BRANCH   4   5
ATOM      5  C   UNL     1       8.983   9.522  19.142  0.00  0.00    +0.000 C 
BRANCH   5   6
ATOM      6  C   UNL     1       9.786  10.800  19.107  0.00  0.00    +0.000 A 
ATOM      7  C   UNL     1      10.164  11.372  17.883  0.00  0.00    +0.000 A 
ATOM      8  C   UNL     1      10.862  12.583  17.845  0.00  0.00    +0.000 A 
ATOM      9  C   UNL     1      11.201  13.246  19.028  0.00  0.00    +0.000 A 
ATOM     10  C   UNL     1      11.921  14.562  18.999  0.00  0.00    +0.000 C 
ATOM     11  C   UNL     1      10.844  12.667  20.251  0.00  0.00    +0.000 A 
ATOM     12  C   UNL     1      10.147  11.455  20.289  0.00  0.00    +0.000 A 
ENDBRANCH   5   6
ENDBRANCH   4   5
ENDBRANCH   3   4
ENDBRANCH   1   2
BRANCH   1  13
ATOM     13  N   UNL     1       5.266   5.236  17.188  0.00  0.00    +0.000 NA
BRANCH  13  14
ATOM     14  C   UNL     1       5.428   4.473  15.936  0.00  0.00    +0.000 C 
ATOM     15  C   UNL     1       5.742   5.285  14.684  0.00  0.00    +0.000 C 
ENDBRANCH  13  14
BRANCH  13  16
ATOM     16  C   UNL     1       4.728   6.600  16.999  0.00  0.00    +0.000 C 
BRANCH  16  17
ATOM     17  C   UNL     1       3.484   6.874  17.854  0.00  0.00    +0.000 C 
BRANCH  17  18
ATOM     18  C   UNL     1       2.579   5.652  18.004  0.00  0.00    +0.000 C 
BRANCH  18  19
ATOM     19  C   UNL     1       2.490   5.274  19.486  0.00  0.00    +0.000 C 
BRANCH  19  20
ATOM     20  C   UNL     1       3.015   3.869  19.756  0.00  0.00    +0.000 C 
BRANCH  20  22
ATOM     21  C   UNL     1       0.925   2.618  19.122  0.00  0.00    +0.000 C 
ATOM     22  C   UNL     1       2.388   2.861  18.793  0.00  0.00    +0.000 C 
ENDBRANCH  20  22
ENDBRANCH  19  20
ENDBRANCH  18  19
ENDBRANCH  17  18
ENDBRANCH  16  17
ENDBRANCH  13  16
ENDBRANCH   1  13
TORSDOF 12
ENDMDL
MODEL 7
REMARK VINA RESULT:      -6.3      1.100      1.475
REMARK  Name = 
REMARK  15 active torsions:
REMARK  status: ('A' for Active; 'I' for Inactive)
REMARK    1  A    between atoms: C_1  and  C_2
REMARK    2  A    between atoms: C_2  and  C_3
REMARK    3  A    between atoms: C_3  and  C_4
REMARK    4  A    between atoms: C_4  and  C_5
REMARK    5  A    between atoms: C_5  and  C_6
REMARK    6  A    between atoms: C_6  and  C_7
REMARK    7  A    between atoms: C_7  and  N_8
REMARK    8  A    between atoms: N_8  and  C_9
REMARK    9  A    between atoms: N_8  and  C_11
REMARK   10  A    between atoms: C_9  and  C_10
REMARK   11  A    between atoms: C_11  and  C_12
REMARK   12  A    between atoms: C_13  and  C_14
REMARK   13  A    between atoms: C_14  and  C_15
REMARK   14  A    between atoms: C_15  and  C_16
REMARK   15  A    between atoms: C_19  and  C_20
REMARK                            x       y       z     vdW  Elec       q    Type
REMARK                         _______ _______ _______ _____ _____    ______ ____
ROOT
ATOM      1  C   UNL     1       5.209   5.838  17.120  0.00  0.00    +0.000 C 
ENDROOT
BRANCH   1   2
ATOM      2  C   UNL     1       6.315   6.731  17.504  0.00  0.00    +0.000 C 
ATOM      3  C   UNL     1       7.286   7.544  17.810  0.00  0.00    +0.000 C 
BRANCH   3   4
ATOM      4  C   UNL     1       8.419   8.493  18.168  0.00  0.00    +0.000 C 
BRANCH   4   5
ATOM      5  C   UNL     1       8.076   9.923  17.743  0.00  0.00    +0.000 C 
BRANCH   5   6
ATOM      6  C   UNL     1       9.016  10.963  18.304  0.00  0.00    +0.000 A 
ATOM      7  C   UNL     1       9.816  10.676  19.419  0.00  0.00    +0.000 A 
ATOM      8  C   UNL     1      10.726  11.618  19.908  0.00  0.00    +0.000 A 
ATOM      9  C   UNL     1      10.853  12.868  19.297  0.00  0.00    +0.000 A 
ATOM     10  C   UNL     1      11.849  13.875  19.794  0.00  0.00    +0.000 C 
ATOM     11  C   UNL     1      10.040  13.167  18.197  0.00  0.00    +0.000 A 
ATOM     12  C   UNL     1       9.129  12.225  17.709  0.00  0.00    +0.000 A 
ENDBRANCH   5   6
ENDBRANCH   4   5
ENDBRANCH   3   4
ENDBRANCH   1   2
BRANCH   1  13
ATOM     13  N   UNL     1       5.660   4.692  16.312  0.00  0.00    +0.000 NA
BRANCH  13  14
ATOM     14  C   UNL     1       6.202   5.093  14.999  0.00  0.00    +0.000 C 
ATOM     15  C   UNL     1       6.275   4.003  13.936  0.00  0.00    +0.000 C 
ENDBRANCH  13  14
BRANCH  13  16
ATOM     16  C   UNL     1       4.596   3.669  16.240  0.00  0.00    +0.000 C 
BRANCH  16  17
ATOM     17  C   UNL     1       3.745   3.604  17.514  0.00  0.00    +0.000 C 
BRANCH  17  18
ATOM     18  C   UNL     1       3.327   2.182  17.885  0.00  0.00    +0.000 C 
BRANCH  18  19
ATOM     19  C   UNL     1       2.060   2.240  18.743  0.00  0.00    +0.000 C 
BRANCH  19  20
ATOM     20  C   UNL     1       1.423   3.625  18.740  0.00  0.00    +0.000 C 
BRANCH  20  22
ATOM     21  C   UNL     1       2.060   4.674  20.938  0.00  0.00    +0.000 C 
ATOM     22  C   UNL     1       0.952   4.007  20.143  0.00  0.00    +0.000 C 
ENDBRANCH  20  22
ENDBRANCH  19  20
ENDBRANCH  18  19
ENDBRANCH  17  18
ENDBRANCH  16  17
ENDBRANCH  13  16
ENDBRANCH   1  13
TORSDOF 12
ENDMDL
MODEL 8
REMARK VINA RESULT:      -6.3      1.122      1.503
REMARK  Name = 
REMARK  15 active torsions:
REMARK  status: ('A' for Active; 'I' for Inactive)
REMARK    1  A    between atoms: C_1  and  C_2
REMARK    2  A    between atoms: C_2  and  C_3
REMARK    3  A    between atoms: C_3  and  C_4
REMARK    4  A    between atoms: C_4  and  C_5
REMARK    5  A    between atoms: C_5  and  C_6
REMARK    6  A    between atoms: C_6  and  C_7
REMARK    7  A    between atoms: C_7  and  N_8
REMARK    8  A    between atoms: N_8  and  C_9
REMARK    9  A    between atoms: N_8  and  C_11
REMARK   10  A    between atoms: C_9  and  C_10
REMARK   11  A    between atoms: C_11  and  C_12
REMARK   12  A    between atoms: C_13  and  C_14
REMARK   13  A    between atoms: C_14  and  C_15
REMARK   14  A    between atoms: C_15  and  C_16
REMARK   15  A    between atoms: C_19  and  C_20
REMARK                            x       y       z     vdW  Elec       q    Type
REMARK                         _______ _______ _______ _____ _____    ______ ____
ROOT
ATOM      1  C   UNL     1       6.472   4.417  17.150  0.00  0.00    +0.000 C 
ENDROOT
BRANCH   1   2
ATOM      2  C   UNL     1       7.187   5.577  17.707  0.00  0.00    +0.000 C 
ATOM      3  C   UNL     1       7.802   6.627  18.172  0.00  0.00    +0.000 C 
BRANCH   3   4
ATOM      4  C   UNL     1       8.521   7.853  18.714  0.00  0.00    +0.000 C 
BRANCH   4   5
ATOM      5  C   UNL     1       8.128   9.101  17.918  0.00  0.00    +0.000 C 
BRANCH   5   6
ATOM      6  C   UNL     1       8.765  10.370  18.428  0.00  0.00    +0.000 A 
ATOM      7  C   UNL     1       9.497  10.371  19.625  0.00  0.00    +0.000 A 
ATOM      8  C   UNL     1      10.133  11.532  20.074  0.00  0.00    +0.000 A 
ATOM      9  C   UNL     1      10.048  12.719  19.340  0.00  0.00    +0.000 A 
ATOM     10  C   UNL     1      10.753  13.963  19.795  0.00  0.00    +0.000 C 
ATOM     11  C   UNL     1       9.300  12.728  18.157  0.00  0.00    +0.000 A 
ATOM     12  C   UNL     1       8.663  11.566  17.709  0.00  0.00    +0.000 A 
ENDBRANCH   5   6
ENDBRANCH   4   5
ENDBRANCH   3   4
ENDBRANCH   1   2
BRANCH   1  13
ATOM     13  N   UNL     1       5.322   4.807  16.316  0.00  0.00    +0.000 NA
BRANCH  13  14
ATOM     14  C   UNL     1       5.723   5.375  15.015  0.00  0.00    +0.000 C 
ATOM     15  C   UNL     1       6.305   4.397  14.000  0.00  0.00    +0.000 C 
ENDBRANCH  13  14
BRANCH  13  16
ATOM     16  C   UNL     1       4.399   5.664  17.090  0.00  0.00    +0.000 C 
BRANCH  16  17
ATOM     17  C   UNL     1       3.531   4.868  18.073  0.00  0.00    +0.000 C 
BRANCH  17  18
ATOM     18  C   UNL     1       2.653   3.822  17.388  0.00  0.00    +0.000 C 
BRANCH  18  19
ATOM     19  C   UNL     1       2.115   2.852  18.444  0.00  0.00    +0.000 C 
BRANCH  19  20
ATOM     20  C   UNL     1       3.120   2.598  19.562  0.00  0.00    +0.000 C 
BRANCH  20  22
ATOM     21  C   UNL     1       1.164   3.597  20.790  0.00  0.00    +0.000 C 
ATOM     22  C   UNL     1       2.492   2.874  20.928  0.00  0.00    +0.000 C 
ENDBRANCH  20  22
ENDBRANCH  19  20
ENDBRANCH  18  19
ENDBRANCH  17  18
ENDBRANCH  16  17
ENDBRANCH  13  16
ENDBRANCH   1  13
TORSDOF 12
ENDMDL
MODEL 9
REMARK VINA RESULT:      -6.3      5.203      7.428
REMARK  Name = 
REMARK  15 active torsions:
REMARK  status: ('A' for Active; 'I' for Inactive)
REMARK    1  A    between atoms: C_1  and  C_2
REMARK    2  A    between atoms: C_2  and  C_3
REMARK    3  A    between atoms: C_3  and  C_4
REMARK    4  A    between atoms: C_4  and  C_5
REMARK    5  A    between atoms: C_5  and  C_6
REMARK    6  A    between atoms: C_6  and  C_7
REMARK    7  A    between atoms: C_7  and  N_8
REMARK    8  A    between atoms: N_8  and  C_9
REMARK    9  A    between atoms: N_8  and  C_11
REMARK   10  A    between atoms: C_9  and  C_10
REMARK   11  A    between atoms: C_11  and  C_12
REMARK   12  A    between atoms: C_13  and  C_14
REMARK   13  A    between atoms: C_14  and  C_15
REMARK   14  A    between atoms: C_15  and  C_16
REMARK   15  A    between atoms: C_19  and  C_20
REMARK                            x       y       z     vdW  Elec       q    Type
REMARK                         _______ _______ _______ _____ _____    ______ ____
ROOT
ATOM      1  C   UNL     1       4.448   5.718  17.171  0.00  0.00    +0.000 C 
ENDROOT
BRANCH   1   2
ATOM      2  C   UNL     1       3.504   6.656  17.802  0.00  0.00    +0.000 C 
ATOM      3  C   UNL     1       2.678   7.513  18.332  0.00  0.00    +0.000 C 
BRANCH   3   4
ATOM      4  C   UNL     1       1.715   8.514  18.951  0.00  0.00    +0.000 C 
BRANCH   4   5
ATOM      5  C   UNL     1       1.590   8.279  20.458  0.00  0.00    +0.000 C 
BRANCH   5   6
ATOM      6  C   UNL     1       0.774   9.330  21.170  0.00  0.00    +0.000 A 
ATOM      7  C   UNL     1       0.576  10.593  20.592  0.00  0.00    +0.000 A 
ATOM      8  C   UNL     1      -0.223  11.551  21.224  0.00  0.00    +0.000 A 
ATOM      9  C   UNL     1      -0.838  11.270  22.447  0.00  0.00    +0.000 A 
ATOM     10  C   UNL     1      -1.724  12.278  23.117  0.00  0.00    +0.000 C 
ATOM     11  C   UNL     1      -0.626  10.018  23.036  0.00  0.00    +0.000 A 
ATOM     12  C   UNL     1       0.175   9.061  22.406  0.00  0.00    +0.000 A 
ENDBRANCH   5   6
ENDBRANCH   4   5
ENDBRANCH   3   4
ENDBRANCH   1   2
BRANCH   1  13
ATOM     13  N   UNL     1       5.537   5.315  18.077  0.00  0.00    +0.000 NA
BRANCH  13  14
ATOM     14  C   UNL     1       6.855   5.289  17.413  0.00  0.00    +0.000 C 
ATOM     15  C   UNL     1       6.896   4.688  16.012  0.00  0.00    +0.000 C 
ENDBRANCH  13  14
BRANCH  13  16
ATOM     16  C   UNL     1       5.185   4.057  18.769  0.00  0.00    +0.000 C 
BRANCH  16  17
ATOM     17  C   UNL     1       4.153   3.222  18.000  0.00  0.00    +0.000 C 
BRANCH  17  18
ATOM     18  C   UNL     1       3.313   2.324  18.906  0.00  0.00    +0.000 C 
BRANCH  18  19
ATOM     19  C   UNL     1       3.620   2.660  20.367  0.00  0.00    +0.000 C 
BRANCH  19  20
ATOM     20  C   UNL     1       2.377   2.601  21.248  0.00  0.00    +0.000 C 
BRANCH  20  22
ATOM     21  C   UNL     1       1.274   4.760  20.573  0.00  0.00    +0.000 C 
ATOM     22  C   UNL     1       1.183   3.245  20.543  0.00  0.00    +0.000 C 
ENDBRANCH  20  22
ENDBRANCH  19  20
ENDBRANCH  18  19
ENDBRANCH  17  18
ENDBRANCH  16  17
ENDBRANCH  13  16
ENDBRANCH   1  13
TORSDOF 12
ENDMDL
