MODEL 1
REMARK VINA RESULT:      -6.8      0.000      0.000
REMARK  Name = 
REMARK  9 active torsions:
REMARK  status: ('A' for Active; 'I' for Inactive)
REMARK    1  A    between atoms: CD1_1  and  CG_2
REMARK    2  A    between atoms: CG_2  and  CD2_3
REMARK    3  A    between atoms: CG_2  and  CB_4
REMARK    4  A    between atoms: CB_4  and  CA_5
REMARK    5  A    between atoms: CA_5  and  N_6
REMARK    6  A    between atoms: CA_5  and  C_19
REMARK    7  A    between atoms: C_9  and  C_10
REMARK    8  A    between atoms: C_9  and  C_11
REMARK    9  A    between atoms: C_19  and  OXT_21
REMARK                            x       y       z     vdW  Elec       q    Type
REMARK                         _______ _______ _______ _____ _____    ______ ____
ROOT
ATOM      1  N   LEU A   1       5.512   4.563  18.639  0.00  0.00    +0.000 N 
ATOM      2  C   UNK A   0       4.216   4.904  19.024  0.00  0.00    +0.000 C 
ATOM      3  N   UNK A   0       3.754   6.065  18.675  0.00  0.00    +0.000 NA
ATOM      4  C   UNK A   0       2.328   6.429  18.908  0.00  0.00    +0.000 C 
ATOM      5  C   UNK A   0       1.536   6.123  17.623  0.00  0.00    +0.000 C 
ATOM      6  C   UNK A   0       2.293   7.947  19.145  0.00  0.00    +0.000 C 
ATOM      7  C   UNK A   0       1.668   5.738  20.107  0.00  0.00    +0.000 C 
ATOM      8  C   UNK A   0       2.205   4.373  20.408  0.00  0.00    +0.000 A 
ATOM      9  C   UNK A   0       1.517   3.571  21.336  0.00  0.00    +0.000 A 
ATOM     10  C   UNK A   0       2.078   2.380  21.786  0.00  0.00    +0.000 A 
ATOM     11  C   UNK A   0       3.326   1.986  21.314  0.00  0.00    +0.000 A 
ATOM     12  C   UNK A   0       4.008   2.774  20.376  0.00  0.00    +0.000 A 
ATOM     13  C   UNK A   0       3.445   3.966  19.907  0.00  0.00    +0.000 A 
ATOM     14  H   LEU A   1       5.597   3.636  18.239  0.00  0.00    +0.000 HD
ENDROOT
BRANCH   1  15
ATOM     15  CA  LEU A   1       6.508   5.530  18.123  0.00  0.00    +0.000 C 
BRANCH  15  16
ATOM     16  C   LEU A   1       7.569   5.821  19.230  0.00  0.00    +0.000 C 
ATOM     17  O   LEU A   1       7.683   5.180  20.269  0.00  0.00    +0.000 OA
BRANCH  16  18
ATOM     18  OXT LEU A   1       8.394   6.850  18.949  0.00  0.00    +0.000 OA
ATOM     19  HXT LEU A   1       9.333   6.612  19.159  0.00  0.00    +0.000 HD
ENDBRANCH  16  18
ENDBRANCH  15  16
BRANCH  15  20
ATOM     20  CB  LEU A   1       7.288   4.999  16.886  0.00  0.00    +0.000 C 
BRANCH  20  22
ATOM     21  CD1 LEU A   1       6.356   3.871  14.761  0.00  0.00    +0.000 C 
ATOM     22  CG  LEU A   1       6.714   5.180  15.466  0.00  0.00    +0.000 C 
ATOM     23  CD2 LEU A   1       5.440   6.044  15.550  0.00  0.00    +0.000 C 
ENDBRANCH  20  22
ENDBRANCH  15  20
ENDBRANCH   1  15
TORSDOF 5
ENDMDL
MODEL 2
REMARK VINA RESULT:      -6.8      0.960      1.037
REMARK  Name = 
REMARK  9 active torsions:
REMARK  status: ('A' for Active; 'I' for Inactive)
REMARK    1  A    between atoms: CD1_1  and  CG_2
REMARK    2  A    between atoms: CG_2  and  CD2_3
REMARK    3  A    between atoms: CG_2  and  CB_4
REMARK    4  A    between atoms: CB_4  and  CA_5
REMARK    5  A    between atoms: CA_5  and  N_6
REMARK    6  A    between atoms: CA_5  and  C_19
REMARK    7  A    between atoms: C_9  and  C_10
REMARK    8  A    between atoms: C_9  and  C_11
REMARK    9  A    between atoms: C_19  and  OXT_21
REMARK                            x       y       z     vdW  Elec       q    Type
REMARK                         _______ _______ _______ _____ _____    ______ ____
ROOT
ATOM      1  N   LEU A   1       5.414   3.990  18.058  0.00  0.00    +0.000 N 
ATOM      2  C   UNK A   0       4.227   4.509  18.575  0.00  0.00    +0.000 C 
ATOM      3  N   UNK A   0       3.832   5.674  18.164  0.00  0.00    +0.000 NA
ATOM      4  C   UNK A   0       2.498   6.215  18.548  0.00  0.00    +0.000 C 
ATOM      5  C   UNK A   0       1.498   5.873  17.425  0.00  0.00    +0.000 C 
ATOM      6  C   UNK A   0       2.642   7.744  18.614  0.00  0.00    +0.000 C 
ATOM      7  C   UNK A   0       1.959   5.722  19.896  0.00  0.00    +0.000 C 
ATOM      8  C   UNK A   0       2.402   4.342  20.273  0.00  0.00    +0.000 A 
ATOM      9  C   UNK A   0       1.785   3.716  21.371  0.00  0.00    +0.000 A 
ATOM     10  C   UNK A   0       2.290   2.521  21.872  0.00  0.00    +0.000 A 
ATOM     11  C   UNK A   0       3.411   1.947  21.281  0.00  0.00    +0.000 A 
ATOM     12  C   UNK A   0       4.020   2.558  20.175  0.00  0.00    +0.000 A 
ATOM     13  C   UNK A   0       3.509   3.754  19.656  0.00  0.00    +0.000 A 
ATOM     14  H   LEU A   1       5.350   3.025  17.757  0.00  0.00    +0.000 HD
ENDROOT
BRANCH   1  15
ATOM     15  CA  LEU A   1       6.410   4.786  17.304  0.00  0.00    +0.000 C 
BRANCH  15  16
ATOM     16  C   LEU A   1       7.715   4.915  18.150  0.00  0.00    +0.000 C 
ATOM     17  O   LEU A   1       7.918   5.789  18.986  0.00  0.00    +0.000 OA
BRANCH  16  18
ATOM     18  OXT LEU A   1       8.632   3.957  17.904  0.00  0.00    +0.000 OA
ATOM     19  HXT LEU A   1       8.274   3.285  17.271  0.00  0.00    +0.000 HD
ENDBRANCH  16  18
ENDBRANCH  15  16
BRANCH  15  20
ATOM     20  CB  LEU A   1       6.817   4.130  15.953  0.00  0.00    +0.000 C 
BRANCH  20  22
ATOM     21  CD1 LEU A   1       6.005   3.837  13.522  0.00  0.00    +0.000 C 
ATOM     22  CG  LEU A   1       6.451   4.807  14.617  0.00  0.00    +0.000 C 
ATOM     23  CD2 LEU A   1       5.307   5.811  14.864  0.00  0.00    +0.000 C 
ENDBRANCH  20  22
ENDBRANCH  15  20
ENDBRANCH   1  15
TORSDOF 5
ENDMDL
MODEL 3
REMARK VINA RESULT:      -6.7      2.464      5.332
REMARK  Name = 
REMARK  9 active torsions:
REMARK  status: ('A' for Active; 'I' for Inactive)
REMARK    1  A    between atoms: CD1_1  and  CG_2
REMARK    2  A    between atoms: CG_2  and  CD2_3
REMARK    3  A    between atoms: CG_2  and  CB_4
REMARK    4  A    between atoms: CB_4  and  CA_5
REMARK    5  A    between atoms: CA_5  and  N_6
REMARK    6  A    between atoms: CA_5  and  C_19
REMARK    7  A    between atoms: C_9  and  C_10
REMARK    8  A    between atoms: C_9  and  C_11
REMARK    9  A    between atoms: C_19  and  OXT_21
REMARK                            x       y       z     vdW  Elec       q    Type
REMARK                         _______ _______ _______ _____ _____    ______ ____
ROOT
ATOM      1  N   LEU A   1       5.095   3.546  19.883  0.00  0.00    +0.000 N 
ATOM      2  C   UNK A   0       4.684   4.688  19.196  0.00  0.00    +0.000 C 
ATOM      3  N   UNK A   0       3.422   4.829  18.934  0.00  0.00    +0.000 NA
ATOM      4  C   UNK A   0       2.892   6.095  18.353  0.00  0.00    +0.000 C 
ATOM      5  C   UNK A   0       2.387   6.981  19.508  0.00  0.00    +0.000 C 
ATOM      6  C   UNK A   0       1.687   5.710  17.480  0.00  0.00    +0.000 C 
ATOM      7  C   UNK A   0       3.885   6.879  17.487  0.00  0.00    +0.000 C 
ATOM      8  C   UNK A   0       5.318   6.722  17.892  0.00  0.00    +0.000 A 
ATOM      9  C   UNK A   0       6.276   7.572  17.312  0.00  0.00    +0.000 A 
ATOM     10  C   UNK A   0       7.633   7.341  17.512  0.00  0.00    +0.000 A 
ATOM     11  C   UNK A   0       8.038   6.262  18.291  0.00  0.00    +0.000 A 
ATOM     12  C   UNK A   0       7.087   5.422  18.886  0.00  0.00    +0.000 A 
ATOM     13  C   UNK A   0       5.719   5.656  18.702  0.00  0.00    +0.000 A 
ATOM     14  H   LEU A   1       5.728   3.727  20.652  0.00  0.00    +0.000 HD
ENDROOT
BRANCH   1  15
ATOM     15  CA  LEU A   1       4.254   2.342  20.073  0.00  0.00    +0.000 C 
BRANCH  15  16
ATOM     16  C   LEU A   1       5.133   1.177  20.623  0.00  0.00    +0.000 C 
ATOM     17  O   LEU A   1       5.624   1.147  21.747  0.00  0.00    +0.000 OA
BRANCH  16  18
ATOM     18  OXT LEU A   1       5.310   0.158  19.757  0.00  0.00    +0.000 OA
ATOM     19  HXT LEU A   1       5.925   0.423  19.027  0.00  0.00    +0.000 HD
ENDBRANCH  16  18
ENDBRANCH  15  16
BRANCH  15  20
ATOM     20  CB  LEU A   1       3.106   2.558  21.100  0.00  0.00    +0.000 C 
BRANCH  20  22
ATOM     21  CD1 LEU A   1       0.896   3.819  20.669  0.00  0.00    +0.000 C 
ATOM     22  CG  LEU A   1       1.632   2.478  20.651  0.00  0.00    +0.000 C 
ATOM     23  CD2 LEU A   1       1.579   1.920  19.215  0.00  0.00    +0.000 C 
ENDBRANCH  20  22
ENDBRANCH  15  20
ENDBRANCH   1  15
TORSDOF 5
ENDMDL
MODEL 4
REMARK VINA RESULT:      -6.6      1.261      1.802
REMARK  Name = 
REMARK  9 active torsions:
REMARK  status: ('A' for Active; 'I' for Inactive)
REMARK    1  A    between atoms: CD1_1  and  CG_2
REMARK    2  A    between atoms: CG_2  and  CD2_3
REMARK    3  A    between atoms: CG_2  and  CB_4
REMARK    4  A    between atoms: CB_4  and  CA_5
REMARK    5  A    between atoms: CA_5  and  N_6
REMARK    6  A    between atoms: CA_5  and  C_19
REMARK    7  A    between atoms: C_9  and  C_10
REMARK    8  A    between atoms: C_9  and  C_11
REMARK    9  A    between atoms: C_19  and  OXT_21
REMARK                            x       y       z     vdW  Elec       q    Type
REMARK                         _______ _______ _______ _____ _____    ______ ____
ROOT
ATOM      1  N   LEU A   1       5.076   3.944  17.338  0.00  0.00    +0.000 N 
ATOM      2  C   UNK A   0       4.048   4.546  18.063  0.00  0.00    +0.000 C 
ATOM      3  N   UNK A   0       3.659   5.733  17.714  0.00  0.00    +0.000 NA
ATOM      4  C   UNK A   0       2.462   6.365  18.336  0.00  0.00    +0.000 C 
ATOM      5  C   UNK A   0       1.245   6.086  17.432  0.00  0.00    +0.000 C 
ATOM      6  C   UNK A   0       2.717   7.881  18.345  0.00  0.00    +0.000 C 
ATOM      7  C   UNK A   0       2.161   5.917  19.771  0.00  0.00    +0.000 C 
ATOM      8  C   UNK A   0       2.576   4.513  20.081  0.00  0.00    +0.000 A 
ATOM      9  C   UNK A   0       2.141   3.936  21.288  0.00  0.00    +0.000 A 
ATOM     10  C   UNK A   0       2.653   2.712  21.705  0.00  0.00    +0.000 A 
ATOM     11  C   UNK A   0       3.600   2.060  20.921  0.00  0.00    +0.000 A 
ATOM     12  C   UNK A   0       4.024   2.622  19.709  0.00  0.00    +0.000 A 
ATOM     13  C   UNK A   0       3.503   3.847  19.275  0.00  0.00    +0.000 A 
ATOM     14  H   LEU A   1       4.893   2.984  17.073  0.00  0.00    +0.000 HD
ENDROOT
BRANCH   1  15
ATOM     15  CA  LEU A   1       5.960   4.666  16.393  0.00  0.00    +0.000 C 
BRANCH  15  16
ATOM     16  C   LEU A   1       7.293   5.038  17.113  0.00  0.00    +0.000 C 
ATOM     17  O   LEU A   1       7.793   6.158  17.116  0.00  0.00    +0.000 OA
BRANCH  16  18
ATOM     18  OXT LEU A   1       7.872   4.013  17.772  0.00  0.00    +0.000 OA
ATOM     19  HXT LEU A   1       8.613   3.628  17.238  0.00  0.00    +0.000 HD
ENDBRANCH  16  18
ENDBRANCH  15  16
BRANCH  15  20
ATOM     20  CB  LEU A   1       6.346   3.815  15.150  0.00  0.00    +0.000 C 
BRANCH  20  22
ATOM     21  CD1 LEU A   1       7.703   5.132  13.394  0.00  0.00    +0.000 C 
ATOM     22  CG  LEU A   1       6.378   4.454  13.747  0.00  0.00    +0.000 C 
ATOM     23  CD2 LEU A   1       6.104   3.360  12.695  0.00  0.00    +0.000 C 
ENDBRANCH  20  22
ENDBRANCH  15  20
ENDBRANCH   1  15
TORSDOF 5
ENDMDL
MODEL 5
REMARK VINA RESULT:      -6.4      3.168      5.830
REMARK  Name = 
REMARK  9 active torsions:
REMARK  status: ('A' for Active; 'I' for Inactive)
REMARK    1  A    between atoms: CD1_1  and  CG_2
REMARK    2  A    between atoms: CG_2  and  CD2_3
REMARK    3  A    between atoms: CG_2  and  CB_4
REMARK    4  A    between atoms: CB_4  and  CA_5
REMARK    5  A    between atoms: CA_5  and  N_6
REMARK    6  A    between atoms: CA_5  and  C_19
REMARK    7  A    between atoms: C_9  and  C_10
REMARK    8  A    between atoms: C_9  and  C_11
REMARK    9  A    between atoms: C_19  and  OXT_21
REMARK                            x       y       z     vdW  Elec       q    Type
REMARK                         _______ _______ _______ _____ _____    ______ ____
ROOT
ATOM      1  N   LEU A   1       2.026   7.168  19.691  0.00  0.00    +0.000 N 
ATOM      2  C   UNK A   0       2.760   6.256  18.933  0.00  0.00    +0.000 C 
ATOM      3  N   UNK A   0       3.724   6.705  18.192  0.00  0.00    +0.000 NA
ATOM      4  C   UNK A   0       4.651   5.775  17.487  0.00  0.00    +0.000 C 
ATOM      5  C   UNK A   0       5.898   5.576  18.370  0.00  0.00    +0.000 C 
ATOM      6  C   UNK A   0       5.086   6.481  16.193  0.00  0.00    +0.000 C 
ATOM      7  C   UNK A   0       4.049   4.414  17.116  0.00  0.00    +0.000 C 
ATOM      8  C   UNK A   0       2.991   3.928  18.056  0.00  0.00    +0.000 A 
ATOM      9  C   UNK A   0       2.543   2.600  17.934  0.00  0.00    +0.000 A 
ATOM     10  C   UNK A   0       1.436   2.164  18.654  0.00  0.00    +0.000 A 
ATOM     11  C   UNK A   0       0.771   3.050  19.496  0.00  0.00    +0.000 A 
ATOM     12  C   UNK A   0       1.223   4.370  19.634  0.00  0.00    +0.000 A 
ATOM     13  C   UNK A   0       2.345   4.813  18.925  0.00  0.00    +0.000 A 
ATOM     14  H   LEU A   1       1.885   6.891  20.655  0.00  0.00    +0.000 HD
ENDROOT
BRANCH   1  15
ATOM     15  CA  LEU A   1       2.063   8.635  19.491  0.00  0.00    +0.000 C 
BRANCH  15  16
ATOM     16  C   LEU A   1       1.495   8.979  18.079  0.00  0.00    +0.000 C 
ATOM     17  O   LEU A   1       0.324   9.262  17.850  0.00  0.00    +0.000 OA
BRANCH  16  18
ATOM     18  OXT LEU A   1       2.415   8.964  17.092  0.00  0.00    +0.000 OA
ATOM     19  HXT LEU A   1       2.567   8.039  16.771  0.00  0.00    +0.000 HD
ENDBRANCH  16  18
ENDBRANCH  15  16
BRANCH  15  20
ATOM     20  CB  LEU A   1       1.195   9.412  20.522  0.00  0.00    +0.000 C 
BRANCH  20  22
ATOM     21  CD1 LEU A   1       0.720   9.589  23.052  0.00  0.00    +0.000 C 
ATOM     22  CG  LEU A   1       0.688   8.712  21.799  0.00  0.00    +0.000 C 
ATOM     23  CD2 LEU A   1      -0.767   8.255  21.571  0.00  0.00    +0.000 C 
ENDBRANCH  20  22
ENDBRANCH  15  20
ENDBRANCH   1  15
TORSDOF 5
ENDMDL
MODEL 6
REMARK VINA RESULT:      -6.3      2.796      6.524
REMARK  Name = 
REMARK  9 active torsions:
REMARK  status: ('A' for Active; 'I' for Inactive)
REMARK    1  A    between atoms: CD1_1  and  CG_2
REMARK    2  A    between atoms: CG_2  and  CD2_3
REMARK    3  A    between atoms: CG_2  and  CB_4
REMARK    4  A    between atoms: CB_4  and  CA_5
REMARK    5  A    between atoms: CA_5  and  N_6
REMARK    6  A    between atoms: CA_5  and  C_19
REMARK    7  A    between atoms: C_9  and  C_10
REMARK    8  A    between atoms: C_9  and  C_11
REMARK    9  A    between atoms: C_19  and  OXT_21
REMARK                            x       y       z     vdW  Elec       q    Type
REMARK                         _______ _______ _______ _____ _____    ______ ____
ROOT
ATOM      1  N   LEU A   1       3.833   3.658  16.462  0.00  0.00    +0.000 N 
ATOM      2  C   UNK A   0       5.064   4.281  16.258  0.00  0.00    +0.000 C 
ATOM      3  N   UNK A   0       5.540   5.032  17.202  0.00  0.00    +0.000 NA
ATOM      4  C   UNK A   0       6.918   5.593  17.121  0.00  0.00    +0.000 C 
ATOM      5  C   UNK A   0       7.869   4.647  17.880  0.00  0.00    +0.000 C 
ATOM      6  C   UNK A   0       6.891   6.941  17.858  0.00  0.00    +0.000 C 
ATOM      7  C   UNK A   0       7.440   5.830  15.699  0.00  0.00    +0.000 C 
ATOM      8  C   UNK A   0       6.901   4.882  14.674  0.00  0.00    +0.000 A 
ATOM      9  C   UNK A   0       7.487   4.870  13.396  0.00  0.00    +0.000 A 
ATOM     10  C   UNK A   0       6.901   4.147  12.362  0.00  0.00    +0.000 A 
ATOM     11  C   UNK A   0       5.729   3.435  12.599  0.00  0.00    +0.000 A 
ATOM     12  C   UNK A   0       5.150   3.430  13.875  0.00  0.00    +0.000 A 
ATOM     13  C   UNK A   0       5.741   4.143  14.925  0.00  0.00    +0.000 A 
ATOM     14  H   LEU A   1       3.818   2.676  16.219  0.00  0.00    +0.000 HD
ENDROOT
BRANCH   1  15
ATOM     15  CA  LEU A   1       2.887   4.021  17.543  0.00  0.00    +0.000 C 
BRANCH  15  16
ATOM     16  C   LEU A   1       2.033   2.773  17.924  0.00  0.00    +0.000 C 
ATOM     17  O   LEU A   1       0.846   2.809  18.230  0.00  0.00    +0.000 OA
BRANCH  16  18
ATOM     18  OXT LEU A   1       2.706   1.605  17.874  0.00  0.00    +0.000 OA
ATOM     19  HXT LEU A   1       2.158   0.904  17.437  0.00  0.00    +0.000 HD
ENDBRANCH  16  18
ENDBRANCH  15  16
BRANCH  15  20
ATOM     20  CB  LEU A   1       3.601   4.488  18.844  0.00  0.00    +0.000 C 
BRANCH  20  22
ATOM     21  CD1 LEU A   1       2.670   6.887  18.647  0.00  0.00    +0.000 C 
ATOM     22  CG  LEU A   1       3.132   5.762  19.575  0.00  0.00    +0.000 C 
ATOM     23  CD2 LEU A   1       1.960   5.399  20.509  0.00  0.00    +0.000 C 
ENDBRANCH  20  22
ENDBRANCH  15  20
ENDBRANCH   1  15
TORSDOF 5
ENDMDL
MODEL 7
REMARK VINA RESULT:      -6.2      1.364      3.198
REMARK  Name = 
REMARK  9 active torsions:
REMARK  status: ('A' for Active; 'I' for Inactive)
REMARK    1  A    between atoms: CD1_1  and  CG_2
REMARK    2  A    between atoms: CG_2  and  CD2_3
REMARK    3  A    between atoms: CG_2  and  CB_4
REMARK    4  A    between atoms: CB_4  and  CA_5
REMARK    5  A    between atoms: CA_5  and  N_6
REMARK    6  A    between atoms: CA_5  and  C_19
REMARK    7  A    between atoms: C_9  and  C_10
REMARK    8  A    between atoms: C_9  and  C_11
REMARK    9  A    between atoms: C_19  and  OXT_21
REMARK                            x       y       z     vdW  Elec       q    Type
REMARK                         _______ _______ _______ _____ _____    ______ ____
ROOT
ATOM      1  N   LEU A   1       5.471   5.721  18.601  0.00  0.00    +0.000 N 
ATOM      2  C   UNK A   0       4.531   4.787  19.035  0.00  0.00    +0.000 C 
ATOM      3  N   UNK A   0       4.736   3.535  18.770  0.00  0.00    +0.000 NA
ATOM      4  C   UNK A   0       3.862   2.472  19.342  0.00  0.00    +0.000 C 
ATOM      5  C   UNK A   0       4.527   1.943  20.628  0.00  0.00    +0.000 C 
ATOM      6  C   UNK A   0       3.824   1.329  18.315  0.00  0.00    +0.000 C 
ATOM      7  C   UNK A   0       2.421   2.904  19.638  0.00  0.00    +0.000 C 
ATOM      8  C   UNK A   0       2.270   4.348  20.004  0.00  0.00    +0.000 A 
ATOM      9  C   UNK A   0       1.034   4.785  20.512  0.00  0.00    +0.000 A 
ATOM     10  C   UNK A   0       0.788   6.143  20.686  0.00  0.00    +0.000 A 
ATOM     11  C   UNK A   0       1.773   7.068  20.355  0.00  0.00    +0.000 A 
ATOM     12  C   UNK A   0       3.013   6.636  19.865  0.00  0.00    +0.000 A 
ATOM     13  C   UNK A   0       3.274   5.271  19.700  0.00  0.00    +0.000 A 
ATOM     14  H   LEU A   1       5.745   6.395  19.305  0.00  0.00    +0.000 HD
ENDROOT
BRANCH   1  15
ATOM     15  CA  LEU A   1       6.530   5.432  17.606  0.00  0.00    +0.000 C 
BRANCH  15  16
ATOM     16  C   LEU A   1       7.793   4.881  18.339  0.00  0.00    +0.000 C 
ATOM     17  O   LEU A   1       8.167   5.245  19.449  0.00  0.00    +0.000 OA
BRANCH  16  18
ATOM     18  OXT LEU A   1       8.459   3.929  17.654  0.00  0.00    +0.000 OA
ATOM     19  HXT LEU A   1       8.872   4.310  16.838  0.00  0.00    +0.000 HD
ENDBRANCH  16  18
ENDBRANCH  15  16
BRANCH  15  20
ATOM     20  CB  LEU A   1       6.111   4.354  16.567  0.00  0.00    +0.000 C 
BRANCH  20  22
ATOM     21  CD1 LEU A   1       5.213   6.268  15.087  0.00  0.00    +0.000 C 
ATOM     22  CG  LEU A   1       5.503   4.771  15.212  0.00  0.00    +0.000 C 
ATOM     23  CD2 LEU A   1       6.479   4.375  14.086  0.00  0.00    +0.000 C 
ENDBRANCH  20  22
ENDBRANCH  15  20
ENDBRANCH   1  15
TORSDOF 5
ENDMDL
MODEL 8
REMARK VINA RESULT:      -6.2      2.851      6.659
REMARK  Name = 
REMARK  9 active torsions:
REMARK  status: ('A' for Active; 'I' for Inactive)
REMARK    1  A    between atoms: CD1_1  and  CG_2
REMARK    2  A    between atoms: CG_2  and  CD2_3
REMARK    3  A    between atoms: CG_2  and  CB_4
REMARK    4  A    between atoms: CB_4  and  CA_5
REMARK    5  A    between atoms: CA_5  and  N_6
REMARK    6  A    between atoms: CA_5  and  C_19
REMARK    7  A    between atoms: C_9  and  C_10
REMARK    8  A    between atoms: C_9  and  C_11
REMARK    9  A    between atoms: C_19  and  OXT_21
REMARK                            x       y       z     vdW  Elec       q    Type
REMARK                         _______ _______ _______ _____ _____    ______ ____
ROOT
ATOM      1  N   LEU A   1       3.890   3.652  16.919  0.00  0.00    +0.000 N 
ATOM      2  C   UNK A   0       5.111   4.267  16.645  0.00  0.00    +0.000 C 
ATOM      3  N   UNK A   0       5.651   5.005  17.564  0.00  0.00    +0.000 NA
ATOM      4  C   UNK A   0       7.026   5.556  17.402  0.00  0.00    +0.000 C 
ATOM      5  C   UNK A   0       8.014   4.595  18.091  0.00  0.00    +0.000 C 
ATOM      6  C   UNK A   0       7.057   6.896  18.153  0.00  0.00    +0.000 C 
ATOM      7  C   UNK A   0       7.461   5.803  15.953  0.00  0.00    +0.000 C 
ATOM      8  C   UNK A   0       6.850   4.869  14.955  0.00  0.00    +0.000 A 
ATOM      9  C   UNK A   0       7.355   4.866  13.642  0.00  0.00    +0.000 A 
ATOM     10  C   UNK A   0       6.700   4.158  12.640  0.00  0.00    +0.000 A 
ATOM     11  C   UNK A   0       5.540   3.453  12.942  0.00  0.00    +0.000 A 
ATOM     12  C   UNK A   0       5.041   3.439  14.253  0.00  0.00    +0.000 A 
ATOM     13  C   UNK A   0       5.702   4.137  15.270  0.00  0.00    +0.000 A 
ATOM     14  H   LEU A   1       3.851   2.672  16.668  0.00  0.00    +0.000 HD
ENDROOT
BRANCH   1  15
ATOM     15  CA  LEU A   1       3.016   4.011  18.060  0.00  0.00    +0.000 C 
BRANCH  15  16
ATOM     16  C   LEU A   1       1.532   3.699  17.694  0.00  0.00    +0.000 C 
ATOM     17  O   LEU A   1       0.804   4.444  17.046  0.00  0.00    +0.000 OA
BRANCH  16  18
ATOM     18  OXT LEU A   1       1.091   2.505  18.137  0.00  0.00    +0.000 OA
ATOM     19  HXT LEU A   1       0.886   1.903  17.377  0.00  0.00    +0.000 HD
ENDBRANCH  16  18
ENDBRANCH  15  16
BRANCH  15  20
ATOM     20  CB  LEU A   1       3.337   3.203  19.350  0.00  0.00    +0.000 C 
BRANCH  20  22
ATOM     21  CD1 LEU A   1       2.176   5.078  20.689  0.00  0.00    +0.000 C 
ATOM     22  CG  LEU A   1       2.946   3.757  20.734  0.00  0.00    +0.000 C 
ATOM     23  CD2 LEU A   1       2.068   2.715  21.458  0.00  0.00    +0.000 C 
ENDBRANCH  20  22
ENDBRANCH  15  20
ENDBRANCH   1  15
TORSDOF 5
ENDMDL
MODEL 9
REMARK VINA RESULT:      -6.2      2.567      6.550
REMARK  Name = 
REMARK  9 active torsions:
REMARK  status: ('A' for Active; 'I' for Inactive)
REMARK    1  A    between atoms: CD1_1  and  CG_2
REMARK    2  A    between atoms: CG_2  and  CD2_3
REMARK    3  A    between atoms: CG_2  and  CB_4
REMARK    4  A    between atoms: CB_4  and  CA_5
REMARK    5  A    between atoms: CA_5  and  N_6
REMARK    6  A    between atoms: CA_5  and  C_19
REMARK    7  A    between atoms: C_9  and  C_10
REMARK    8  A    between atoms: C_9  and  C_11
REMARK    9  A    between atoms: C_19  and  OXT_21
REMARK                            x       y       z     vdW  Elec       q    Type
REMARK                         _______ _______ _______ _____ _____    ______ ____
ROOT
ATOM      1  N   LEU A   1       4.029   3.419  16.863  0.00  0.00    +0.000 N 
ATOM      2  C   UNK A   0       5.214   4.104  16.599  0.00  0.00    +0.000 C 
ATOM      3  N   UNK A   0       5.733   4.825  17.543  0.00  0.00    +0.000 NA
ATOM      4  C   UNK A   0       7.078   5.449  17.387  0.00  0.00    +0.000 C 
ATOM      5  C   UNK A   0       8.122   4.508  18.018  0.00  0.00    +0.000 C 
ATOM      6  C   UNK A   0       7.056   6.755  18.196  0.00  0.00    +0.000 C 
ATOM      7  C   UNK A   0       7.476   5.781  15.943  0.00  0.00    +0.000 C 
ATOM      8  C   UNK A   0       6.895   4.863  14.914  0.00  0.00    +0.000 A 
ATOM      9  C   UNK A   0       7.378   4.942  13.595  0.00  0.00    +0.000 A 
ATOM     10  C   UNK A   0       6.741   4.248  12.572  0.00  0.00    +0.000 A 
ATOM     11  C   UNK A   0       5.621   3.475  12.859  0.00  0.00    +0.000 A 
ATOM     12  C   UNK A   0       5.145   3.380  14.174  0.00  0.00    +0.000 A 
ATOM     13  C   UNK A   0       5.789   4.063  15.212  0.00  0.00    +0.000 A 
ATOM     14  H   LEU A   1       4.033   2.450  16.569  0.00  0.00    +0.000 HD
ENDROOT
BRANCH   1  15
ATOM     15  CA  LEU A   1       3.158   3.684  18.031  0.00  0.00    +0.000 C 
BRANCH  15  16
ATOM     16  C   LEU A   1       2.138   4.810  17.672  0.00  0.00    +0.000 C 
ATOM     17  O   LEU A   1       1.016   4.613  17.219  0.00  0.00    +0.000 OA
BRANCH  16  18
ATOM     18  OXT LEU A   1       2.582   6.059  17.919  0.00  0.00    +0.000 OA
ATOM     19  HXT LEU A   1       2.389   6.320  18.855  0.00  0.00    +0.000 HD
ENDBRANCH  16  18
ENDBRANCH  15  16
BRANCH  15  20
ATOM     20  CB  LEU A   1       2.321   2.445  18.461  0.00  0.00    +0.000 C 
BRANCH  20  22
ATOM     21  CD1 LEU A   1       3.034   2.645  20.933  0.00  0.00    +0.000 C 
ATOM     22  CG  LEU A   1       1.944   2.234  19.941  0.00  0.00    +0.000 C 
ATOM     23  CD2 LEU A   1       0.677   3.055  20.254  0.00  0.00    +0.000 C 
ENDBRANCH  20  22
ENDBRANCH  15  20
ENDBRANCH   1  15
TORSDOF 5
ENDMDL
