MODEL 1
REMARK VINA RESULT:      -8.8      0.000      0.000
REMARK  Name = 
REMARK  8 active torsions:
REMARK  status: ('A' for Active; 'I' for Inactive)
REMARK    1  A    between atoms: C_1  and  C_2
REMARK    2  A    between atoms: C_2  and  C_3
REMARK    3  A    between atoms: C_3  and  C_4
REMARK    4  A    between atoms: C_4  and  C_5
REMARK    5  A    between atoms: C_15  and  O_16
REMARK    6  A    between atoms: C_17  and  C_18
REMARK    7  A    between atoms: C_18  and  C_19
REMARK    8  A    between atoms: C_18  and  C_25
REMARK                            x       y       z     vdW  Elec       q    Type
REMARK                         _______ _______ _______ _____ _____    ______ ____
ROOT
ATOM      1  C   UNL     1       3.995   5.117  17.697  0.00  0.00    +0.000 C 
ATOM      2  C   UNL     1       2.982   4.313  16.915  0.00  0.00    +0.000 C 
ATOM      3  C   UNL     1       2.391   3.265  17.837  0.00  0.00    +0.000 C 
ATOM      4  C   UNL     1       1.186   3.749  18.582  0.00  0.00    +0.000 C 
ATOM      5  C   UNL     1       1.414   3.799  20.088  0.00  0.00    +0.000 C 
ATOM      6  C   UNL     1       1.091   5.181  20.620  0.00  0.00    +0.000 C 
ATOM      7  C   UNL     1       2.398   5.988  20.740  0.00  0.00    +0.000 C 
ATOM      8  C   UNL     1       2.575   6.797  19.546  0.00  0.00    +0.000 A 
ATOM      9  C   UNL     1       3.271   6.608  18.332  0.00  0.00    +0.000 A 
ATOM     10  O   UNL     1       3.139   7.764  17.489  0.00  0.00    +0.000 OA
ATOM     11  C   UNL     1       2.233   8.891  17.812  0.00  0.00    +0.000 A 
ATOM     12  C   UNL     1       1.163   8.764  18.614  0.00  0.00    +0.000 A 
ATOM     13  C   UNL     1       1.741   8.081  19.778  0.00  0.00    +0.000 A 
ATOM     14  O   UNL     1       1.531   8.504  20.914  0.00  0.00    +0.000 OA
ENDROOT
BRANCH  11  15
ATOM     15  O   UNL     1       2.645  10.174  17.431  0.00  0.00    +0.000 OA
ATOM     16  H   UNL     1       1.851  10.619  17.065  0.00  0.00    +0.000 HD
ENDBRANCH  11  15
BRANCH   1  17
ATOM     17  C   UNL     1       5.498   4.440  17.046  0.00  0.00    +0.000 C 
BRANCH  17  18
ATOM     18  C   UNL     1       7.034   4.872  17.660  0.00  0.00    +0.000 C 
BRANCH  18  20
ATOM     19  C   UNL     1       7.630   7.515  17.585  0.00  0.00    +0.000 C 
ATOM     20  C   UNL     1       7.413   6.221  18.392  0.00  0.00    +0.000 C 
ENDBRANCH  18  20
ENDBRANCH  17  18
ENDBRANCH   1  17
BRANCH  12  21
ATOM     21  C   UNL     1      -0.147   9.619  18.987  0.00  0.00    +0.000 C 
BRANCH  21  22
ATOM     22  C   UNL     1      -0.067  10.887  19.884  0.00  0.00    +0.000 A 
ATOM     23  C   UNL     1      -0.772  11.019  21.084  0.00  0.00    +0.000 A 
ATOM     24  C   UNL     1      -0.591  12.131  21.922  0.00  0.00    +0.000 A 
ATOM     25  C   UNL     1       0.341  13.120  21.611  0.00  0.00    +0.000 A 
ATOM     26  C   UNL     1       1.098  12.991  20.446  0.00  0.00    +0.000 A 
ATOM     27  C   UNL     1       0.889  11.894  19.599  0.00  0.00    +0.000 A 
ENDBRANCH  21  22
BRANCH  21  28
ATOM     28  C   UNL     1      -0.919  10.083  17.720  0.00  0.00    +0.000 C 
ATOM     29  C   UNL     1      -2.355   9.658  17.515  0.00  0.00    +0.000 C 
ATOM     30  C   UNL     1      -2.054  11.111  17.720  0.00  0.00    +0.000 C 
ENDBRANCH  21  28
ENDBRANCH  12  21
TORSDOF 7
ENDMDL
MODEL 2
REMARK VINA RESULT:      -8.6      1.022      1.783
REMARK  Name = 
REMARK  8 active torsions:
REMARK  status: ('A' for Active; 'I' for Inactive)
REMARK    1  A    between atoms: C_1  and  C_2
REMARK    2  A    between atoms: C_2  and  C_3
REMARK    3  A    between atoms: C_3  and  C_4
REMARK    4  A    between atoms: C_4  and  C_5
REMARK    5  A    between atoms: C_15  and  O_16
REMARK    6  A    between atoms: C_17  and  C_18
REMARK    7  A    between atoms: C_18  and  C_19
REMARK    8  A    between atoms: C_18  and  C_25
REMARK                            x       y       z     vdW  Elec       q    Type
REMARK                         _______ _______ _______ _____ _____    ______ ____
ROOT
ATOM      1  C   UNL     1       3.803   5.096  17.629  0.00  0.00    +0.000 C 
ATOM      2  C   UNL     1       2.728   4.313  16.910  0.00  0.00    +0.000 C 
ATOM      3  C   UNL     1       2.173   3.277  17.866  0.00  0.00    +0.000 C 
ATOM      4  C   UNL     1       1.026   3.784  18.684  0.00  0.00    +0.000 C 
ATOM      5  C   UNL     1       1.345   3.829  20.173  0.00  0.00    +0.000 C 
ATOM      6  C   UNL     1       1.083   5.217  20.723  0.00  0.00    +0.000 C 
ATOM      7  C   UNL     1       2.411   5.997  20.763  0.00  0.00    +0.000 C 
ATOM      8  C   UNL     1       2.531   6.803  19.560  0.00  0.00    +0.000 A 
ATOM      9  C   UNL     1       3.148   6.601  18.306  0.00  0.00    +0.000 A 
ATOM     10  O   UNL     1       2.989   7.760  17.471  0.00  0.00    +0.000 OA
ATOM     11  C   UNL     1       2.127   8.905  17.849  0.00  0.00    +0.000 A 
ATOM     12  C   UNL     1       1.105   8.799  18.714  0.00  0.00    +0.000 A 
ATOM     13  C   UNL     1       1.739   8.104  19.841  0.00  0.00    +0.000 A 
ATOM     14  O   UNL     1       1.608   8.530  20.987  0.00  0.00    +0.000 OA
ENDROOT
BRANCH  11  15
ATOM     15  O   UNL     1       2.541  10.179  17.442  0.00  0.00    +0.000 OA
ATOM     16  H   UNL     1       1.840  10.518  16.846  0.00  0.00    +0.000 HD
ENDBRANCH  11  15
BRANCH   1  17
ATOM     17  C   UNL     1       5.249   4.390  16.888  0.00  0.00    +0.000 C 
BRANCH  17  18
ATOM     18  C   UNL     1       5.898   4.972  15.417  0.00  0.00    +0.000 C 
BRANCH  18  20
ATOM     19  C   UNL     1       5.683   3.685  13.042  0.00  0.00    +0.000 C 
ATOM     20  C   UNL     1       6.531   4.107  14.256  0.00  0.00    +0.000 C 
ENDBRANCH  18  20
ENDBRANCH  17  18
ENDBRANCH   1  17
BRANCH  12  21
ATOM     21  C   UNL     1      -0.161   9.680  19.165  0.00  0.00    +0.000 C 
BRANCH  21  22
ATOM     22  C   UNL     1      -0.019  10.867  20.161  0.00  0.00    +0.000 A 
ATOM     23  C   UNL     1       0.727  12.016  19.879  0.00  0.00    +0.000 A 
ATOM     24  C   UNL     1       0.743  13.112  20.755  0.00  0.00    +0.000 A 
ATOM     25  C   UNL     1      -0.030  13.115  21.916  0.00  0.00    +0.000 A 
ATOM     26  C   UNL     1      -0.825  12.005  22.199  0.00  0.00    +0.000 A 
ATOM     27  C   UNL     1      -0.811  10.901  21.336  0.00  0.00    +0.000 A 
ENDBRANCH  21  22
BRANCH  21  28
ATOM     28  C   UNL     1      -0.917  10.280  17.947  0.00  0.00    +0.000 C 
ATOM     29  C   UNL     1      -2.207   9.649  17.475  0.00  0.00    +0.000 C 
ATOM     30  C   UNL     1      -2.244  11.039  18.033  0.00  0.00    +0.000 C 
ENDBRANCH  21  28
ENDBRANCH  12  21
TORSDOF 7
ENDMDL
MODEL 3
REMARK VINA RESULT:      -8.1      0.820      1.254
REMARK  Name = 
REMARK  8 active torsions:
REMARK  status: ('A' for Active; 'I' for Inactive)
REMARK    1  A    between atoms: C_1  and  C_2
REMARK    2  A    between atoms: C_2  and  C_3
REMARK    3  A    between atoms: C_3  and  C_4
REMARK    4  A    between atoms: C_4  and  C_5
REMARK    5  A    between atoms: C_15  and  O_16
REMARK    6  A    between atoms: C_17  and  C_18
REMARK    7  A    between atoms: C_18  and  C_19
REMARK    8  A    between atoms: C_18  and  C_25
REMARK                            x       y       z     vdW  Elec       q    Type
REMARK                         _______ _______ _______ _____ _____    ______ ____
ROOT
ATOM      1  C   UNL     1       4.035   5.870  17.812  0.00  0.00    +0.000 C 
ATOM      2  C   UNL     1       3.101   5.060  16.942  0.00  0.00    +0.000 C 
ATOM      3  C   UNL     1       2.584   3.891  17.757  0.00  0.00    +0.000 C 
ATOM      4  C   UNL     1       1.333   4.211  18.517  0.00  0.00    +0.000 C 
ATOM      5  C   UNL     1       1.535   4.147  20.026  0.00  0.00    +0.000 C 
ATOM      6  C   UNL     1       1.095   5.447  20.669  0.00  0.00    +0.000 C 
ATOM      7  C   UNL     1       2.331   6.341  20.885  0.00  0.00    +0.000 C 
ATOM      8  C   UNL     1       2.458   7.263  19.769  0.00  0.00    +0.000 A 
ATOM      9  C   UNL     1       3.184   7.238  18.558  0.00  0.00    +0.000 A 
ATOM     10  O   UNL     1       2.971   8.449  17.815  0.00  0.00    +0.000 OA
ATOM     11  C   UNL     1       1.973   9.469  18.216  0.00  0.00    +0.000 A 
ATOM     12  C   UNL     1       0.905   9.187  18.981  0.00  0.00    +0.000 A 
ATOM     13  C   UNL     1       1.521   8.452  20.094  0.00  0.00    +0.000 A 
ATOM     14  O   UNL     1       1.262   8.756  21.257  0.00  0.00    +0.000 OA
ENDROOT
BRANCH  11  15
ATOM     15  O   UNL     1       2.285  10.808  17.956  0.00  0.00    +0.000 OA
ATOM     16  H   UNL     1       2.496  11.214  18.823  0.00  0.00    +0.000 HD
ENDBRANCH  11  15
BRANCH   1  17
ATOM     17  C   UNL     1       5.597   5.374  17.136  0.00  0.00    +0.000 C 
BRANCH  17  18
ATOM     18  C   UNL     1       7.053   6.185  17.515  0.00  0.00    +0.000 C 
BRANCH  18  20
ATOM     19  C   UNL     1       8.290   8.475  18.270  0.00  0.00    +0.000 C 
ATOM     20  C   UNL     1       7.363   7.720  17.299  0.00  0.00    +0.000 C 
ENDBRANCH  18  20
ENDBRANCH  17  18
ENDBRANCH   1  17
BRANCH  12  21
ATOM     21  C   UNL     1      -0.474   9.900  19.400  0.00  0.00    +0.000 C 
BRANCH  21  22
ATOM     22  C   UNL     1      -0.511  11.071  20.422  0.00  0.00    +0.000 A 
ATOM     23  C   UNL     1      -0.325  12.409  20.058  0.00  0.00    +0.000 A 
ATOM     24  C   UNL     1      -0.475  13.449  20.989  0.00  0.00    +0.000 A 
ATOM     25  C   UNL     1      -0.869  13.187  22.300  0.00  0.00    +0.000 A 
ATOM     26  C   UNL     1      -1.113  11.868  22.681  0.00  0.00    +0.000 A 
ATOM     27  C   UNL     1      -0.930  10.832  21.754  0.00  0.00    +0.000 A 
ENDBRANCH  21  22
BRANCH  21  28
ATOM     28  C   UNL     1      -1.252  10.433  18.164  0.00  0.00    +0.000 C 
ATOM     29  C   UNL     1      -1.502   9.525  16.982  0.00  0.00    +0.000 C 
ATOM     30  C   UNL     1      -2.673  10.010  17.782  0.00  0.00    +0.000 C 
ENDBRANCH  21  28
ENDBRANCH  12  21
TORSDOF 7
ENDMDL
MODEL 4
REMARK VINA RESULT:      -7.8      2.450      7.967
REMARK  Name = 
REMARK  8 active torsions:
REMARK  status: ('A' for Active; 'I' for Inactive)
REMARK    1  A    between atoms: C_1  and  C_2
REMARK    2  A    between atoms: C_2  and  C_3
REMARK    3  A    between atoms: C_3  and  C_4
REMARK    4  A    between atoms: C_4  and  C_5
REMARK    5  A    between atoms: C_15  and  O_16
REMARK    6  A    between atoms: C_17  and  C_18
REMARK    7  A    between atoms: C_18  and  C_19
REMARK    8  A    between atoms: C_18  and  C_25
REMARK                            x       y       z     vdW  Elec       q    Type
REMARK                         _______ _______ _______ _____ _____    ______ ____
ROOT
ATOM      1  C   UNL     1       0.279  15.108  19.570  0.00  0.00    +0.000 C 
ATOM      2  C   UNL     1       0.866  15.268  20.954  0.00  0.00    +0.000 C 
ATOM      3  C   UNL     1      -0.275  15.354  21.949  0.00  0.00    +0.000 C 
ATOM      4  C   UNL     1      -0.707  14.016  22.465  0.00  0.00    +0.000 C 
ATOM      5  C   UNL     1      -2.136  13.670  22.064  0.00  0.00    +0.000 C 
ATOM      6  C   UNL     1      -2.172  12.325  21.367  0.00  0.00    +0.000 C 
ATOM      7  C   UNL     1      -2.161  12.551  19.843  0.00  0.00    +0.000 C 
ATOM      8  C   UNL     1      -0.798  12.453  19.352  0.00  0.00    +0.000 A 
ATOM      9  C   UNL     1       0.220  13.398  19.098  0.00  0.00    +0.000 A 
ATOM     10  O   UNL     1       1.392  12.752  18.577  0.00  0.00    +0.000 OA
ATOM     11  C   UNL     1       1.531  11.277  18.513  0.00  0.00    +0.000 A 
ATOM     12  C   UNL     1       0.841  10.442  19.307  0.00  0.00    +0.000 A 
ATOM     13  C   UNL     1      -0.530  10.941  19.146  0.00  0.00    +0.000 A 
ATOM     14  O   UNL     1      -1.448  10.164  18.890  0.00  0.00    +0.000 OA
ENDROOT
BRANCH  11  15
ATOM     15  O   UNL     1       2.254  10.748  17.437  0.00  0.00    +0.000 OA
ATOM     16  H   UNL     1       2.830  10.048  17.811  0.00  0.00    +0.000 HD
ENDBRANCH  11  15
BRANCH   1  17
ATOM     17  C   UNL     1       0.531  16.744  18.936  0.00  0.00    +0.000 C 
BRANCH  17  18
ATOM     18  C   UNL     1       1.885  17.150  17.975  0.00  0.00    +0.000 C 
BRANCH  18  20
ATOM     19  C   UNL     1       3.810  15.291  17.542  0.00  0.00    +0.000 C 
ATOM     20  C   UNL     1       3.366  16.629  18.162  0.00  0.00    +0.000 C 
ENDBRANCH  18  20
ENDBRANCH  17  18
ENDBRANCH   1  17
BRANCH  12  21
ATOM     21  C   UNL     1       0.888   8.888  19.717  0.00  0.00    +0.000 C 
BRANCH  21  22
ATOM     22  C   UNL     1       2.033   7.950  19.237  0.00  0.00    +0.000 A 
ATOM     23  C   UNL     1       2.404   6.787  19.920  0.00  0.00    +0.000 A 
ATOM     24  C   UNL     1       3.366   5.908  19.400  0.00  0.00    +0.000 A 
ATOM     25  C   UNL     1       3.948   6.136  18.154  0.00  0.00    +0.000 A 
ATOM     26  C   UNL     1       3.561   7.259  17.424  0.00  0.00    +0.000 A 
ATOM     27  C   UNL     1       2.623   8.150  17.964  0.00  0.00    +0.000 A 
ENDBRANCH  21  22
BRANCH  21  28
ATOM     28  C   UNL     1       0.839   8.690  21.258  0.00  0.00    +0.000 C 
ATOM     29  C   UNL     1       0.540   9.865  22.159  0.00  0.00    +0.000 C 
ATOM     30  C   UNL     1      -0.439   8.733  22.100  0.00  0.00    +0.000 C 
ENDBRANCH  21  28
ENDBRANCH  12  21
TORSDOF 7
ENDMDL
MODEL 5
REMARK VINA RESULT:      -7.7      2.718      8.238
REMARK  Name = 
REMARK  8 active torsions:
REMARK  status: ('A' for Active; 'I' for Inactive)
REMARK    1  A    between atoms: C_1  and  C_2
REMARK    2  A    between atoms: C_2  and  C_3
REMARK    3  A    between atoms: C_3  and  C_4
REMARK    4  A    between atoms: C_4  and  C_5
REMARK    5  A    between atoms: C_15  and  O_16
REMARK    6  A    between atoms: C_17  and  C_18
REMARK    7  A    between atoms: C_18  and  C_19
REMARK    8  A    between atoms: C_18  and  C_25
REMARK                            x       y       z     vdW  Elec       q    Type
REMARK                         _______ _______ _______ _____ _____    ______ ____
ROOT
ATOM      1  C   UNL     1       1.617   5.760  20.028  0.00  0.00    +0.000 C 
ATOM      2  C   UNL     1       2.421   5.378  21.250  0.00  0.00    +0.000 C 
ATOM      3  C   UNL     1       2.036   3.968  21.652  0.00  0.00    +0.000 C 
ATOM      4  C   UNL     1       2.864   2.917  20.981  0.00  0.00    +0.000 C 
ATOM      5  C   UNL     1       2.041   2.027  20.058  0.00  0.00    +0.000 C 
ATOM      6  C   UNL     1       2.649   2.008  18.669  0.00  0.00    +0.000 C 
ATOM      7  C   UNL     1       1.906   3.029  17.786  0.00  0.00    +0.000 C 
ATOM      8  C   UNL     1       2.638   4.285  17.783  0.00  0.00    +0.000 A 
ATOM      9  C   UNL     1       2.544   5.472  18.541  0.00  0.00    +0.000 A 
ATOM     10  O   UNL     1       3.511   6.435  18.094  0.00  0.00    +0.000 OA
ATOM     11  C   UNL     1       4.564   6.111  17.102  0.00  0.00    +0.000 A 
ATOM     12  C   UNL     1       5.001   4.861  16.881  0.00  0.00    +0.000 A 
ATOM     13  C   UNL     1       3.740   4.129  16.706  0.00  0.00    +0.000 A 
ATOM     14  O   UNL     1       3.584   3.381  15.743  0.00  0.00    +0.000 OA
ENDROOT
BRANCH  11  15
ATOM     15  O   UNL     1       4.952   7.130  16.224  0.00  0.00    +0.000 OA
ATOM     16  H   UNL     1       4.244   7.196  15.549  0.00  0.00    +0.000 HD
ENDBRANCH  11  15
BRANCH   1  17
ATOM     17  C   UNL     1       0.429   6.849  20.766  0.00  0.00    +0.000 C 
BRANCH  17  18
ATOM     18  C   UNL     1       0.745   8.510  21.013  0.00  0.00    +0.000 C 
BRANCH  18  20
ATOM     19  C   UNL     1      -0.281   9.577  23.284  0.00  0.00    +0.000 C 
ATOM     20  C   UNL     1       0.936   9.239  22.403  0.00  0.00    +0.000 C 
ENDBRANCH  18  20
ENDBRANCH  17  18
ENDBRANCH   1  17
BRANCH  12  21
ATOM     21  C   UNL     1       6.235   4.153  16.131  0.00  0.00    +0.000 C 
BRANCH  21  22
ATOM     22  C   UNL     1       6.481   4.337  14.607  0.00  0.00    +0.000 A 
ATOM     23  C   UNL     1       7.450   5.202  14.088  0.00  0.00    +0.000 A 
ATOM     24  C   UNL     1       7.718   5.261  12.712  0.00  0.00    +0.000 A 
ATOM     25  C   UNL     1       7.063   4.418  11.816  0.00  0.00    +0.000 A 
ATOM     26  C   UNL     1       6.127   3.508  12.308  0.00  0.00    +0.000 A 
ATOM     27  C   UNL     1       5.842   3.477  13.680  0.00  0.00    +0.000 A 
ENDBRANCH  21  22
BRANCH  21  28
ATOM     28  C   UNL     1       7.597   4.503  16.793  0.00  0.00    +0.000 C 
ATOM     29  C   UNL     1       7.762   5.810  17.533  0.00  0.00    +0.000 C 
ATOM     30  C   UNL     1       7.850   4.528  18.303  0.00  0.00    +0.000 C 
ENDBRANCH  21  28
ENDBRANCH  12  21
TORSDOF 7
ENDMDL
MODEL 6
REMARK VINA RESULT:      -7.6      3.572      9.556
REMARK  Name = 
REMARK  8 active torsions:
REMARK  status: ('A' for Active; 'I' for Inactive)
REMARK    1  A    between atoms: C_1  and  C_2
REMARK    2  A    between atoms: C_2  and  C_3
REMARK    3  A    between atoms: C_3  and  C_4
REMARK    4  A    between atoms: C_4  and  C_5
REMARK    5  A    between atoms: C_15  and  O_16
REMARK    6  A    between atoms: C_17  and  C_18
REMARK    7  A    between atoms: C_18  and  C_19
REMARK    8  A    between atoms: C_18  and  C_25
REMARK                            x       y       z     vdW  Elec       q    Type
REMARK                         _______ _______ _______ _____ _____    ______ ____
ROOT
ATOM      1  C   UNL     1      -4.845  13.968  21.148  0.00  0.00    +0.000 C 
ATOM      2  C   UNL     1      -4.362  15.360  20.809  0.00  0.00    +0.000 C 
ATOM      3  C   UNL     1      -3.936  16.043  22.093  0.00  0.00    +0.000 C 
ATOM      4  C   UNL     1      -2.498  15.806  22.437  0.00  0.00    +0.000 C 
ATOM      5  C   UNL     1      -2.329  15.023  23.732  0.00  0.00    +0.000 C 
ATOM      6  C   UNL     1      -1.463  13.802  23.497  0.00  0.00    +0.000 C 
ATOM      7  C   UNL     1      -2.373  12.579  23.275  0.00  0.00    +0.000 C 
ATOM      8  C   UNL     1      -2.561  12.371  21.849  0.00  0.00    +0.000 A 
ATOM      9  C   UNL     1      -3.551  12.774  20.926  0.00  0.00    +0.000 A 
ATOM     10  O   UNL     1      -3.261  12.257  19.617  0.00  0.00    +0.000 OA
ATOM     11  C   UNL     1      -1.992  11.563  19.293  0.00  0.00    +0.000 A 
ATOM     12  C   UNL     1      -0.860  11.744  19.994  0.00  0.00    +0.000 A 
ATOM     13  C   UNL     1      -1.330  11.562  21.373  0.00  0.00    +0.000 A 
ATOM     14  O   UNL     1      -0.730  10.811  22.140  0.00  0.00    +0.000 OA
ENDROOT
BRANCH  11  15
ATOM     15  O   UNL     1      -2.049  10.528  18.353  0.00  0.00    +0.000 OA
ATOM     16  H   UNL     1      -1.134  10.186  18.266  0.00  0.00    +0.000 HD
ENDBRANCH  11  15
BRANCH   1  17
ATOM     17  C   UNL     1      -6.596  14.202  20.998  0.00  0.00    +0.000 C 
BRANCH  17  18
ATOM     18  C   UNL     1      -7.531  13.362  19.840  0.00  0.00    +0.000 C 
BRANCH  18  20
ATOM     19  C   UNL     1      -7.398  10.726  20.456  0.00  0.00    +0.000 C 
ATOM     20  C   UNL     1      -7.363  11.852  19.405  0.00  0.00    +0.000 C 
ENDBRANCH  18  20
ENDBRANCH  17  18
ENDBRANCH   1  17
BRANCH  12  21
ATOM     21  C   UNL     1       0.704  11.410  19.825  0.00  0.00    +0.000 C 
BRANCH  21  22
ATOM     22  C   UNL     1       1.195  10.011  19.354  0.00  0.00    +0.000 A 
ATOM     23  C   UNL     1       1.694   9.769  18.070  0.00  0.00    +0.000 A 
ATOM     24  C   UNL     1       2.230   8.521  17.716  0.00  0.00    +0.000 A 
ATOM     25  C   UNL     1       2.333   7.492  18.651  0.00  0.00    +0.000 A 
ATOM     26  C   UNL     1       1.891   7.719  19.954  0.00  0.00    +0.000 A 
ATOM     27  C   UNL     1       1.329   8.957  20.292  0.00  0.00    +0.000 A 
ENDBRANCH  21  22
BRANCH  21  28
ATOM     28  C   UNL     1       1.415  12.415  18.876  0.00  0.00    +0.000 C 
ATOM     29  C   UNL     1       0.975  13.859  18.842  0.00  0.00    +0.000 C 
ATOM     30  C   UNL     1       2.350  13.535  19.338  0.00  0.00    +0.000 C 
ENDBRANCH  21  28
ENDBRANCH  12  21
TORSDOF 7
ENDMDL
MODEL 7
REMARK VINA RESULT:      -7.6      2.672      8.214
REMARK  Name = 
REMARK  8 active torsions:
REMARK  status: ('A' for Active; 'I' for Inactive)
REMARK    1  A    between atoms: C_1  and  C_2
REMARK    2  A    between atoms: C_2  and  C_3
REMARK    3  A    between atoms: C_3  and  C_4
REMARK    4  A    between atoms: C_4  and  C_5
REMARK    5  A    between atoms: C_15  and  O_16
REMARK    6  A    between atoms: C_17  and  C_18
REMARK    7  A    between atoms: C_18  and  C_19
REMARK    8  A    between atoms: C_18  and  C_25
REMARK                            x       y       z     vdW  Elec       q    Type
REMARK                         _______ _______ _______ _____ _____    ______ ____
ROOT
ATOM      1  C   UNL     1       0.424  15.017  19.778  0.00  0.00    +0.000 C 
ATOM      2  C   UNL     1       0.949  15.090  21.194  0.00  0.00    +0.000 C 
ATOM      3  C   UNL     1      -0.235  15.121  22.140  0.00  0.00    +0.000 C 
ATOM      4  C   UNL     1      -0.692  13.757  22.555  0.00  0.00    +0.000 C 
ATOM      5  C   UNL     1      -2.102  13.442  22.071  0.00  0.00    +0.000 C 
ATOM      6  C   UNL     1      -2.110  12.142  21.293  0.00  0.00    +0.000 C 
ATOM      7  C   UNL     1      -2.031  12.459  19.788  0.00  0.00    +0.000 C 
ATOM      8  C   UNL     1      -0.647  12.384  19.352  0.00  0.00    +0.000 A 
ATOM      9  C   UNL     1       0.383  13.338  19.201  0.00  0.00    +0.000 A 
ATOM     10  O   UNL     1       1.576  12.719  18.694  0.00  0.00    +0.000 OA
ATOM     11  C   UNL     1       1.714  11.250  18.547  0.00  0.00    +0.000 A 
ATOM     12  C   UNL     1       0.988  10.372  19.258  0.00  0.00    +0.000 A 
ATOM     13  C   UNL     1      -0.374  10.887  19.067  0.00  0.00    +0.000 A 
ATOM     14  O   UNL     1      -1.282  10.131  18.725  0.00  0.00    +0.000 OA
ENDROOT
BRANCH  11  15
ATOM     15  O   UNL     1       2.482  10.783  17.475  0.00  0.00    +0.000 OA
ATOM     16  H   UNL     1       2.432  11.473  16.780  0.00  0.00    +0.000 HD
ENDBRANCH  11  15
BRANCH   1  17
ATOM     17  C   UNL     1       0.708  16.686  19.255  0.00  0.00    +0.000 C 
BRANCH  17  18
ATOM     18  C   UNL     1       1.962  17.101  18.171  0.00  0.00    +0.000 C 
BRANCH  18  20
ATOM     19  C   UNL     1       0.701  18.631  16.322  0.00  0.00    +0.000 C 
ATOM     20  C   UNL     1       1.795  17.609  16.683  0.00  0.00    +0.000 C 
ENDBRANCH  18  20
ENDBRANCH  17  18
ENDBRANCH   1  17
BRANCH  12  21
ATOM     21  C   UNL     1       1.013   8.796  19.575  0.00  0.00    +0.000 C 
BRANCH  21  22
ATOM     22  C   UNL     1       2.173   7.882  19.085  0.00  0.00    +0.000 A 
ATOM     23  C   UNL     1       2.521   6.684  19.719  0.00  0.00    +0.000 A 
ATOM     24  C   UNL     1       3.499   5.831  19.185  0.00  0.00    +0.000 A 
ATOM     25  C   UNL     1       4.122   6.123  17.972  0.00  0.00    +0.000 A 
ATOM     26  C   UNL     1       3.760   7.284  17.290  0.00  0.00    +0.000 A 
ATOM     27  C   UNL     1       2.805   8.147  17.845  0.00  0.00    +0.000 A 
ENDBRANCH  21  22
BRANCH  21  28
ATOM     28  C   UNL     1       0.902   8.506  21.098  0.00  0.00    +0.000 C 
ATOM     29  C   UNL     1       0.789   9.652  22.077  0.00  0.00    +0.000 C 
ATOM     30  C   UNL     1      -0.366   8.709  21.932  0.00  0.00    +0.000 C 
ENDBRANCH  21  28
ENDBRANCH  12  21
TORSDOF 7
ENDMDL
MODEL 8
REMARK VINA RESULT:      -7.5      2.591      8.407
REMARK  Name = 
REMARK  8 active torsions:
REMARK  status: ('A' for Active; 'I' for Inactive)
REMARK    1  A    between atoms: C_1  and  C_2
REMARK    2  A    between atoms: C_2  and  C_3
REMARK    3  A    between atoms: C_3  and  C_4
REMARK    4  A    between atoms: C_4  and  C_5
REMARK    5  A    between atoms: C_15  and  O_16
REMARK    6  A    between atoms: C_17  and  C_18
REMARK    7  A    between atoms: C_18  and  C_19
REMARK    8  A    between atoms: C_18  and  C_25
REMARK                            x       y       z     vdW  Elec       q    Type
REMARK                         _______ _______ _______ _____ _____    ______ ____
ROOT
ATOM      1  C   UNL     1       1.223  15.141  19.155  0.00  0.00    +0.000 C 
ATOM      2  C   UNL     1       1.918  15.319  20.486  0.00  0.00    +0.000 C 
ATOM      3  C   UNL     1       0.871  15.660  21.528  0.00  0.00    +0.000 C 
ATOM      4  C   UNL     1       0.279  14.451  22.184  0.00  0.00    +0.000 C 
ATOM      5  C   UNL     1      -1.209  14.299  21.892  0.00  0.00    +0.000 C 
ATOM      6  C   UNL     1      -1.493  12.924  21.321  0.00  0.00    +0.000 C 
ATOM      7  C   UNL     1      -1.549  13.023  19.785  0.00  0.00    +0.000 C 
ATOM      8  C   UNL     1      -0.251  12.676  19.232  0.00  0.00    +0.000 A 
ATOM      9  C   UNL     1       0.878  13.429  18.841  0.00  0.00    +0.000 A 
ATOM     10  O   UNL     1       1.903  12.569  18.318  0.00  0.00    +0.000 OA
ATOM     11  C   UNL     1       1.815  11.090  18.379  0.00  0.00    +0.000 A 
ATOM     12  C   UNL     1       1.062  10.438  19.280  0.00  0.00    +0.000 A 
ATOM     13  C   UNL     1      -0.227  11.130  19.148  0.00  0.00    +0.000 A 
ATOM     14  O   UNL     1      -1.266  10.486  19.012  0.00  0.00    +0.000 OA
ENDROOT
BRANCH  11  15
ATOM     15  O   UNL     1       2.377  10.371  17.318  0.00  0.00    +0.000 OA
ATOM     16  H   UNL     1       3.224  10.816  17.103  0.00  0.00    +0.000 HD
ENDBRANCH  11  15
BRANCH   1  17
ATOM     17  C   UNL     1       1.675  16.662  18.364  0.00  0.00    +0.000 C 
BRANCH  17  18
ATOM     18  C   UNL     1       0.510  17.786  17.817  0.00  0.00    +0.000 C 
BRANCH  18  20
ATOM     19  C   UNL     1      -1.610  17.556  19.490  0.00  0.00    +0.000 C 
ATOM     20  C   UNL     1      -1.050  17.726  18.066  0.00  0.00    +0.000 C 
ENDBRANCH  18  20
ENDBRANCH  17  18
ENDBRANCH   1  17
BRANCH  12  21
ATOM     21  C   UNL     1       0.902   8.934  19.824  0.00  0.00    +0.000 C 
BRANCH  21  22
ATOM     22  C   UNL     1       1.915   7.815  19.445  0.00  0.00    +0.000 A 
ATOM     23  C   UNL     1       2.191   6.722  20.273  0.00  0.00    +0.000 A 
ATOM     24  C   UNL     1       3.027   5.677  19.851  0.00  0.00    +0.000 A 
ATOM     25  C   UNL     1       3.571   5.666  18.567  0.00  0.00    +0.000 A 
ATOM     26  C   UNL     1       3.273   6.716  17.700  0.00  0.00    +0.000 A 
ATOM     27  C   UNL     1       2.463   7.772  18.139  0.00  0.00    +0.000 A 
ENDBRANCH  21  22
BRANCH  21  28
ATOM     28  C   UNL     1       0.822   8.881  21.375  0.00  0.00    +0.000 C 
ATOM     29  C   UNL     1       0.484  10.130  22.155  0.00  0.00    +0.000 C 
ATOM     30  C   UNL     1      -0.475   8.979  22.183  0.00  0.00    +0.000 C 
ENDBRANCH  21  28
ENDBRANCH  12  21
TORSDOF 7
ENDMDL
MODEL 9
REMARK VINA RESULT:      -7.4      4.474      7.637
REMARK  Name = 
REMARK  8 active torsions:
REMARK  status: ('A' for Active; 'I' for Inactive)
REMARK    1  A    between atoms: C_1  and  C_2
REMARK    2  A    between atoms: C_2  and  C_3
REMARK    3  A    between atoms: C_3  and  C_4
REMARK    4  A    between atoms: C_4  and  C_5
REMARK    5  A    between atoms: C_15  and  O_16
REMARK    6  A    between atoms: C_17  and  C_18
REMARK    7  A    between atoms: C_18  and  C_19
REMARK    8  A    between atoms: C_18  and  C_25
REMARK                            x       y       z     vdW  Elec       q    Type
REMARK                         _______ _______ _______ _____ _____    ______ ____
ROOT
ATOM      1  C   UNL     1       4.357  14.984  19.116  0.00  0.00    +0.000 C 
ATOM      2  C   UNL     1       4.683  14.828  20.584  0.00  0.00    +0.000 C 
ATOM      3  C   UNL     1       4.077  15.998  21.334  0.00  0.00    +0.000 C 
ATOM      4  C   UNL     1       2.673  15.743  21.787  0.00  0.00    +0.000 C 
ATOM      5  C   UNL     1       1.667  16.675  21.123  0.00  0.00    +0.000 C 
ATOM      6  C   UNL     1       0.565  15.871  20.464  0.00  0.00    +0.000 C 
ATOM      7  C   UNL     1       0.890  15.710  18.966  0.00  0.00    +0.000 C 
ATOM      8  C   UNL     1       1.559  14.438  18.754  0.00  0.00    +0.000 A 
ATOM      9  C   UNL     1       2.914  14.046  18.682  0.00  0.00    +0.000 A 
ATOM     10  O   UNL     1       3.020  12.638  18.416  0.00  0.00    +0.000 OA
ATOM     11  C   UNL     1       1.846  11.734  18.415  0.00  0.00    +0.000 A 
ATOM     12  C   UNL     1       0.710  12.008  19.078  0.00  0.00    +0.000 A 
ATOM     13  C   UNL     1       0.433  13.382  18.640  0.00  0.00    +0.000 A 
ATOM     14  O   UNL     1      -0.685  13.689  18.228  0.00  0.00    +0.000 OA
ENDROOT
BRANCH  11  15
ATOM     15  O   UNL     1       1.863  10.663  17.514  0.00  0.00    +0.000 OA
ATOM     16  H   UNL     1       1.346  10.953  16.732  0.00  0.00    +0.000 HD
ENDBRANCH  11  15
BRANCH   1  17
ATOM     17  C   UNL     1       5.931  15.524  18.505  0.00  0.00    +0.000 C 
BRANCH  17  18
ATOM     18  C   UNL     1       7.016  14.463  17.720  0.00  0.00    +0.000 C 
BRANCH  18  20
ATOM     19  C   UNL     1       8.992  12.933  18.770  0.00  0.00    +0.000 C 
ATOM     20  C   UNL     1       8.539  14.233  18.079  0.00  0.00    +0.000 C 
ENDBRANCH  18  20
ENDBRANCH  17  18
ENDBRANCH   1  17
BRANCH  12  21
ATOM     21  C   UNL     1      -0.619  11.222  19.525  0.00  0.00    +0.000 C 
BRANCH  21  22
ATOM     22  C   UNL     1      -1.762  10.907  18.517  0.00  0.00    +0.000 A 
ATOM     23  C   UNL     1      -3.009  11.538  18.554  0.00  0.00    +0.000 A 
ATOM     24  C   UNL     1      -3.976  11.309  17.563  0.00  0.00    +0.000 A 
ATOM     25  C   UNL     1      -3.706  10.481  16.474  0.00  0.00    +0.000 A 
ATOM     26  C   UNL     1      -2.452   9.878  16.381  0.00  0.00    +0.000 A 
ATOM     27  C   UNL     1      -1.503  10.086  17.391  0.00  0.00    +0.000 A 
ENDBRANCH  21  22
BRANCH  21  28
ATOM     28  C   UNL     1      -0.292   9.854  20.187  0.00  0.00    +0.000 C 
ATOM     29  C   UNL     1       0.951   9.705  21.033  0.00  0.00    +0.000 C 
ATOM     30  C   UNL     1      -0.390   9.569  21.689  0.00  0.00    +0.000 C 
ENDBRANCH  21  28
ENDBRANCH  12  21
TORSDOF 7
ENDMDL
