MODEL 1
REMARK VINA RESULT:      -8.1      0.000      0.000
REMARK  Name = 
REMARK  10 active torsions:
REMARK  status: ('A' for Active; 'I' for Inactive)
REMARK    1  A    between atoms: C_1  and  C_2
REMARK    2  A    between atoms: C_4  and  C_5
REMARK    3  A    between atoms: C_6  and  C_7
REMARK    4  A    between atoms: C_10  and  C_11
REMARK    5  A    between atoms: N_13  and  C_14
REMARK    6  A    between atoms: N_13  and  C_15
REMARK    7  A    between atoms: C_15  and  C_16
REMARK    8  A    between atoms: C_16  and  N_17
REMARK    9  A    between atoms: C_21  and  C_22
REMARK   10  A    between atoms: C_26  and  C_27
REMARK                            x       y       z     vdW  Elec       q    Type
REMARK                         _______ _______ _______ _____ _____    ______ ____
ROOT
ATOM      1  C   UNL     1       1.086   9.559  19.393  0.00  0.00    +0.000 A 
ATOM      2  C   UNL     1       1.743   9.209  18.206  0.00  0.00    +0.000 A 
ATOM      3  C   UNL     1       2.425   7.995  18.067  0.00  0.00    +0.000 A 
ATOM      4  C   UNL     1       2.452   7.071  19.110  0.00  0.00    +0.000 A 
ATOM      5  C   UNL     1       1.830   7.413  20.319  0.00  0.00    +0.000 A 
ATOM      6  C   UNL     1       1.154   8.634  20.453  0.00  0.00    +0.000 A 
ENDROOT
BRANCH   1  12
ATOM      7  C   UNL     1      -1.215  14.887  20.059  0.00  0.00    +0.000 C 
ATOM      8  C   UNL     1      -0.621  13.514  19.903  0.00  0.00    +0.000 A 
ATOM      9  C   UNL     1      -1.307  12.547  19.157  0.00  0.00    +0.000 A 
ATOM     10  C   UNL     1      -0.808  11.240  18.985  0.00  0.00    +0.000 A 
ATOM     11  C   UNL     1      -1.650  10.288  18.172  0.00  0.00    +0.000 C 
ATOM     12  C   UNL     1       0.437  10.886  19.557  0.00  0.00    +0.000 A 
ATOM     13  C   UNL     1       1.113  11.878  20.304  0.00  0.00    +0.000 A 
ATOM     14  C   UNL     1       0.606  13.175  20.488  0.00  0.00    +0.000 A 
ATOM     15  C   UNL     1       1.397  14.168  21.295  0.00  0.00    +0.000 C 
ENDBRANCH   1  12
BRANCH   4  16
ATOM     16  C   UNL     1       3.214   5.783  19.036  0.00  0.00    +0.000 C 
ATOM     17  O   UNL     1       4.253   5.719  19.693  0.00  0.00    +0.000 OA
ATOM     18  N   UNL     1       2.779   4.713  18.240  0.00  0.00    +0.000 N 
ATOM     19  C   UNL     1       1.436   4.573  17.691  0.00  0.00    +0.000 C 
BRANCH  18  20
ATOM     20  C   UNL     1       3.659   3.525  18.191  0.00  0.00    +0.000 C 
BRANCH  20  21
ATOM     21  C   UNL     1       4.386   3.334  16.858  0.00  0.00    +0.000 C 
BRANCH  21  22
ATOM     22  N   UNL     1       5.664   4.012  16.792  0.00  0.00    +0.000 N 
ATOM     23  C   UNL     1       6.431   4.322  17.875  0.00  0.00    +0.000 A 
ATOM     24  C   UNL     1       7.605   4.824  17.358  0.00  0.00    +0.000 A 
ATOM     25  N   UNL     1       7.557   4.829  15.991  0.00  0.00    +0.000 NA
ATOM     26  C   UNL     1       6.380   4.335  15.661  0.00  0.00    +0.000 A 
ATOM     27  C   UNL     1       5.886   4.132  14.278  0.00  0.00    +0.000 C 
ENDBRANCH  21  22
ENDBRANCH  20  21
ENDBRANCH  18  20
ENDBRANCH   4  16
TORSDOF 5
ENDMDL
MODEL 2
REMARK VINA RESULT:      -7.9      4.088      9.951
REMARK  Name = 
REMARK  10 active torsions:
REMARK  status: ('A' for Active; 'I' for Inactive)
REMARK    1  A    between atoms: C_1  and  C_2
REMARK    2  A    between atoms: C_4  and  C_5
REMARK    3  A    between atoms: C_6  and  C_7
REMARK    4  A    between atoms: C_10  and  C_11
REMARK    5  A    between atoms: N_13  and  C_14
REMARK    6  A    between atoms: N_13  and  C_15
REMARK    7  A    between atoms: C_15  and  C_16
REMARK    8  A    between atoms: C_16  and  N_17
REMARK    9  A    between atoms: C_21  and  C_22
REMARK   10  A    between atoms: C_26  and  C_27
REMARK                            x       y       z     vdW  Elec       q    Type
REMARK                         _______ _______ _______ _____ _____    ______ ____
ROOT
ATOM      1  C   UNL     1       2.187   7.267  18.758  0.00  0.00    +0.000 A 
ATOM      2  C   UNL     1       2.081   8.182  17.703  0.00  0.00    +0.000 A 
ATOM      3  C   UNL     1       1.589   9.478  17.893  0.00  0.00    +0.000 A 
ATOM      4  C   UNL     1       1.205   9.915  19.160  0.00  0.00    +0.000 A 
ATOM      5  C   UNL     1       1.270   9.007  20.225  0.00  0.00    +0.000 A 
ATOM      6  C   UNL     1       1.760   7.707  20.026  0.00  0.00    +0.000 A 
ENDROOT
BRANCH   1  12
ATOM      7  C   UNL     1       3.677   1.699  17.812  0.00  0.00    +0.000 C 
ATOM      8  C   UNL     1       3.290   3.129  18.070  0.00  0.00    +0.000 A 
ATOM      9  C   UNL     1       4.199   4.153  17.776  0.00  0.00    +0.000 A 
ATOM     10  C   UNL     1       3.899   5.511  18.008  0.00  0.00    +0.000 A 
ATOM     11  C   UNL     1       4.970   6.516  17.664  0.00  0.00    +0.000 C 
ATOM     12  C   UNL     1       2.633   5.868  18.529  0.00  0.00    +0.000 A 
ATOM     13  C   UNL     1       1.730   4.819  18.815  0.00  0.00    +0.000 A 
ATOM     14  C   UNL     1       2.038   3.465  18.600  0.00  0.00    +0.000 A 
ATOM     15  C   UNL     1       1.013   2.415  18.930  0.00  0.00    +0.000 C 
ENDBRANCH   1  12
BRANCH   4  16
ATOM     16  C   UNL     1       0.617  11.270  19.410  0.00  0.00    +0.000 C 
ATOM     17  O   UNL     1       1.400  12.157  19.750  0.00  0.00    +0.000 OA
ATOM     18  N   UNL     1      -0.760  11.511  19.285  0.00  0.00    +0.000 N 
ATOM     19  C   UNL     1      -1.702  10.635  18.599  0.00  0.00    +0.000 C 
BRANCH  18  20
ATOM     20  C   UNL     1      -1.227  12.869  19.635  0.00  0.00    +0.000 C 
BRANCH  20  21
ATOM     21  C   UNL     1      -1.706  13.019  21.081  0.00  0.00    +0.000 C 
BRANCH  21  22
ATOM     22  N   UNL     1      -3.142  12.900  21.231  0.00  0.00    +0.000 N 
ATOM     23  C   UNL     1      -4.033  12.932  20.200  0.00  0.00    +0.000 A 
ATOM     24  C   UNL     1      -5.255  12.646  20.767  0.00  0.00    +0.000 A 
ATOM     25  N   UNL     1      -5.119  12.450  22.113  0.00  0.00    +0.000 NA
ATOM     26  C   UNL     1      -3.838  12.604  22.382  0.00  0.00    +0.000 A 
ATOM     27  C   UNL     1      -3.214  12.467  23.720  0.00  0.00    +0.000 C 
ENDBRANCH  21  22
ENDBRANCH  20  21
ENDBRANCH  18  20
ENDBRANCH   4  16
TORSDOF 5
ENDMDL
MODEL 3
REMARK VINA RESULT:      -7.9      3.792      9.514
REMARK  Name = 
REMARK  10 active torsions:
REMARK  status: ('A' for Active; 'I' for Inactive)
REMARK    1  A    between atoms: C_1  and  C_2
REMARK    2  A    between atoms: C_4  and  C_5
REMARK    3  A    between atoms: C_6  and  C_7
REMARK    4  A    between atoms: C_10  and  C_11
REMARK    5  A    between atoms: N_13  and  C_14
REMARK    6  A    between atoms: N_13  and  C_15
REMARK    7  A    between atoms: C_15  and  C_16
REMARK    8  A    between atoms: C_16  and  N_17
REMARK    9  A    between atoms: C_21  and  C_22
REMARK   10  A    between atoms: C_26  and  C_27
REMARK                            x       y       z     vdW  Elec       q    Type
REMARK                         _______ _______ _______ _____ _____    ______ ____
ROOT
ATOM      1  C   UNL     1       2.266   7.084  18.777  0.00  0.00    +0.000 A 
ATOM      2  C   UNL     1       2.201   7.939  17.669  0.00  0.00    +0.000 A 
ATOM      3  C   UNL     1       1.710   9.245  17.769  0.00  0.00    +0.000 A 
ATOM      4  C   UNL     1       1.287   9.755  18.995  0.00  0.00    +0.000 A 
ATOM      5  C   UNL     1       1.310   8.907  20.112  0.00  0.00    +0.000 A 
ATOM      6  C   UNL     1       1.798   7.596  20.003  0.00  0.00    +0.000 A 
ENDROOT
BRANCH   1  12
ATOM      7  C   UNL     1       3.758   1.469  18.174  0.00  0.00    +0.000 C 
ATOM      8  C   UNL     1       3.368   2.911  18.344  0.00  0.00    +0.000 A 
ATOM      9  C   UNL     1       4.321   3.913  18.121  0.00  0.00    +0.000 A 
ATOM     10  C   UNL     1       4.021   5.282  18.276  0.00  0.00    +0.000 A 
ATOM     11  C   UNL     1       5.140   6.261  18.022  0.00  0.00    +0.000 C 
ATOM     12  C   UNL     1       2.711   5.672  18.642  0.00  0.00    +0.000 A 
ATOM     13  C   UNL     1       1.764   4.645  18.859  0.00  0.00    +0.000 A 
ATOM     14  C   UNL     1       2.071   3.281  18.721  0.00  0.00    +0.000 A 
ATOM     15  C   UNL     1       0.998   2.256  18.967  0.00  0.00    +0.000 C 
ENDBRANCH   1  12
BRANCH   4  16
ATOM     16  C   UNL     1       0.699  11.124  19.149  0.00  0.00    +0.000 C 
ATOM     17  O   UNL     1       1.432  11.988  19.628  0.00  0.00    +0.000 OA
ATOM     18  N   UNL     1      -0.628  11.401  18.787  0.00  0.00    +0.000 N 
ATOM     19  C   UNL     1      -1.457  10.553  17.939  0.00  0.00    +0.000 C 
BRANCH  18  20
ATOM     20  C   UNL     1      -1.115  12.771  19.059  0.00  0.00    +0.000 C 
BRANCH  20  21
ATOM     21  C   UNL     1      -2.046  12.880  20.269  0.00  0.00    +0.000 C 
BRANCH  21  22
ATOM     22  N   UNL     1      -1.398  13.401  21.454  0.00  0.00    +0.000 N 
ATOM     23  C   UNL     1      -1.255  14.726  21.738  0.00  0.00    +0.000 A 
ATOM     24  C   UNL     1      -0.719  14.771  23.006  0.00  0.00    +0.000 A 
ATOM     25  N   UNL     1      -0.531  13.505  23.486  0.00  0.00    +0.000 NA
ATOM     26  C   UNL     1      -0.946  12.685  22.541  0.00  0.00    +0.000 A 
ATOM     27  C   UNL     1      -0.951  11.205  22.622  0.00  0.00    +0.000 C 
ENDBRANCH  21  22
ENDBRANCH  20  21
ENDBRANCH  18  20
ENDBRANCH   4  16
TORSDOF 5
ENDMDL
MODEL 4
REMARK VINA RESULT:      -7.8      4.046      9.865
REMARK  Name = 
REMARK  10 active torsions:
REMARK  status: ('A' for Active; 'I' for Inactive)
REMARK    1  A    between atoms: C_1  and  C_2
REMARK    2  A    between atoms: C_4  and  C_5
REMARK    3  A    between atoms: C_6  and  C_7
REMARK    4  A    between atoms: C_10  and  C_11
REMARK    5  A    between atoms: N_13  and  C_14
REMARK    6  A    between atoms: N_13  and  C_15
REMARK    7  A    between atoms: C_15  and  C_16
REMARK    8  A    between atoms: C_16  and  N_17
REMARK    9  A    between atoms: C_21  and  C_22
REMARK   10  A    between atoms: C_26  and  C_27
REMARK                            x       y       z     vdW  Elec       q    Type
REMARK                         _______ _______ _______ _____ _____    ______ ____
ROOT
ATOM      1  C   UNL     1       2.219   7.159  18.798  0.00  0.00    +0.000 A 
ATOM      2  C   UNL     1       2.094   8.082  17.751  0.00  0.00    +0.000 A 
ATOM      3  C   UNL     1       1.608   9.378  17.960  0.00  0.00    +0.000 A 
ATOM      4  C   UNL     1       1.253   9.807  19.237  0.00  0.00    +0.000 A 
ATOM      5  C   UNL     1       1.337   8.892  20.295  0.00  0.00    +0.000 A 
ATOM      6  C   UNL     1       1.819   7.592  20.077  0.00  0.00    +0.000 A 
ENDROOT
BRANCH   1  12
ATOM      7  C   UNL     1       3.675   1.595  17.775  0.00  0.00    +0.000 C 
ATOM      8  C   UNL     1       3.296   3.024  18.053  0.00  0.00    +0.000 A 
ATOM      9  C   UNL     1       4.213   4.046  17.777  0.00  0.00    +0.000 A 
ATOM     10  C   UNL     1       3.922   5.403  18.028  0.00  0.00    +0.000 A 
ATOM     11  C   UNL     1       5.001   6.405  17.702  0.00  0.00    +0.000 C 
ATOM     12  C   UNL     1       2.656   5.761  18.550  0.00  0.00    +0.000 A 
ATOM     13  C   UNL     1       1.745   4.714  18.817  0.00  0.00    +0.000 A 
ATOM     14  C   UNL     1       2.044   3.361  18.584  0.00  0.00    +0.000 A 
ATOM     15  C   UNL     1       1.011   2.313  18.894  0.00  0.00    +0.000 C 
ENDBRANCH   1  12
BRANCH   4  16
ATOM     16  C   UNL     1       0.674  11.162  19.509  0.00  0.00    +0.000 C 
ATOM     17  O   UNL     1       1.458  12.031  19.888  0.00  0.00    +0.000 OA
ATOM     18  N   UNL     1      -0.697  11.421  19.361  0.00  0.00    +0.000 N 
ATOM     19  C   UNL     1      -1.634  10.573  18.633  0.00  0.00    +0.000 C 
BRANCH  18  20
ATOM     20  C   UNL     1      -1.158  12.775  19.735  0.00  0.00    +0.000 C 
BRANCH  20  21
ATOM     21  C   UNL     1      -2.668  12.888  19.961  0.00  0.00    +0.000 C 
BRANCH  21  22
ATOM     22  N   UNL     1      -3.073  12.608  21.322  0.00  0.00    +0.000 N 
ATOM     23  C   UNL     1      -2.212  12.396  22.357  0.00  0.00    +0.000 A 
ATOM     24  C   UNL     1      -3.005  12.309  23.479  0.00  0.00    +0.000 A 
ATOM     25  N   UNL     1      -4.322  12.457  23.141  0.00  0.00    +0.000 NA
ATOM     26  C   UNL     1      -4.350  12.639  21.836  0.00  0.00    +0.000 A 
ATOM     27  C   UNL     1      -5.569  12.862  21.021  0.00  0.00    +0.000 C 
ENDBRANCH  21  22
ENDBRANCH  20  21
ENDBRANCH  18  20
ENDBRANCH   4  16
TORSDOF 5
ENDMDL
MODEL 5
REMARK VINA RESULT:      -7.7      4.131      9.929
REMARK  Name = 
REMARK  10 active torsions:
REMARK  status: ('A' for Active; 'I' for Inactive)
REMARK    1  A    between atoms: C_1  and  C_2
REMARK    2  A    between atoms: C_4  and  C_5
REMARK    3  A    between atoms: C_6  and  C_7
REMARK    4  A    between atoms: C_10  and  C_11
REMARK    5  A    between atoms: N_13  and  C_14
REMARK    6  A    between atoms: N_13  and  C_15
REMARK    7  A    between atoms: C_15  and  C_16
REMARK    8  A    between atoms: C_16  and  N_17
REMARK    9  A    between atoms: C_21  and  C_22
REMARK   10  A    between atoms: C_26  and  C_27
REMARK                            x       y       z     vdW  Elec       q    Type
REMARK                         _______ _______ _______ _____ _____    ______ ____
ROOT
ATOM      1  C   UNL     1       2.539   7.377  18.562  0.00  0.00    +0.000 A 
ATOM      2  C   UNL     1       2.161   7.218  19.901  0.00  0.00    +0.000 A 
ATOM      3  C   UNL     1       1.441   8.200  20.589  0.00  0.00    +0.000 A 
ATOM      4  C   UNL     1       1.049   9.375  19.950  0.00  0.00    +0.000 A 
ATOM      5  C   UNL     1       1.444   9.571  18.619  0.00  0.00    +0.000 A 
ATOM      6  C   UNL     1       2.171   8.584  17.937  0.00  0.00    +0.000 A 
ENDROOT
BRANCH   1  12
ATOM      7  C   UNL     1       6.046   3.510  15.941  0.00  0.00    +0.000 C 
ATOM      8  C   UNL     1       5.146   4.516  16.604  0.00  0.00    +0.000 A 
ATOM      9  C   UNL     1       3.837   4.150  16.946  0.00  0.00    +0.000 A 
ATOM     10  C   UNL     1       2.943   5.051  17.558  0.00  0.00    +0.000 A 
ATOM     11  C   UNL     1       1.556   4.539  17.860  0.00  0.00    +0.000 C 
ATOM     12  C   UNL     1       3.374   6.363  17.867  0.00  0.00    +0.000 A 
ATOM     13  C   UNL     1       4.699   6.710  17.516  0.00  0.00    +0.000 A 
ATOM     14  C   UNL     1       5.584   5.815  16.890  0.00  0.00    +0.000 A 
ATOM     15  C   UNL     1       6.978   6.269  16.558  0.00  0.00    +0.000 C 
ENDBRANCH   1  12
BRANCH   4  16
ATOM     16  C   UNL     1       0.329  10.484  20.653  0.00  0.00    +0.000 C 
ATOM     17  O   UNL     1       0.877  10.951  21.652  0.00  0.00    +0.000 OA
ATOM     18  N   UNL     1      -0.918  10.951  20.211  0.00  0.00    +0.000 N 
ATOM     19  C   UNL     1      -1.488  10.692  18.895  0.00  0.00    +0.000 C 
BRANCH  18  20
ATOM     20  C   UNL     1      -1.563  11.995  21.036  0.00  0.00    +0.000 C 
BRANCH  20  21
ATOM     21  C   UNL     1      -2.515  12.911  20.263  0.00  0.00    +0.000 C 
BRANCH  21  22
ATOM     22  N   UNL     1      -3.912  12.688  20.571  0.00  0.00    +0.000 N 
ATOM     23  C   UNL     1      -4.838  12.239  19.677  0.00  0.00    +0.000 A 
ATOM     24  C   UNL     1      -5.985  12.038  20.412  0.00  0.00    +0.000 A 
ATOM     25  N   UNL     1      -5.772  12.363  21.723  0.00  0.00    +0.000 NA
ATOM     26  C   UNL     1      -4.515  12.753  21.807  0.00  0.00    +0.000 A 
ATOM     27  C   UNL     1      -3.827  13.185  23.046  0.00  0.00    +0.000 C 
ENDBRANCH  21  22
ENDBRANCH  20  21
ENDBRANCH  18  20
ENDBRANCH   4  16
TORSDOF 5
ENDMDL
MODEL 6
REMARK VINA RESULT:      -7.7      1.060      1.403
REMARK  Name = 
REMARK  10 active torsions:
REMARK  status: ('A' for Active; 'I' for Inactive)
REMARK    1  A    between atoms: C_1  and  C_2
REMARK    2  A    between atoms: C_4  and  C_5
REMARK    3  A    between atoms: C_6  and  C_7
REMARK    4  A    between atoms: C_10  and  C_11
REMARK    5  A    between atoms: N_13  and  C_14
REMARK    6  A    between atoms: N_13  and  C_15
REMARK    7  A    between atoms: C_15  and  C_16
REMARK    8  A    between atoms: C_16  and  N_17
REMARK    9  A    between atoms: C_21  and  C_22
REMARK   10  A    between atoms: C_26  and  C_27
REMARK                            x       y       z     vdW  Elec       q    Type
REMARK                         _______ _______ _______ _____ _____    ______ ____
ROOT
ATOM      1  C   UNL     1       0.774   9.154  19.866  0.00  0.00    +0.000 A 
ATOM      2  C   UNL     1       0.861   8.137  20.825  0.00  0.00    +0.000 A 
ATOM      3  C   UNL     1       1.684   7.020  20.647  0.00  0.00    +0.000 A 
ATOM      4  C   UNL     1       2.473   6.891  19.505  0.00  0.00    +0.000 A 
ATOM      5  C   UNL     1       2.378   7.879  18.516  0.00  0.00    +0.000 A 
ATOM      6  C   UNL     1       1.546   8.995  18.699  0.00  0.00    +0.000 A 
ENDROOT
BRANCH   1  12
ATOM      7  C   UNL     1      -2.735  13.754  20.676  0.00  0.00    +0.000 C 
ATOM      8  C   UNL     1      -1.837  12.563  20.481  0.00  0.00    +0.000 A 
ATOM      9  C   UNL     1      -1.882  11.856  19.272  0.00  0.00    +0.000 A 
ATOM     10  C   UNL     1      -1.075  10.726  19.034  0.00  0.00    +0.000 A 
ATOM     11  C   UNL     1      -1.230  10.044  17.697  0.00  0.00    +0.000 C 
ATOM     12  C   UNL     1      -0.165  10.295  20.029  0.00  0.00    +0.000 A 
ATOM     13  C   UNL     1      -0.134  11.024  21.239  0.00  0.00    +0.000 A 
ATOM     14  C   UNL     1      -0.952  12.140  21.481  0.00  0.00    +0.000 A 
ATOM     15  C   UNL     1      -0.848  12.859  22.798  0.00  0.00    +0.000 C 
ENDBRANCH   1  12
BRANCH   4  16
ATOM     16  C   UNL     1       3.326   5.690  19.236  0.00  0.00    +0.000 C 
ATOM     17  O   UNL     1       4.408   5.639  19.821  0.00  0.00    +0.000 OA
ATOM     18  N   UNL     1       2.923   4.684  18.345  0.00  0.00    +0.000 N 
ATOM     19  C   UNL     1       1.561   4.495  17.859  0.00  0.00    +0.000 C 
BRANCH  18  20
ATOM     20  C   UNL     1       3.887   3.589  18.104  0.00  0.00    +0.000 C 
BRANCH  20  21
ATOM     21  C   UNL     1       4.404   3.507  16.666  0.00  0.00    +0.000 C 
BRANCH  21  22
ATOM     22  N   UNL     1       5.604   4.284  16.437  0.00  0.00    +0.000 N 
ATOM     23  C   UNL     1       6.399   4.789  17.422  0.00  0.00    +0.000 A 
ATOM     24  C   UNL     1       7.486   5.328  16.773  0.00  0.00    +0.000 A 
ATOM     25  N   UNL     1       7.360   5.165  15.421  0.00  0.00    +0.000 NA
ATOM     26  C   UNL     1       6.220   4.532  15.230  0.00  0.00    +0.000 A 
ATOM     27  C   UNL     1       5.670   4.121  13.916  0.00  0.00    +0.000 C 
ENDBRANCH  21  22
ENDBRANCH  20  21
ENDBRANCH  18  20
ENDBRANCH   4  16
TORSDOF 5
ENDMDL
MODEL 7
REMARK VINA RESULT:      -7.7      4.576      9.701
REMARK  Name = 
REMARK  10 active torsions:
REMARK  status: ('A' for Active; 'I' for Inactive)
REMARK    1  A    between atoms: C_1  and  C_2
REMARK    2  A    between atoms: C_4  and  C_5
REMARK    3  A    between atoms: C_6  and  C_7
REMARK    4  A    between atoms: C_10  and  C_11
REMARK    5  A    between atoms: N_13  and  C_14
REMARK    6  A    between atoms: N_13  and  C_15
REMARK    7  A    between atoms: C_15  and  C_16
REMARK    8  A    between atoms: C_16  and  N_17
REMARK    9  A    between atoms: C_21  and  C_22
REMARK   10  A    between atoms: C_26  and  C_27
REMARK                            x       y       z     vdW  Elec       q    Type
REMARK                         _______ _______ _______ _____ _____    ______ ____
ROOT
ATOM      1  C   UNL     1       2.117   7.656  19.265  0.00  0.00    +0.000 A 
ATOM      2  C   UNL     1       2.023   8.304  18.027  0.00  0.00    +0.000 A 
ATOM      3  C   UNL     1       1.402   9.550  17.888  0.00  0.00    +0.000 A 
ATOM      4  C   UNL     1       0.871  10.209  18.996  0.00  0.00    +0.000 A 
ATOM      5  C   UNL     1       0.923   9.565  20.240  0.00  0.00    +0.000 A 
ATOM      6  C   UNL     1       1.542   8.313  20.371  0.00  0.00    +0.000 A 
ENDROOT
BRANCH   1  12
ATOM      7  C   UNL     1       4.180   2.220  19.822  0.00  0.00    +0.000 C 
ATOM      8  C   UNL     1       3.651   3.622  19.694  0.00  0.00    +0.000 A 
ATOM      9  C   UNL     1       4.219   4.489  18.752  0.00  0.00    +0.000 A 
ATOM     10  C   UNL     1       3.775   5.818  18.593  0.00  0.00    +0.000 A 
ATOM     11  C   UNL     1       4.479   6.655  17.555  0.00  0.00    +0.000 C 
ATOM     12  C   UNL     1       2.705   6.297  19.386  0.00  0.00    +0.000 A 
ATOM     13  C   UNL     1       2.145   5.403  20.328  0.00  0.00    +0.000 A 
ATOM     14  C   UNL     1       2.600   4.085  20.497  0.00  0.00    +0.000 A 
ATOM     15  C   UNL     1       1.942   3.203  21.521  0.00  0.00    +0.000 C 
ENDBRANCH   1  12
BRANCH   4  16
ATOM     16  C   UNL     1       0.145  11.515  18.895  0.00  0.00    +0.000 C 
ATOM     17  O   UNL     1      -1.085  11.465  18.921  0.00  0.00    +0.000 OA
ATOM     18  N   UNL     1       0.830  12.731  18.755  0.00  0.00    +0.000 N 
ATOM     19  C   UNL     1       2.249  12.926  19.027  0.00  0.00    +0.000 C 
BRANCH  18  20
ATOM     20  C   UNL     1      -0.001  13.943  18.588  0.00  0.00    +0.000 C 
BRANCH  20  21
ATOM     21  C   UNL     1       0.513  15.170  19.344  0.00  0.00    +0.000 C 
BRANCH  21  22
ATOM     22  N   UNL     1       0.627  16.354  18.519  0.00  0.00    +0.000 N 
ATOM     23  C   UNL     1      -0.428  17.113  18.106  0.00  0.00    +0.000 A 
ATOM     24  C   UNL     1       0.132  18.201  17.474  0.00  0.00    +0.000 A 
ATOM     25  N   UNL     1       1.496  18.110  17.493  0.00  0.00    +0.000 NA
ATOM     26  C   UNL     1       1.783  16.991  18.128  0.00  0.00    +0.000 A 
ATOM     27  C   UNL     1       3.147  16.482  18.407  0.00  0.00    +0.000 C 
ENDBRANCH  21  22
ENDBRANCH  20  21
ENDBRANCH  18  20
ENDBRANCH   4  16
TORSDOF 5
ENDMDL
MODEL 8
REMARK VINA RESULT:      -7.7      3.905      9.749
REMARK  Name = 
REMARK  10 active torsions:
REMARK  status: ('A' for Active; 'I' for Inactive)
REMARK    1  A    between atoms: C_1  and  C_2
REMARK    2  A    between atoms: C_4  and  C_5
REMARK    3  A    between atoms: C_6  and  C_7
REMARK    4  A    between atoms: C_10  and  C_11
REMARK    5  A    between atoms: N_13  and  C_14
REMARK    6  A    between atoms: N_13  and  C_15
REMARK    7  A    between atoms: C_15  and  C_16
REMARK    8  A    between atoms: C_16  and  N_17
REMARK    9  A    between atoms: C_21  and  C_22
REMARK   10  A    between atoms: C_26  and  C_27
REMARK                            x       y       z     vdW  Elec       q    Type
REMARK                         _______ _______ _______ _____ _____    ______ ____
ROOT
ATOM      1  C   UNL     1       2.046   7.278  18.738  0.00  0.00    +0.000 A 
ATOM      2  C   UNL     1       1.739   7.753  20.020  0.00  0.00    +0.000 A 
ATOM      3  C   UNL     1       1.353   9.079  20.246  0.00  0.00    +0.000 A 
ATOM      4  C   UNL     1       1.236   9.977  19.186  0.00  0.00    +0.000 A 
ATOM      5  C   UNL     1       1.570   9.534  17.899  0.00  0.00    +0.000 A 
ATOM      6  C   UNL     1       1.962   8.204  17.681  0.00  0.00    +0.000 A 
ENDROOT
BRANCH   1  12
ATOM      7  C   UNL     1       3.704   1.748  17.845  0.00  0.00    +0.000 C 
ATOM      8  C   UNL     1       3.273   3.169  18.090  0.00  0.00    +0.000 A 
ATOM      9  C   UNL     1       4.149   4.217  17.781  0.00  0.00    +0.000 A 
ATOM     10  C   UNL     1       3.809   5.568  17.999  0.00  0.00    +0.000 A 
ATOM     11  C   UNL     1       4.847   6.601  17.640  0.00  0.00    +0.000 C 
ATOM     12  C   UNL     1       2.534   5.891  18.522  0.00  0.00    +0.000 A 
ATOM     13  C   UNL     1       1.665   4.818  18.823  0.00  0.00    +0.000 A 
ATOM     14  C   UNL     1       2.013   3.472  18.621  0.00  0.00    +0.000 A 
ATOM     15  C   UNL     1       1.023   2.394  18.966  0.00  0.00    +0.000 C 
ENDBRANCH   1  12
BRANCH   4  16
ATOM     16  C   UNL     1       0.885  11.420  19.378  0.00  0.00    +0.000 C 
ATOM     17  O   UNL     1       1.825  12.209  19.472  0.00  0.00    +0.000 OA
ATOM     18  N   UNL     1      -0.448  11.849  19.469  0.00  0.00    +0.000 N 
ATOM     19  C   UNL     1      -1.607  11.063  19.063  0.00  0.00    +0.000 C 
BRANCH  18  20
ATOM     20  C   UNL     1      -0.663  13.287  19.736  0.00  0.00    +0.000 C 
BRANCH  20  21
ATOM     21  C   UNL     1      -0.674  13.658  21.221  0.00  0.00    +0.000 C 
BRANCH  21  22
ATOM     22  N   UNL     1      -1.910  13.317  21.895  0.00  0.00    +0.000 N 
ATOM     23  C   UNL     1      -3.073  14.018  21.778  0.00  0.00    +0.000 A 
ATOM     24  C   UNL     1      -4.013  13.278  22.461  0.00  0.00    +0.000 A 
ATOM     25  N   UNL     1      -3.440  12.155  22.990  0.00  0.00    +0.000 NA
ATOM     26  C   UNL     1      -2.170  12.189  22.640  0.00  0.00    +0.000 A 
ATOM     27  C   UNL     1      -1.154  11.162  22.976  0.00  0.00    +0.000 C 
ENDBRANCH  21  22
ENDBRANCH  20  21
ENDBRANCH  18  20
ENDBRANCH   4  16
TORSDOF 5
ENDMDL
MODEL 9
REMARK VINA RESULT:      -7.7      3.638      8.981
REMARK  Name = 
REMARK  10 active torsions:
REMARK  status: ('A' for Active; 'I' for Inactive)
REMARK    1  A    between atoms: C_1  and  C_2
REMARK    2  A    between atoms: C_4  and  C_5
REMARK    3  A    between atoms: C_6  and  C_7
REMARK    4  A    between atoms: C_10  and  C_11
REMARK    5  A    between atoms: N_13  and  C_14
REMARK    6  A    between atoms: N_13  and  C_15
REMARK    7  A    between atoms: C_15  and  C_16
REMARK    8  A    between atoms: C_16  and  N_17
REMARK    9  A    between atoms: C_21  and  C_22
REMARK   10  A    between atoms: C_26  and  C_27
REMARK                            x       y       z     vdW  Elec       q    Type
REMARK                         _______ _______ _______ _____ _____    ______ ____
ROOT
ATOM      1  C   UNL     1       2.537   7.318  18.559  0.00  0.00    +0.000 A 
ATOM      2  C   UNL     1       2.187   7.169  19.907  0.00  0.00    +0.000 A 
ATOM      3  C   UNL     1       1.477   8.155  20.601  0.00  0.00    +0.000 A 
ATOM      4  C   UNL     1       1.068   9.323  19.959  0.00  0.00    +0.000 A 
ATOM      5  C   UNL     1       1.435   9.509  18.619  0.00  0.00    +0.000 A 
ATOM      6  C   UNL     1       2.152   8.518  17.931  0.00  0.00    +0.000 A 
ENDROOT
BRANCH   1  12
ATOM      7  C   UNL     1       6.006   3.439  15.904  0.00  0.00    +0.000 C 
ATOM      8  C   UNL     1       5.116   4.448  16.576  0.00  0.00    +0.000 A 
ATOM      9  C   UNL     1       3.813   4.083  16.940  0.00  0.00    +0.000 A 
ATOM     10  C   UNL     1       2.927   4.987  17.561  0.00  0.00    +0.000 A 
ATOM     11  C   UNL     1       1.546   4.476  17.887  0.00  0.00    +0.000 C 
ATOM     12  C   UNL     1       3.362   6.301  17.856  0.00  0.00    +0.000 A 
ATOM     13  C   UNL     1       4.682   6.647  17.483  0.00  0.00    +0.000 A 
ATOM     14  C   UNL     1       5.557   5.749  16.849  0.00  0.00    +0.000 A 
ATOM     15  C   UNL     1       6.946   6.202  16.492  0.00  0.00    +0.000 C 
ENDBRANCH   1  12
BRANCH   4  16
ATOM     16  C   UNL     1       0.358  10.435  20.667  0.00  0.00    +0.000 C 
ATOM     17  O   UNL     1       0.913  10.898  21.663  0.00  0.00    +0.000 OA
ATOM     18  N   UNL     1      -0.889  10.910  20.232  0.00  0.00    +0.000 N 
ATOM     19  C   UNL     1      -1.466  10.655  18.917  0.00  0.00    +0.000 C 
BRANCH  18  20
ATOM     20  C   UNL     1      -1.524  11.957  21.060  0.00  0.00    +0.000 C 
BRANCH  20  21
ATOM     21  C   UNL     1      -1.399  13.373  20.492  0.00  0.00    +0.000 C 
BRANCH  21  22
ATOM     22  N   UNL     1      -0.118  13.993  20.756  0.00  0.00    +0.000 N 
ATOM     23  C   UNL     1       0.246  14.538  21.951  0.00  0.00    +0.000 A 
ATOM     24  C   UNL     1       1.572  14.881  21.806  0.00  0.00    +0.000 A 
ATOM     25  N   UNL     1       2.010  14.561  20.551  0.00  0.00    +0.000 NA
ATOM     26  C   UNL     1       0.981  14.024  19.926  0.00  0.00    +0.000 A 
ATOM     27  C   UNL     1       0.989  13.506  18.537  0.00  0.00    +0.000 C 
ENDBRANCH  21  22
ENDBRANCH  20  21
ENDBRANCH  18  20
ENDBRANCH   4  16
TORSDOF 5
ENDMDL
