MODEL 1
REMARK VINA RESULT:      -8.6      0.000      0.000
REMARK  Name = 
REMARK  7 active torsions:
REMARK  status: ('A' for Active; 'I' for Inactive)
REMARK    1  A    between atoms: C_1  and  O_2
REMARK    2  A    between atoms: O_2  and  C_3
REMARK    3  A    between atoms: N_13  and  C_14
REMARK    4  A    between atoms: C_16  and  C_17
REMARK    5  A    between atoms: C_17  and  O_18
REMARK    6  A    between atoms: O_18  and  C_19
REMARK    7  A    between atoms: C_19  and  C_20
REMARK                            x       y       z     vdW  Elec       q    Type
REMARK                         _______ _______ _______ _____ _____    ______ ____
ROOT
ATOM      1  C   UNL     1       4.264   5.551  18.778  0.00  0.00    +0.000 A 
ATOM      2  N   UNL     1       3.672   6.747  18.563  0.00  0.00    +0.000 NA
ATOM      3  C   UNL     1       2.502   6.998  19.173  0.00  0.00    +0.000 A 
ATOM      4  N   UNL     1       1.853   6.122  19.953  0.00  0.00    +0.000 NA
ATOM      5  C   UNL     1       2.424   4.934  20.161  0.00  0.00    +0.000 A 
ATOM      6  C   UNL     1       1.757   4.041  20.995  0.00  0.00    +0.000 A 
ATOM      7  C   UNL     1       2.258   2.773  21.289  0.00  0.00    +0.000 A 
ATOM      8  C   UNL     1       3.436   2.359  20.697  0.00  0.00    +0.000 A 
ATOM      9  C   UNL     1       4.093   3.222  19.823  0.00  0.00    +0.000 A 
ATOM     10  C   UNL     1       3.641   4.555  19.580  0.00  0.00    +0.000 A 
ENDROOT
BRANCH   1  21
ATOM     11  C   UNL     1       6.282   4.159  14.183  0.00  0.00    +0.000 A 
ATOM     12  C   UNL     1       5.298   3.506  14.927  0.00  0.00    +0.000 A 
ATOM     13  C   UNL     1       5.080   3.837  16.266  0.00  0.00    +0.000 A 
ATOM     14  C   UNL     1       5.830   4.852  16.876  0.00  0.00    +0.000 A 
ATOM     15  C   UNL     1       6.869   5.447  16.136  0.00  0.00    +0.000 A 
ATOM     16  C   UNL     1       7.080   5.126  14.794  0.00  0.00    +0.000 A 
ATOM     17  N   UNL     1       7.669   6.424  16.743  0.00  0.00    +0.000 N 
ATOM     18  C   UNL     1       7.619   6.677  18.092  0.00  0.00    +0.000 C 
ATOM     19  O   UNL     1       8.358   7.525  18.592  0.00  0.00    +0.000 OA
ATOM     20  C   UNL     1       6.700   5.779  18.922  0.00  0.00    +0.000 C 
ATOM     21  N   UNL     1       5.513   5.357  18.154  0.00  0.00    +0.000 N 
ATOM     22  H   UNL     1       8.341   6.956  16.209  0.00  0.00    +0.000 HD
BRANCH  11  24
ATOM     23  C   UNL     1       5.148   3.358  12.256  0.00  0.00    +0.000 C 
ATOM     24  O   UNL     1       6.360   3.772  12.873  0.00  0.00    +0.000 OA
ENDBRANCH  11  24
ENDBRANCH   1  21
BRANCH   3  25
ATOM     25  C   UNL     1       1.826   8.331  18.917  0.00  0.00    +0.000 C 
BRANCH  25  26
ATOM     26  O   UNL     1       1.562   9.084  20.112  0.00  0.00    +0.000 OA
BRANCH  26  27
ATOM     27  C   UNL     1       0.252   9.340  20.335  0.00  0.00    +0.000 C 
ATOM     28  C   UNL     1      -0.212   8.698  21.606  0.00  0.00    +0.000 C 
ATOM     29  O   UNL     1      -0.471  10.020  19.618  0.00  0.00    +0.000 OA
ENDBRANCH  26  27
ENDBRANCH  25  26
ENDBRANCH   3  25
TORSDOF 5
ENDMDL
MODEL 2
REMARK VINA RESULT:      -8.5      1.087      1.218
REMARK  Name = 
REMARK  7 active torsions:
REMARK  status: ('A' for Active; 'I' for Inactive)
REMARK    1  A    between atoms: C_1  and  O_2
REMARK    2  A    between atoms: O_2  and  C_3
REMARK    3  A    between atoms: N_13  and  C_14
REMARK    4  A    between atoms: C_16  and  C_17
REMARK    5  A    between atoms: C_17  and  O_18
REMARK    6  A    between atoms: O_18  and  C_19
REMARK    7  A    between atoms: C_19  and  C_20
REMARK                            x       y       z     vdW  Elec       q    Type
REMARK                         _______ _______ _______ _____ _____    ______ ____
ROOT
ATOM      1  C   UNL     1       4.379   5.459  18.850  0.00  0.00    +0.000 A 
ATOM      2  N   UNL     1       3.729   6.633  18.689  0.00  0.00    +0.000 NA
ATOM      3  C   UNL     1       2.573   6.818  19.347  0.00  0.00    +0.000 A 
ATOM      4  N   UNL     1       1.991   5.896  20.126  0.00  0.00    +0.000 NA
ATOM      5  C   UNL     1       2.620   4.729  20.282  0.00  0.00    +0.000 A 
ATOM      6  C   UNL     1       2.022   3.787  21.115  0.00  0.00    +0.000 A 
ATOM      7  C   UNL     1       2.588   2.535  21.357  0.00  0.00    +0.000 A 
ATOM      8  C   UNL     1       3.758   2.187  20.711  0.00  0.00    +0.000 A 
ATOM      9  C   UNL     1       4.345   3.100  19.837  0.00  0.00    +0.000 A 
ATOM     10  C   UNL     1       3.829   4.417  19.647  0.00  0.00    +0.000 A 
ENDROOT
BRANCH   1  21
ATOM     11  C   UNL     1       6.291   4.112  14.196  0.00  0.00    +0.000 A 
ATOM     12  C   UNL     1       5.384   3.410  14.994  0.00  0.00    +0.000 A 
ATOM     13  C   UNL     1       5.201   3.753  16.335  0.00  0.00    +0.000 A 
ATOM     14  C   UNL     1       5.906   4.827  16.895  0.00  0.00    +0.000 A 
ATOM     15  C   UNL     1       6.872   5.474  16.101  0.00  0.00    +0.000 A 
ATOM     16  C   UNL     1       7.048   5.141  14.756  0.00  0.00    +0.000 A 
ATOM     17  N   UNL     1       7.630   6.513  16.656  0.00  0.00    +0.000 N 
ATOM     18  C   UNL     1       7.620   6.789  18.001  0.00  0.00    +0.000 C 
ATOM     19  O   UNL     1       8.322   7.694  18.455  0.00  0.00    +0.000 OA
ATOM     20  C   UNL     1       6.798   5.850  18.886  0.00  0.00    +0.000 C 
ATOM     21  N   UNL     1       5.611   5.335  18.176  0.00  0.00    +0.000 N 
ATOM     22  H   UNL     1       8.243   7.077  16.084  0.00  0.00    +0.000 HD
BRANCH  11  24
ATOM     23  C   UNL     1       5.094   3.437  12.259  0.00  0.00    +0.000 C 
ATOM     24  O   UNL     1       6.340   3.705  12.891  0.00  0.00    +0.000 OA
ENDBRANCH  11  24
ENDBRANCH   1  21
BRANCH   3  25
ATOM     25  C   UNL     1       1.833   8.127  19.152  0.00  0.00    +0.000 C 
BRANCH  25  26
ATOM     26  O   UNL     1       2.377   8.948  18.104  0.00  0.00    +0.000 OA
BRANCH  26  27
ATOM     27  C   UNL     1       1.851  10.192  18.038  0.00  0.00    +0.000 C 
ATOM     28  C   UNL     1       0.367  10.159  18.238  0.00  0.00    +0.000 C 
ATOM     29  O   UNL     1       2.486  11.224  17.862  0.00  0.00    +0.000 OA
ENDBRANCH  26  27
ENDBRANCH  25  26
ENDBRANCH   3  25
TORSDOF 5
ENDMDL
MODEL 3
REMARK VINA RESULT:      -8.0      2.212      3.851
REMARK  Name = 
REMARK  7 active torsions:
REMARK  status: ('A' for Active; 'I' for Inactive)
REMARK    1  A    between atoms: C_1  and  O_2
REMARK    2  A    between atoms: O_2  and  C_3
REMARK    3  A    between atoms: N_13  and  C_14
REMARK    4  A    between atoms: C_16  and  C_17
REMARK    5  A    between atoms: C_17  and  O_18
REMARK    6  A    between atoms: O_18  and  C_19
REMARK    7  A    between atoms: C_19  and  C_20
REMARK                            x       y       z     vdW  Elec       q    Type
REMARK                         _______ _______ _______ _____ _____    ______ ____
ROOT
ATOM      1  C   UNL     1       4.396   5.459  18.824  0.00  0.00    +0.000 A 
ATOM      2  N   UNL     1       4.070   4.481  19.698  0.00  0.00    +0.000 NA
ATOM      3  C   UNL     1       2.877   4.546  20.313  0.00  0.00    +0.000 A 
ATOM      4  N   UNL     1       1.998   5.544  20.151  0.00  0.00    +0.000 NA
ATOM      5  C   UNL     1       2.316   6.520  19.298  0.00  0.00    +0.000 A 
ATOM      6  C   UNL     1       1.384   7.538  19.115  0.00  0.00    +0.000 A 
ATOM      7  C   UNL     1       1.604   8.608  18.247  0.00  0.00    +0.000 A 
ATOM      8  C   UNL     1       2.809   8.697  17.577  0.00  0.00    +0.000 A 
ATOM      9  C   UNL     1       3.772   7.711  17.785  0.00  0.00    +0.000 A 
ATOM     10  C   UNL     1       3.529   6.565  18.600  0.00  0.00    +0.000 A 
ENDROOT
BRANCH   1  21
ATOM     11  C   UNL     1       6.356   4.230  14.158  0.00  0.00    +0.000 A 
ATOM     12  C   UNL     1       5.408   3.531  14.908  0.00  0.00    +0.000 A 
ATOM     13  C   UNL     1       5.210   3.826  16.258  0.00  0.00    +0.000 A 
ATOM     14  C   UNL     1       5.941   4.850  16.875  0.00  0.00    +0.000 A 
ATOM     15  C   UNL     1       6.946   5.492  16.127  0.00  0.00    +0.000 A 
ATOM     16  C   UNL     1       7.138   5.207  14.774  0.00  0.00    +0.000 A 
ATOM     17  N   UNL     1       7.729   6.479  16.739  0.00  0.00    +0.000 N 
ATOM     18  C   UNL     1       7.700   6.701  18.094  0.00  0.00    +0.000 C 
ATOM     19  O   UNL     1       8.424   7.561  18.598  0.00  0.00    +0.000 OA
ATOM     20  C   UNL     1       6.826   5.758  18.923  0.00  0.00    +0.000 C 
ATOM     21  N   UNL     1       5.637   5.317  18.170  0.00  0.00    +0.000 N 
ATOM     22  H   UNL     1       8.374   7.043  16.203  0.00  0.00    +0.000 HD
BRANCH  11  24
ATOM     23  C   UNL     1       5.263   3.253  12.290  0.00  0.00    +0.000 C 
ATOM     24  O   UNL     1       6.418   3.874  12.838  0.00  0.00    +0.000 OA
ENDBRANCH  11  24
ENDBRANCH   1  21
BRANCH   3  25
ATOM     25  C   UNL     1       2.519   3.461  21.310  0.00  0.00    +0.000 C 
BRANCH  25  26
ATOM     26  O   UNL     1       1.515   2.550  20.835  0.00  0.00    +0.000 OA
BRANCH  26  27
ATOM     27  C   UNL     1       1.703   2.120  19.566  0.00  0.00    +0.000 C 
ATOM     28  C   UNL     1       0.552   2.509  18.691  0.00  0.00    +0.000 C 
ATOM     29  O   UNL     1       2.686   1.512  19.160  0.00  0.00    +0.000 OA
ENDBRANCH  26  27
ENDBRANCH  25  26
ENDBRANCH   3  25
TORSDOF 5
ENDMDL
MODEL 4
REMARK VINA RESULT:      -7.8      2.129      6.759
REMARK  Name = 
REMARK  7 active torsions:
REMARK  status: ('A' for Active; 'I' for Inactive)
REMARK    1  A    between atoms: C_1  and  O_2
REMARK    2  A    between atoms: O_2  and  C_3
REMARK    3  A    between atoms: N_13  and  C_14
REMARK    4  A    between atoms: C_16  and  C_17
REMARK    5  A    between atoms: C_17  and  O_18
REMARK    6  A    between atoms: O_18  and  C_19
REMARK    7  A    between atoms: C_19  and  C_20
REMARK                            x       y       z     vdW  Elec       q    Type
REMARK                         _______ _______ _______ _____ _____    ______ ____
ROOT
ATOM      1  C   UNL     1       5.202   6.130  17.414  0.00  0.00    +0.000 A 
ATOM      2  N   UNL     1       6.075   6.963  18.023  0.00  0.00    +0.000 NA
ATOM      3  C   UNL     1       7.285   7.139  17.466  0.00  0.00    +0.000 A 
ATOM      4  N   UNL     1       7.707   6.507  16.362  0.00  0.00    +0.000 NA
ATOM      5  C   UNL     1       6.856   5.673  15.760  0.00  0.00    +0.000 A 
ATOM      6  C   UNL     1       7.293   5.043  14.598  0.00  0.00    +0.000 A 
ATOM      7  C   UNL     1       6.492   4.155  13.881  0.00  0.00    +0.000 A 
ATOM      8  C   UNL     1       5.234   3.843  14.360  0.00  0.00    +0.000 A 
ATOM      9  C   UNL     1       4.798   4.429  15.547  0.00  0.00    +0.000 A 
ATOM     10  C   UNL     1       5.570   5.406  16.245  0.00  0.00    +0.000 A 
ENDROOT
BRANCH   1  21
ATOM     11  C   UNL     1       2.678   3.299  20.983  0.00  0.00    +0.000 A 
ATOM     12  C   UNL     1       3.444   2.847  19.905  0.00  0.00    +0.000 A 
ATOM     13  C   UNL     1       3.804   3.717  18.874  0.00  0.00    +0.000 A 
ATOM     14  C   UNL     1       3.425   5.065  18.918  0.00  0.00    +0.000 A 
ATOM     15  C   UNL     1       2.590   5.487  19.970  0.00  0.00    +0.000 A 
ATOM     16  C   UNL     1       2.239   4.622  21.009  0.00  0.00    +0.000 A 
ATOM     17  N   UNL     1       2.152   6.816  20.005  0.00  0.00    +0.000 N 
ATOM     18  C   UNL     1       2.329   7.674  18.948  0.00  0.00    +0.000 C 
ATOM     19  O   UNL     1       1.905   8.829  19.007  0.00  0.00    +0.000 OA
ATOM     20  C   UNL     1       2.961   7.083  17.686  0.00  0.00    +0.000 C 
ATOM     21  N   UNL     1       3.930   6.019  18.012  0.00  0.00    +0.000 N 
ATOM     22  H   UNL     1       1.654   7.183  20.805  0.00  0.00    +0.000 HD
BRANCH  11  24
ATOM     23  C   UNL     1       1.093   2.245  22.403  0.00  0.00    +0.000 C 
ATOM     24  O   UNL     1       2.434   2.358  21.946  0.00  0.00    +0.000 OA
ENDBRANCH  11  24
ENDBRANCH   1  21
BRANCH   3  25
ATOM     25  C   UNL     1       8.272   8.057  18.160  0.00  0.00    +0.000 C 
BRANCH  25  26
ATOM     26  O   UNL     1       8.040   9.452  17.905  0.00  0.00    +0.000 OA
BRANCH  26  27
ATOM     27  C   UNL     1       8.855  10.289  18.587  0.00  0.00    +0.000 C 
ATOM     28  C   UNL     1       8.921  11.632  17.927  0.00  0.00    +0.000 C 
ATOM     29  O   UNL     1       9.452  10.014  19.621  0.00  0.00    +0.000 OA
ENDBRANCH  26  27
ENDBRANCH  25  26
ENDBRANCH   3  25
TORSDOF 5
ENDMDL
MODEL 5
REMARK VINA RESULT:      -7.7      1.131      1.301
REMARK  Name = 
REMARK  7 active torsions:
REMARK  status: ('A' for Active; 'I' for Inactive)
REMARK    1  A    between atoms: C_1  and  O_2
REMARK    2  A    between atoms: O_2  and  C_3
REMARK    3  A    between atoms: N_13  and  C_14
REMARK    4  A    between atoms: C_16  and  C_17
REMARK    5  A    between atoms: C_17  and  O_18
REMARK    6  A    between atoms: O_18  and  C_19
REMARK    7  A    between atoms: C_19  and  C_20
REMARK                            x       y       z     vdW  Elec       q    Type
REMARK                         _______ _______ _______ _____ _____    ______ ____
ROOT
ATOM      1  C   UNL     1       4.020   5.371  18.467  0.00  0.00    +0.000 A 
ATOM      2  N   UNL     1       3.748   6.642  18.094  0.00  0.00    +0.000 NA
ATOM      3  C   UNL     1       2.621   7.214  18.550  0.00  0.00    +0.000 A 
ATOM      4  N   UNL     1       1.718   6.592  19.321  0.00  0.00    +0.000 NA
ATOM      5  C   UNL     1       1.973   5.334  19.685  0.00  0.00    +0.000 A 
ATOM      6  C   UNL     1       1.042   4.706  20.508  0.00  0.00    +0.000 A 
ATOM      7  C   UNL     1       1.203   3.395  20.956  0.00  0.00    +0.000 A 
ATOM      8  C   UNL     1       2.296   2.666  20.531  0.00  0.00    +0.000 A 
ATOM      9  C   UNL     1       3.213   3.263  19.668  0.00  0.00    +0.000 A 
ATOM     10  C   UNL     1       3.111   4.631  19.272  0.00  0.00    +0.000 A 
ENDROOT
BRANCH   1  21
ATOM     11  C   UNL     1       6.539   4.412  14.010  0.00  0.00    +0.000 A 
ATOM     12  C   UNL     1       5.231   4.064  14.355  0.00  0.00    +0.000 A 
ATOM     13  C   UNL     1       4.805   4.126  15.684  0.00  0.00    +0.000 A 
ATOM     14  C   UNL     1       5.677   4.566  16.688  0.00  0.00    +0.000 A 
ATOM     15  C   UNL     1       7.012   4.839  16.337  0.00  0.00    +0.000 A 
ATOM     16  C   UNL     1       7.438   4.789  15.008  0.00  0.00    +0.000 A 
ATOM     17  N   UNL     1       7.917   5.225  17.333  0.00  0.00    +0.000 N 
ATOM     18  C   UNL     1       7.612   5.147  18.670  0.00  0.00    +0.000 C 
ATOM     19  O   UNL     1       8.445   5.471  19.517  0.00  0.00    +0.000 OA
ATOM     20  C   UNL     1       6.255   4.537  19.027  0.00  0.00    +0.000 C 
ATOM     21  N   UNL     1       5.239   4.836  18.000  0.00  0.00    +0.000 N 
ATOM     22  H   UNL     1       8.848   5.544  17.101  0.00  0.00    +0.000 HD
BRANCH  11  24
ATOM     23  C   UNL     1       6.475   3.141  12.004  0.00  0.00    +0.000 C 
ATOM     24  O   UNL     1       6.813   4.351  12.671  0.00  0.00    +0.000 OA
ENDBRANCH  11  24
ENDBRANCH   1  21
BRANCH   3  25
ATOM     25  C   UNL     1       2.305   8.631  18.116  0.00  0.00    +0.000 C 
BRANCH  25  26
ATOM     26  O   UNL     1       0.968   9.050  18.439  0.00  0.00    +0.000 OA
BRANCH  26  27
ATOM     27  C   UNL     1       0.889   9.925  19.468  0.00  0.00    +0.000 C 
ATOM     28  C   UNL     1       0.723  11.327  18.968  0.00  0.00    +0.000 C 
ATOM     29  O   UNL     1       0.925   9.631  20.656  0.00  0.00    +0.000 OA
ENDBRANCH  26  27
ENDBRANCH  25  26
ENDBRANCH   3  25
TORSDOF 5
ENDMDL
MODEL 6
REMARK VINA RESULT:      -7.6      2.603      4.891
REMARK  Name = 
REMARK  7 active torsions:
REMARK  status: ('A' for Active; 'I' for Inactive)
REMARK    1  A    between atoms: C_1  and  O_2
REMARK    2  A    between atoms: O_2  and  C_3
REMARK    3  A    between atoms: N_13  and  C_14
REMARK    4  A    between atoms: C_16  and  C_17
REMARK    5  A    between atoms: C_17  and  O_18
REMARK    6  A    between atoms: O_18  and  C_19
REMARK    7  A    between atoms: C_19  and  C_20
REMARK                            x       y       z     vdW  Elec       q    Type
REMARK                         _______ _______ _______ _____ _____    ______ ____
ROOT
ATOM      1  C   UNL     1       5.171   4.369  18.924  0.00  0.00    +0.000 A 
ATOM      2  N   UNL     1       5.287   3.194  19.582  0.00  0.00    +0.000 NA
ATOM      3  C   UNL     1       4.279   2.808  20.381  0.00  0.00    +0.000 A 
ATOM      4  N   UNL     1       3.175   3.532  20.608  0.00  0.00    +0.000 NA
ATOM      5  C   UNL     1       3.056   4.699  19.972  0.00  0.00    +0.000 A 
ATOM      6  C   UNL     1       1.893   5.432  20.192  0.00  0.00    +0.000 A 
ATOM      7  C   UNL     1       1.656   6.662  19.579  0.00  0.00    +0.000 A 
ATOM      8  C   UNL     1       2.626   7.208  18.761  0.00  0.00    +0.000 A 
ATOM      9  C   UNL     1       3.817   6.510  18.567  0.00  0.00    +0.000 A 
ATOM     10  C   UNL     1       4.039   5.210  19.115  0.00  0.00    +0.000 A 
ENDROOT
BRANCH   1  21
ATOM     11  C   UNL     1       6.429   4.246  13.871  0.00  0.00    +0.000 A 
ATOM     12  C   UNL     1       5.920   3.212  14.661  0.00  0.00    +0.000 A 
ATOM     13  C   UNL     1       5.917   3.315  16.053  0.00  0.00    +0.000 A 
ATOM     14  C   UNL     1       6.400   4.471  16.680  0.00  0.00    +0.000 A 
ATOM     15  C   UNL     1       6.979   5.471  15.876  0.00  0.00    +0.000 A 
ATOM     16  C   UNL     1       6.972   5.376  14.483  0.00  0.00    +0.000 A 
ATOM     17  N   UNL     1       7.520   6.611  16.485  0.00  0.00    +0.000 N 
ATOM     18  C   UNL     1       7.698   6.701  17.843  0.00  0.00    +0.000 C 
ATOM     19  O   UNL     1       8.202   7.710  18.337  0.00  0.00    +0.000 OA
ATOM     20  C   UNL     1       7.351   5.456  18.662  0.00  0.00    +0.000 C 
ATOM     21  N   UNL     1       6.234   4.704  18.061  0.00  0.00    +0.000 N 
ATOM     22  H   UNL     1       7.832   7.399  15.935  0.00  0.00    +0.000 HD
BRANCH  11  24
ATOM     23  C   UNL     1       5.143   3.410  12.059  0.00  0.00    +0.000 C 
ATOM     24  O   UNL     1       6.330   4.039  12.523  0.00  0.00    +0.000 OA
ENDBRANCH  11  24
ENDBRANCH   1  21
BRANCH   3  25
ATOM     25  C   UNL     1       4.418   1.500  21.136  0.00  0.00    +0.000 C 
BRANCH  25  26
ATOM     26  O   UNL     1       5.605   0.762  20.800  0.00  0.00    +0.000 OA
BRANCH  26  27
ATOM     27  C   UNL     1       6.260   0.242  21.864  0.00  0.00    +0.000 C 
ATOM     28  C   UNL     1       6.345  -1.250  21.765  0.00  0.00    +0.000 C 
ATOM     29  O   UNL     1       6.745   0.887  22.785  0.00  0.00    +0.000 OA
ENDBRANCH  26  27
ENDBRANCH  25  26
ENDBRANCH   3  25
TORSDOF 5
ENDMDL
MODEL 7
REMARK VINA RESULT:      -6.9      7.744     10.818
REMARK  Name = 
REMARK  7 active torsions:
REMARK  status: ('A' for Active; 'I' for Inactive)
REMARK    1  A    between atoms: C_1  and  O_2
REMARK    2  A    between atoms: O_2  and  C_3
REMARK    3  A    between atoms: N_13  and  C_14
REMARK    4  A    between atoms: C_16  and  C_17
REMARK    5  A    between atoms: C_17  and  O_18
REMARK    6  A    between atoms: O_18  and  C_19
REMARK    7  A    between atoms: C_19  and  C_20
REMARK                            x       y       z     vdW  Elec       q    Type
REMARK                         _______ _______ _______ _____ _____    ______ ____
ROOT
ATOM      1  C   UNL     1      -2.279  11.328  17.835  0.00  0.00    +0.000 A 
ATOM      2  N   UNL     1      -2.115  10.810  16.598  0.00  0.00    +0.000 NA
ATOM      3  C   UNL     1      -3.183  10.751  15.784  0.00  0.00    +0.000 A 
ATOM      4  N   UNL     1      -4.419  11.134  16.131  0.00  0.00    +0.000 NA
ATOM      5  C   UNL     1      -4.593  11.637  17.355  0.00  0.00    +0.000 A 
ATOM      6  C   UNL     1      -5.875  12.058  17.697  0.00  0.00    +0.000 A 
ATOM      7  C   UNL     1      -6.176  12.603  18.945  0.00  0.00    +0.000 A 
ATOM      8  C   UNL     1      -5.184  12.686  19.903  0.00  0.00    +0.000 A 
ATOM      9  C   UNL     1      -3.906  12.226  19.594  0.00  0.00    +0.000 A 
ATOM     10  C   UNL     1      -3.559  11.748  18.294  0.00  0.00    +0.000 A 
ENDROOT
BRANCH   1  21
ATOM     11  C   UNL     1       0.681  14.865  20.255  0.00  0.00    +0.000 A 
ATOM     12  C   UNL     1       0.237  14.871  18.931  0.00  0.00    +0.000 A 
ATOM     13  C   UNL     1      -0.292  13.715  18.353  0.00  0.00    +0.000 A 
ATOM     14  C   UNL     1      -0.412  12.537  19.102  0.00  0.00    +0.000 A 
ATOM     15  C   UNL     1       0.110  12.526  20.410  0.00  0.00    +0.000 A 
ATOM     16  C   UNL     1       0.628  13.684  20.994  0.00  0.00    +0.000 A 
ATOM     17  N   UNL     1       0.054  11.344  21.159  0.00  0.00    +0.000 N 
ATOM     18  C   UNL     1      -0.298  10.139  20.602  0.00  0.00    +0.000 C 
ATOM     19  O   UNL     1      -0.309   9.117  21.288  0.00  0.00    +0.000 OA
ATOM     20  C   UNL     1      -0.549  10.132  19.093  0.00  0.00    +0.000 C 
ATOM     21  N   UNL     1      -1.118  11.413  18.630  0.00  0.00    +0.000 N 
ATOM     22  H   UNL     1       0.307  11.332  22.137  0.00  0.00    +0.000 HD
BRANCH  11  24
ATOM     23  C   UNL     1       1.599  16.992  19.733  0.00  0.00    +0.000 C 
ATOM     24  O   UNL     1       1.133  16.073  20.712  0.00  0.00    +0.000 OA
ENDBRANCH  11  24
ENDBRANCH   1  21
BRANCH   3  25
ATOM     25  C   UNL     1      -3.005  10.151  14.403  0.00  0.00    +0.000 C 
BRANCH  25  26
ATOM     26  O   UNL     1      -4.244   9.871  13.731  0.00  0.00    +0.000 OA
BRANCH  26  27
ATOM     27  C   UNL     1      -4.127   9.687  12.396  0.00  0.00    +0.000 C 
ATOM     28  C   UNL     1      -5.458   9.811  11.718  0.00  0.00    +0.000 C 
ATOM     29  O   UNL     1      -3.082   9.469  11.796  0.00  0.00    +0.000 OA
ENDBRANCH  26  27
ENDBRANCH  25  26
ENDBRANCH   3  25
TORSDOF 5
ENDMDL
MODEL 8
REMARK VINA RESULT:      -6.9      2.623      3.983
REMARK  Name = 
REMARK  7 active torsions:
REMARK  status: ('A' for Active; 'I' for Inactive)
REMARK    1  A    between atoms: C_1  and  O_2
REMARK    2  A    between atoms: O_2  and  C_3
REMARK    3  A    between atoms: N_13  and  C_14
REMARK    4  A    between atoms: C_16  and  C_17
REMARK    5  A    between atoms: C_17  and  O_18
REMARK    6  A    between atoms: O_18  and  C_19
REMARK    7  A    between atoms: C_19  and  C_20
REMARK                            x       y       z     vdW  Elec       q    Type
REMARK                         _______ _______ _______ _____ _____    ______ ____
ROOT
ATOM      1  C   UNL     1       4.042   4.987  17.684  0.00  0.00    +0.000 A 
ATOM      2  N   UNL     1       3.436   3.830  18.030  0.00  0.00    +0.000 NA
ATOM      3  C   UNL     1       2.149   3.874  18.413  0.00  0.00    +0.000 A 
ATOM      4  N   UNL     1       1.430   5.000  18.519  0.00  0.00    +0.000 NA
ATOM      5  C   UNL     1       2.025   6.149  18.190  0.00  0.00    +0.000 A 
ATOM      6  C   UNL     1       1.263   7.311  18.277  0.00  0.00    +0.000 A 
ATOM      7  C   UNL     1       1.774   8.568  17.956  0.00  0.00    +0.000 A 
ATOM      8  C   UNL     1       3.100   8.683  17.586  0.00  0.00    +0.000 A 
ATOM      9  C   UNL     1       3.891   7.536  17.540  0.00  0.00    +0.000 A 
ATOM     10  C   UNL     1       3.361   6.232  17.778  0.00  0.00    +0.000 A 
ENDROOT
BRANCH   1  21
ATOM     11  C   UNL     1       6.781   4.331  13.302  0.00  0.00    +0.000 A 
ATOM     12  C   UNL     1       5.697   3.580  13.765  0.00  0.00    +0.000 A 
ATOM     13  C   UNL     1       5.267   3.693  15.088  0.00  0.00    +0.000 A 
ATOM     14  C   UNL     1       5.898   4.583  15.967  0.00  0.00    +0.000 A 
ATOM     15  C   UNL     1       7.034   5.276  15.508  0.00  0.00    +0.000 A 
ATOM     16  C   UNL     1       7.460   5.174  14.182  0.00  0.00    +0.000 A 
ATOM     17  N   UNL     1       7.717   6.129  16.384  0.00  0.00    +0.000 N 
ATOM     18  C   UNL     1       7.451   6.160  17.731  0.00  0.00    +0.000 C 
ATOM     19  O   UNL     1       8.092   6.904  18.474  0.00  0.00    +0.000 OA
ATOM     20  C   UNL     1       6.422   5.153  18.248  0.00  0.00    +0.000 C 
ATOM     21  N   UNL     1       5.377   4.879  17.243  0.00  0.00    +0.000 N 
ATOM     22  H   UNL     1       8.460   6.730  16.057  0.00  0.00    +0.000 HD
BRANCH  11  24
ATOM     23  C   UNL     1       7.034   2.829  11.480  0.00  0.00    +0.000 C 
ATOM     24  O   UNL     1       7.070   4.161  11.976  0.00  0.00    +0.000 OA
ENDBRANCH  11  24
ENDBRANCH   1  21
BRANCH   3  25
ATOM     25  C   UNL     1       1.473   2.579  18.820  0.00  0.00    +0.000 C 
BRANCH  25  26
ATOM     26  O   UNL     1       2.264   1.767  19.704  0.00  0.00    +0.000 OA
BRANCH  26  27
ATOM     27  C   UNL     1       2.525   2.336  20.904  0.00  0.00    +0.000 C 
ATOM     28  C   UNL     1       1.262   2.796  21.565  0.00  0.00    +0.000 C 
ATOM     29  O   UNL     1       3.633   2.451  21.410  0.00  0.00    +0.000 OA
ENDBRANCH  26  27
ENDBRANCH  25  26
ENDBRANCH   3  25
TORSDOF 5
ENDMDL
MODEL 9
REMARK VINA RESULT:      -6.8      8.910     13.234
REMARK  Name = 
REMARK  7 active torsions:
REMARK  status: ('A' for Active; 'I' for Inactive)
REMARK    1  A    between atoms: C_1  and  O_2
REMARK    2  A    between atoms: O_2  and  C_3
REMARK    3  A    between atoms: N_13  and  C_14
REMARK    4  A    between atoms: C_16  and  C_17
REMARK    5  A    between atoms: C_17  and  O_18
REMARK    6  A    between atoms: O_18  and  C_19
REMARK    7  A    between atoms: C_19  and  C_20
REMARK                            x       y       z     vdW  Elec       q    Type
REMARK                         _______ _______ _______ _____ _____    ______ ____
ROOT
ATOM      1  C   UNL     1      -4.494  11.726  17.421  0.00  0.00    +0.000 A 
ATOM      2  N   UNL     1      -4.412  11.117  16.217  0.00  0.00    +0.000 NA
ATOM      3  C   UNL     1      -3.283  10.455  15.912  0.00  0.00    +0.000 A 
ATOM      4  N   UNL     1      -2.206  10.392  16.708  0.00  0.00    +0.000 NA
ATOM      5  C   UNL     1      -2.274  11.000  17.894  0.00  0.00    +0.000 A 
ATOM      6  C   UNL     1      -1.161  10.906  18.725  0.00  0.00    +0.000 A 
ATOM      7  C   UNL     1      -1.117  11.497  19.988  0.00  0.00    +0.000 A 
ATOM      8  C   UNL     1      -2.193  12.249  20.419  0.00  0.00    +0.000 A 
ATOM      9  C   UNL     1      -3.296  12.393  19.580  0.00  0.00    +0.000 A 
ATOM     10  C   UNL     1      -3.394  11.723  18.324  0.00  0.00    +0.000 A 
ENDROOT
BRANCH   1  21
ATOM     11  C   UNL     1      -7.484  13.018  21.484  0.00  0.00    +0.000 A 
ATOM     12  C   UNL     1      -6.921  11.775  21.186  0.00  0.00    +0.000 A 
ATOM     13  C   UNL     1      -6.399  11.515  19.917  0.00  0.00    +0.000 A 
ATOM     14  C   UNL     1      -6.407  12.510  18.930  0.00  0.00    +0.000 A 
ATOM     15  C   UNL     1      -7.046  13.730  19.221  0.00  0.00    +0.000 A 
ATOM     16  C   UNL     1      -7.558  13.996  20.493  0.00  0.00    +0.000 A 
ATOM     17  N   UNL     1      -7.117  14.718  18.231  0.00  0.00    +0.000 N 
ATOM     18  C   UNL     1      -6.776  14.472  16.924  0.00  0.00    +0.000 C 
ATOM     19  O   UNL     1      -6.878  15.360  16.078  0.00  0.00    +0.000 OA
ATOM     20  C   UNL     1      -6.388  13.033  16.579  0.00  0.00    +0.000 C 
ATOM     21  N   UNL     1      -5.717  12.365  17.710  0.00  0.00    +0.000 N 
ATOM     22  H   UNL     1      -7.459  15.646  18.441  0.00  0.00    +0.000 HD
BRANCH  11  24
ATOM     23  C   UNL     1      -7.302  12.319  23.747  0.00  0.00    +0.000 C 
ATOM     24  O   UNL     1      -7.916  13.156  22.775  0.00  0.00    +0.000 OA
ENDBRANCH  11  24
ENDBRANCH   1  21
BRANCH   3  25
ATOM     25  C   UNL     1      -3.182   9.788  14.554  0.00  0.00    +0.000 C 
BRANCH  25  26
ATOM     26  O   UNL     1      -4.294  10.069  13.689  0.00  0.00    +0.000 OA
BRANCH  26  27
ATOM     27  C   UNL     1      -4.109   9.698  12.401  0.00  0.00    +0.000 C 
ATOM     28  C   UNL     1      -5.415   9.612  11.673  0.00  0.00    +0.000 C 
ATOM     29  O   UNL     1      -3.026   9.477  11.873  0.00  0.00    +0.000 OA
ENDBRANCH  26  27
ENDBRANCH  25  26
ENDBRANCH   3  25
TORSDOF 5
ENDMDL
