MODEL 1
REMARK VINA RESULT:      -6.7      0.000      0.000
REMARK  Name = 
REMARK  23 active torsions:
REMARK  status: ('A' for Active; 'I' for Inactive)
REMARK    1  A    between atoms: C_1  and  C_2
REMARK    2  A    between atoms: C_2  and  C_3
REMARK    3  A    between atoms: C_2  and  C_4
REMARK    4  A    between atoms: C_2  and  C_5
REMARK    5  A    between atoms: C_8  and  C_9
REMARK    6  A    between atoms: C_9  and  N_10
REMARK    7  A    between atoms: N_10  and  C_11
REMARK    8  A    between atoms: C_11  and  C_12
REMARK    9  A    between atoms: C_12  and  C_13
REMARK   10  A    between atoms: C_13  and  C_14
REMARK   11  A    between atoms: C_14  and  N_15
REMARK   12  A    between atoms: N_15  and  C_16
REMARK   13  A    between atoms: C_16  and  C_17
REMARK   14  A    between atoms: C_17  and  C_18
REMARK   15  A    between atoms: C_18  and  N_19
REMARK   16  A    between atoms: C_20  and  C_22
REMARK   17  A    between atoms: C_22  and  C_23
REMARK   18  A    between atoms: C_23  and  C_24
REMARK   19  A    between atoms: C_24  and  C_25
REMARK   20  A    between atoms: C_25  and  C_26
REMARK   21  A    between atoms: C_26  and  C_27
REMARK   22  A    between atoms: C_27  and  C_28
REMARK   23  A    between atoms: N_30  and  O_31
REMARK                            x       y       z     vdW  Elec       q    Type
REMARK                         _______ _______ _______ _____ _____    ______ ____
ROOT
ATOM      1  N   UNL     1       2.041   7.282  20.406  0.00  0.00    +0.000 NA
ATOM      2  H   UNL     1       2.809   7.505  21.041  0.00  0.00    +0.000 HD
ENDROOT
BRANCH   1   3
ATOM      3  C   UNL     1       1.174   6.296  21.041  0.00  0.00    +0.000 C 
BRANCH   3   4
ATOM      4  C   UNL     1       1.877   4.949  21.071  0.00  0.00    +0.000 C 
BRANCH   4   5
ATOM      5  C   UNL     1       1.004   3.892  20.403  0.00  0.00    +0.000 C 
BRANCH   5   6
ATOM      6  C   UNL     1       1.709   2.544  20.441  0.00  0.00    +0.000 C 
BRANCH   6   7
ATOM      7  N   UNL     1       1.607   1.928  19.130  0.00  0.00    +0.000 NA
ATOM      8  H   UNL     1       0.934   1.163  19.156  0.00  0.00    +0.000 HD
BRANCH   7   9
ATOM      9  C   UNL     1       2.903   1.427  18.692  0.00  0.00    +0.000 C 
BRANCH   9  13
ATOM     10  C   UNL     1       5.463   4.737  17.667  0.00  0.00    +0.000 A 
ATOM     11  C   UNL     1       5.306   4.322  19.001  0.00  0.00    +0.000 A 
ATOM     12  C   UNL     1       4.540   3.214  19.321  0.00  0.00    +0.000 A 
ATOM     13  C   UNL     1       3.803   2.566  18.330  0.00  0.00    +0.000 A 
ATOM     14  C   UNL     1       3.894   3.010  17.011  0.00  0.00    +0.000 A 
ATOM     15  C   UNL     1       4.720   4.077  16.686  0.00  0.00    +0.000 A 
BRANCH  10  17
ATOM     16  C   UNL     1       5.788   7.157  17.200  0.00  0.00    +0.000 C 
ATOM     17  C   UNL     1       6.495   5.793  17.273  0.00  0.00    +0.000 C 
ATOM     18  C   UNL     1       7.150   5.493  15.910  0.00  0.00    +0.000 C 
ATOM     19  C   UNL     1       7.626   5.863  18.330  0.00  0.00    +0.000 C 
ENDBRANCH  10  17
ENDBRANCH   9  13
ENDBRANCH   7   9
ENDBRANCH   6   7
ENDBRANCH   5   6
ENDBRANCH   4   5
ENDBRANCH   3   4
ENDBRANCH   1   3
BRANCH   1  20
ATOM     20  C   UNL     1       2.577   6.769  19.148  0.00  0.00    +0.000 C 
BRANCH  20  21
ATOM     21  C   UNL     1       2.359   7.787  18.018  0.00  0.00    +0.000 C 
BRANCH  21  22
ATOM     22  C   UNL     1       2.054   9.181  18.576  0.00  0.00    +0.000 C 
BRANCH  22  23
ATOM     23  N   UNL     1       0.644   9.531  18.546  0.00  0.00    +0.000 N 
ATOM     24  C   UNL     1       0.172  10.550  19.332  0.00  0.00    +0.000 C 
ATOM     25  O   UNL     1       0.883  11.203  20.095  0.00  0.00    +0.000 OA
ATOM     26  H   UNL     1       0.014   9.053  17.908  0.00  0.00    +0.000 HD
BRANCH  24  27
ATOM     27  C   UNL     1      -1.319  10.793  19.208  0.00  0.00    +0.000 C 
BRANCH  27  28
ATOM     28  C   UNL     1      -1.579  11.888  18.174  0.00  0.00    +0.000 C 
BRANCH  28  29
ATOM     29  C   UNL     1      -2.559  11.453  17.091  0.00  0.00    +0.000 C 
BRANCH  29  30
ATOM     30  C   UNL     1      -2.134  10.112  16.483  0.00  0.00    +0.000 C 
BRANCH  30  31
ATOM     31  C   UNL     1      -3.301   9.461  15.750  0.00  0.00    +0.000 C 
BRANCH  31  32
ATOM     32  C   UNL     1      -3.865  10.355  14.648  0.00  0.00    +0.000 C 
BRANCH  32  33
ATOM     33  C   UNL     1      -3.300   9.947  13.299  0.00  0.00    +0.000 C 
ATOM     34  O   UNL     1      -2.169   9.547  13.123  0.00  0.00    +0.000 OA
ATOM     35  N   UNL     1      -4.204  10.072  12.271  0.00  0.00    +0.000 N 
ATOM     36  H   UNL     1      -5.156  10.410  12.354  0.00  0.00    +0.000 HD
BRANCH  35  37
ATOM     37  O   UNL     1      -3.745   9.712  10.990  0.00  0.00    +0.000 OA
ATOM     38  H   UNL     1      -4.448   9.098  10.681  0.00  0.00    +0.000 HD
ENDBRANCH  35  37
ENDBRANCH  32  33
ENDBRANCH  31  32
ENDBRANCH  30  31
ENDBRANCH  29  30
ENDBRANCH  28  29
ENDBRANCH  27  28
ENDBRANCH  24  27
ENDBRANCH  22  23
ENDBRANCH  21  22
ENDBRANCH  20  21
ENDBRANCH   1  20
TORSDOF 20
ENDMDL
MODEL 2
REMARK VINA RESULT:      -6.6      4.668      9.288
REMARK  Name = 
REMARK  23 active torsions:
REMARK  status: ('A' for Active; 'I' for Inactive)
REMARK    1  A    between atoms: C_1  and  C_2
REMARK    2  A    between atoms: C_2  and  C_3
REMARK    3  A    between atoms: C_2  and  C_4
REMARK    4  A    between atoms: C_2  and  C_5
REMARK    5  A    between atoms: C_8  and  C_9
REMARK    6  A    between atoms: C_9  and  N_10
REMARK    7  A    between atoms: N_10  and  C_11
REMARK    8  A    between atoms: C_11  and  C_12
REMARK    9  A    between atoms: C_12  and  C_13
REMARK   10  A    between atoms: C_13  and  C_14
REMARK   11  A    between atoms: C_14  and  N_15
REMARK   12  A    between atoms: N_15  and  C_16
REMARK   13  A    between atoms: C_16  and  C_17
REMARK   14  A    between atoms: C_17  and  C_18
REMARK   15  A    between atoms: C_18  and  N_19
REMARK   16  A    between atoms: C_20  and  C_22
REMARK   17  A    between atoms: C_22  and  C_23
REMARK   18  A    between atoms: C_23  and  C_24
REMARK   19  A    between atoms: C_24  and  C_25
REMARK   20  A    between atoms: C_25  and  C_26
REMARK   21  A    between atoms: C_26  and  C_27
REMARK   22  A    between atoms: C_27  and  C_28
REMARK   23  A    between atoms: N_30  and  O_31
REMARK                            x       y       z     vdW  Elec       q    Type
REMARK                         _______ _______ _______ _____ _____    ______ ____
ROOT
ATOM      1  N   UNL     1       2.334   1.550  18.123  0.00  0.00    +0.000 NA
ATOM      2  H   UNL     1       1.870   1.574  17.214  0.00  0.00    +0.000 HD
ENDROOT
BRANCH   1   3
ATOM      3  C   UNL     1       1.744   2.573  18.980  0.00  0.00    +0.000 C 
BRANCH   3   4
ATOM      4  C   UNL     1       2.388   2.513  20.356  0.00  0.00    +0.000 C 
BRANCH   4   5
ATOM      5  C   UNL     1       1.604   3.378  21.336  0.00  0.00    +0.000 C 
BRANCH   5   6
ATOM      6  C   UNL     1       1.227   4.694  20.671  0.00  0.00    +0.000 C 
BRANCH   6   7
ATOM      7  N   UNL     1       2.341   5.616  20.799  0.00  0.00    +0.000 NA
ATOM      8  H   UNL     1       2.120   6.337  21.484  0.00  0.00    +0.000 HD
BRANCH   7   9
ATOM      9  C   UNL     1       2.650   6.236  19.518  0.00  0.00    +0.000 C 
BRANCH   9  13
ATOM     10  C   UNL     1       0.944  10.188  19.342  0.00  0.00    +0.000 A 
ATOM     11  C   UNL     1       0.942   9.446  20.536  0.00  0.00    +0.000 A 
ATOM     12  C   UNL     1       1.555   8.206  20.609  0.00  0.00    +0.000 A 
ATOM     13  C   UNL     1       2.072   7.615  19.457  0.00  0.00    +0.000 A 
ATOM     14  C   UNL     1       2.018   8.311  18.249  0.00  0.00    +0.000 A 
ATOM     15  C   UNL     1       1.467   9.583  18.197  0.00  0.00    +0.000 A 
BRANCH  10  17
ATOM     16  C   UNL     1       1.635  12.485  18.691  0.00  0.00    +0.000 C 
ATOM     17  C   UNL     1       0.500  11.650  19.307  0.00  0.00    +0.000 C 
ATOM     18  C   UNL     1       0.176  12.199  20.711  0.00  0.00    +0.000 C 
ATOM     19  C   UNL     1      -0.774  11.806  18.438  0.00  0.00    +0.000 C 
ENDBRANCH  10  17
ENDBRANCH   9  13
ENDBRANCH   7   9
ENDBRANCH   6   7
ENDBRANCH   5   6
ENDBRANCH   4   5
ENDBRANCH   3   4
ENDBRANCH   1   3
BRANCH   1  20
ATOM     20  C   UNL     1       3.766   1.781  17.950  0.00  0.00    +0.000 C 
BRANCH  20  21
ATOM     21  C   UNL     1       4.018   3.193  17.397  0.00  0.00    +0.000 C 
BRANCH  21  22
ATOM     22  C   UNL     1       5.081   3.930  18.217  0.00  0.00    +0.000 C 
BRANCH  22  23
ATOM     23  N   UNL     1       5.668   5.070  17.533  0.00  0.00    +0.000 N 
ATOM     24  C   UNL     1       6.998   5.358  17.693  0.00  0.00    +0.000 C 
ATOM     25  O   UNL     1       7.753   4.700  18.409  0.00  0.00    +0.000 OA
ATOM     26  H   UNL     1       5.104   5.628  16.898  0.00  0.00    +0.000 HD
BRANCH  24  27
ATOM     27  C   UNL     1       7.467   6.582  16.932  0.00  0.00    +0.000 C 
BRANCH  27  28
ATOM     28  C   UNL     1       7.195   7.838  17.757  0.00  0.00    +0.000 C 
BRANCH  28  29
ATOM     29  C   UNL     1       8.466   8.454  18.329  0.00  0.00    +0.000 C 
BRANCH  29  30
ATOM     30  C   UNL     1       8.459   9.976  18.146  0.00  0.00    +0.000 C 
BRANCH  30  31
ATOM     31  C   UNL     1       9.620  10.613  18.901  0.00  0.00    +0.000 C 
BRANCH  31  32
ATOM     32  C   UNL     1       9.330  12.058  19.301  0.00  0.00    +0.000 C 
BRANCH  32  33
ATOM     33  C   UNL     1       9.559  12.246  20.790  0.00  0.00    +0.000 C 
ATOM     34  O   UNL     1      10.305  13.073  21.269  0.00  0.00    +0.000 OA
ATOM     35  N   UNL     1       8.830  11.377  21.566  0.00  0.00    +0.000 N 
ATOM     36  H   UNL     1       8.201  10.659  21.225  0.00  0.00    +0.000 HD
BRANCH  35  37
ATOM     37  O   UNL     1       8.995  11.495  22.959  0.00  0.00    +0.000 OA
ATOM     38  H   UNL     1       9.776  10.923  23.126  0.00  0.00    +0.000 HD
ENDBRANCH  35  37
ENDBRANCH  32  33
ENDBRANCH  31  32
ENDBRANCH  30  31
ENDBRANCH  29  30
ENDBRANCH  28  29
ENDBRANCH  27  28
ENDBRANCH  24  27
ENDBRANCH  22  23
ENDBRANCH  21  22
ENDBRANCH  20  21
ENDBRANCH   1  20
TORSDOF 20
ENDMDL
MODEL 3
REMARK VINA RESULT:      -6.5      5.506      9.740
REMARK  Name = 
REMARK  23 active torsions:
REMARK  status: ('A' for Active; 'I' for Inactive)
REMARK    1  A    between atoms: C_1  and  C_2
REMARK    2  A    between atoms: C_2  and  C_3
REMARK    3  A    between atoms: C_2  and  C_4
REMARK    4  A    between atoms: C_2  and  C_5
REMARK    5  A    between atoms: C_8  and  C_9
REMARK    6  A    between atoms: C_9  and  N_10
REMARK    7  A    between atoms: N_10  and  C_11
REMARK    8  A    between atoms: C_11  and  C_12
REMARK    9  A    between atoms: C_12  and  C_13
REMARK   10  A    between atoms: C_13  and  C_14
REMARK   11  A    between atoms: C_14  and  N_15
REMARK   12  A    between atoms: N_15  and  C_16
REMARK   13  A    between atoms: C_16  and  C_17
REMARK   14  A    between atoms: C_17  and  C_18
REMARK   15  A    between atoms: C_18  and  N_19
REMARK   16  A    between atoms: C_20  and  C_22
REMARK   17  A    between atoms: C_22  and  C_23
REMARK   18  A    between atoms: C_23  and  C_24
REMARK   19  A    between atoms: C_24  and  C_25
REMARK   20  A    between atoms: C_25  and  C_26
REMARK   21  A    between atoms: C_26  and  C_27
REMARK   22  A    between atoms: C_27  and  C_28
REMARK   23  A    between atoms: N_30  and  O_31
REMARK                            x       y       z     vdW  Elec       q    Type
REMARK                         _______ _______ _______ _____ _____    ______ ____
ROOT
ATOM      1  N   UNL     1       1.481  11.745  18.091  0.00  0.00    +0.000 NA
ATOM      2  H   UNL     1       0.781  12.142  17.464  0.00  0.00    +0.000 HD
ENDROOT
BRANCH   1   3
ATOM      3  C   UNL     1       2.673  12.585  18.061  0.00  0.00    +0.000 C 
BRANCH   3   4
ATOM      4  C   UNL     1       2.323  13.979  18.555  0.00  0.00    +0.000 C 
BRANCH   4   5
ATOM      5  C   UNL     1       3.249  15.006  17.913  0.00  0.00    +0.000 C 
BRANCH   5   6
ATOM      6  C   UNL     1       4.087  15.685  18.987  0.00  0.00    +0.000 C 
BRANCH   6   7
ATOM      7  N   UNL     1       5.411  15.942  18.451  0.00  0.00    +0.000 NA
ATOM      8  H   UNL     1       5.685  15.190  17.820  0.00  0.00    +0.000 HD
BRANCH   7   9
ATOM      9  C   UNL     1       6.390  16.061  19.524  0.00  0.00    +0.000 C 
BRANCH   9  13
ATOM     10  C   UNL     1       9.385  12.981  19.206  0.00  0.00    +0.000 A 
ATOM     11  C   UNL     1       8.947  13.446  20.458  0.00  0.00    +0.000 A 
ATOM     12  C   UNL     1       7.934  14.383  20.559  0.00  0.00    +0.000 A 
ATOM     13  C   UNL     1       7.418  14.981  19.410  0.00  0.00    +0.000 A 
ATOM     14  C   UNL     1       7.893  14.580  18.161  0.00  0.00    +0.000 A 
ATOM     15  C   UNL     1       8.858  13.588  18.063  0.00  0.00    +0.000 A 
BRANCH  10  17
ATOM     16  C   UNL     1      11.341  11.835  20.223  0.00  0.00    +0.000 C 
ATOM     17  C   UNL     1      10.316  11.775  19.079  0.00  0.00    +0.000 C 
ATOM     18  C   UNL     1      11.066  11.751  17.732  0.00  0.00    +0.000 C 
ATOM     19  C   UNL     1       9.508  10.457  19.188  0.00  0.00    +0.000 C 
ENDBRANCH  10  17
ENDBRANCH   9  13
ENDBRANCH   7   9
ENDBRANCH   6   7
ENDBRANCH   5   6
ENDBRANCH   4   5
ENDBRANCH   3   4
ENDBRANCH   1   3
BRANCH   1  20
ATOM     20  C   UNL     1       1.798  10.380  17.675  0.00  0.00    +0.000 C 
BRANCH  20  21
ATOM     21  C   UNL     1       1.525   9.394  18.822  0.00  0.00    +0.000 C 
BRANCH  21  22
ATOM     22  C   UNL     1       2.277   8.076  18.613  0.00  0.00    +0.000 C 
BRANCH  22  23
ATOM     23  N   UNL     1       1.978   7.063  19.611  0.00  0.00    +0.000 N 
ATOM     24  C   UNL     1       2.807   5.983  19.763  0.00  0.00    +0.000 C 
ATOM     25  O   UNL     1       3.816   5.800  19.082  0.00  0.00    +0.000 OA
ATOM     26  H   UNL     1       1.180   7.177  20.230  0.00  0.00    +0.000 HD
BRANCH  24  27
ATOM     27  C   UNL     1       2.364   5.002  20.830  0.00  0.00    +0.000 C 
BRANCH  27  28
ATOM     28  C   UNL     1       1.029   4.375  20.432  0.00  0.00    +0.000 C 
BRANCH  28  29
ATOM     29  C   UNL     1       1.109   2.860  20.289  0.00  0.00    +0.000 C 
BRANCH  29  30
ATOM     30  C   UNL     1       0.900   2.442  18.830  0.00  0.00    +0.000 C 
BRANCH  30  31
ATOM     31  C   UNL     1       2.165   2.688  18.015  0.00  0.00    +0.000 C 
BRANCH  31  32
ATOM     32  C   UNL     1       3.286   1.715  18.375  0.00  0.00    +0.000 C 
BRANCH  32  33
ATOM     33  C   UNL     1       4.440   2.460  19.022  0.00  0.00    +0.000 C 
ATOM     34  O   UNL     1       4.757   2.355  20.187  0.00  0.00    +0.000 OA
ATOM     35  N   UNL     1       5.111   3.285  18.150  0.00  0.00    +0.000 N 
ATOM     36  H   UNL     1       4.887   3.424  17.171  0.00  0.00    +0.000 HD
BRANCH  35  37
ATOM     37  O   UNL     1       6.194   4.009  18.684  0.00  0.00    +0.000 OA
ATOM     38  H   UNL     1       6.963   3.455  18.426  0.00  0.00    +0.000 HD
ENDBRANCH  35  37
ENDBRANCH  32  33
ENDBRANCH  31  32
ENDBRANCH  30  31
ENDBRANCH  29  30
ENDBRANCH  28  29
ENDBRANCH  27  28
ENDBRANCH  24  27
ENDBRANCH  22  23
ENDBRANCH  21  22
ENDBRANCH  20  21
ENDBRANCH   1  20
TORSDOF 20
ENDMDL
MODEL 4
REMARK VINA RESULT:      -6.4      3.264      3.954
REMARK  Name = 
REMARK  23 active torsions:
REMARK  status: ('A' for Active; 'I' for Inactive)
REMARK    1  A    between atoms: C_1  and  C_2
REMARK    2  A    between atoms: C_2  and  C_3
REMARK    3  A    between atoms: C_2  and  C_4
REMARK    4  A    between atoms: C_2  and  C_5
REMARK    5  A    between atoms: C_8  and  C_9
REMARK    6  A    between atoms: C_9  and  N_10
REMARK    7  A    between atoms: N_10  and  C_11
REMARK    8  A    between atoms: C_11  and  C_12
REMARK    9  A    between atoms: C_12  and  C_13
REMARK   10  A    between atoms: C_13  and  C_14
REMARK   11  A    between atoms: C_14  and  N_15
REMARK   12  A    between atoms: N_15  and  C_16
REMARK   13  A    between atoms: C_16  and  C_17
REMARK   14  A    between atoms: C_17  and  C_18
REMARK   15  A    between atoms: C_18  and  N_19
REMARK   16  A    between atoms: C_20  and  C_22
REMARK   17  A    between atoms: C_22  and  C_23
REMARK   18  A    between atoms: C_23  and  C_24
REMARK   19  A    between atoms: C_24  and  C_25
REMARK   20  A    between atoms: C_25  and  C_26
REMARK   21  A    between atoms: C_26  and  C_27
REMARK   22  A    between atoms: C_27  and  C_28
REMARK   23  A    between atoms: N_30  and  O_31
REMARK                            x       y       z     vdW  Elec       q    Type
REMARK                         _______ _______ _______ _____ _____    ______ ____
ROOT
ATOM      1  N   UNL     1       2.730   6.044  20.220  0.00  0.00    +0.000 NA
ATOM      2  H   UNL     1       3.123   5.513  19.442  0.00  0.00    +0.000 HD
ENDROOT
BRANCH   1   3
ATOM      3  C   UNL     1       1.667   5.261  20.838  0.00  0.00    +0.000 C 
BRANCH   3   4
ATOM      4  C   UNL     1       2.258   4.004  21.456  0.00  0.00    +0.000 C 
BRANCH   4   5
ATOM      5  C   UNL     1       1.257   2.858  21.362  0.00  0.00    +0.000 C 
BRANCH   5   6
ATOM      6  C   UNL     1       0.775   2.713  19.926  0.00  0.00    +0.000 C 
BRANCH   6   7
ATOM      7  N   UNL     1       1.661   1.800  19.227  0.00  0.00    +0.000 NA
ATOM      8  H   UNL     1       2.529   1.687  19.749  0.00  0.00    +0.000 HD
BRANCH   7   9
ATOM      9  C   UNL     1       1.956   2.289  17.886  0.00  0.00    +0.000 C 
BRANCH   9  13
ATOM     10  C   UNL     1       5.470   4.779  17.979  0.00  0.00    +0.000 A 
ATOM     11  C   UNL     1       5.267   3.770  18.936  0.00  0.00    +0.000 A 
ATOM     12  C   UNL     1       4.173   2.924  18.862  0.00  0.00    +0.000 A 
ATOM     13  C   UNL     1       3.183   3.145  17.906  0.00  0.00    +0.000 A 
ATOM     14  C   UNL     1       3.337   4.188  16.993  0.00  0.00    +0.000 A 
ATOM     15  C   UNL     1       4.470   4.988  17.027  0.00  0.00    +0.000 A 
BRANCH  10  17
ATOM     16  C   UNL     1       7.359   5.683  19.318  0.00  0.00    +0.000 C 
ATOM     17  C   UNL     1       6.787   5.552  17.897  0.00  0.00    +0.000 C 
ATOM     18  C   UNL     1       6.605   6.960  17.296  0.00  0.00    +0.000 C 
ATOM     19  C   UNL     1       7.803   4.791  17.008  0.00  0.00    +0.000 C 
ENDBRANCH  10  17
ENDBRANCH   9  13
ENDBRANCH   7   9
ENDBRANCH   6   7
ENDBRANCH   5   6
ENDBRANCH   4   5
ENDBRANCH   3   4
ENDBRANCH   1   3
BRANCH   1  20
ATOM     20  C   UNL     1       2.217   7.323  19.734  0.00  0.00    +0.000 C 
BRANCH  20  21
ATOM     21  C   UNL     1       0.978   7.744  20.540  0.00  0.00    +0.000 C 
BRANCH  21  22
ATOM     22  C   UNL     1       1.268   8.975  21.404  0.00  0.00    +0.000 C 
BRANCH  22  23
ATOM     23  N   UNL     1       0.092   9.770  21.711  0.00  0.00    +0.000 N 
ATOM     24  C   UNL     1      -0.213  10.073  23.012  0.00  0.00    +0.000 C 
ATOM     25  O   UNL     1       0.459   9.697  23.972  0.00  0.00    +0.000 OA
ATOM     26  H   UNL     1      -0.482  10.142  20.959  0.00  0.00    +0.000 HD
BRANCH  24  27
ATOM     27  C   UNL     1      -1.476  10.895  23.181  0.00  0.00    +0.000 C 
BRANCH  27  28
ATOM     28  C   UNL     1      -1.574  11.927  22.060  0.00  0.00    +0.000 C 
BRANCH  28  29
ATOM     29  C   UNL     1      -0.448  12.953  22.103  0.00  0.00    +0.000 C 
BRANCH  29  30
ATOM     30  C   UNL     1      -0.636  14.009  21.008  0.00  0.00    +0.000 C 
BRANCH  30  31
ATOM     31  C   UNL     1       0.246  13.695  19.804  0.00  0.00    +0.000 C 
BRANCH  31  32
ATOM     32  C   UNL     1      -0.138  12.380  19.130  0.00  0.00    +0.000 C 
BRANCH  32  33
ATOM     33  C   UNL     1       1.103  11.669  18.620  0.00  0.00    +0.000 C 
ATOM     34  O   UNL     1       2.238  12.048  18.815  0.00  0.00    +0.000 OA
ATOM     35  N   UNL     1       0.822  10.533  17.901  0.00  0.00    +0.000 N 
ATOM     36  H   UNL     1      -0.104  10.173  17.695  0.00  0.00    +0.000 HD
BRANCH  35  37
ATOM     37  O   UNL     1       1.928   9.823  17.396  0.00  0.00    +0.000 OA
ATOM     38  H   UNL     1       2.130  10.313  16.568  0.00  0.00    +0.000 HD
ENDBRANCH  35  37
ENDBRANCH  32  33
ENDBRANCH  31  32
ENDBRANCH  30  31
ENDBRANCH  29  30
ENDBRANCH  28  29
ENDBRANCH  27  28
ENDBRANCH  24  27
ENDBRANCH  22  23
ENDBRANCH  21  22
ENDBRANCH  20  21
ENDBRANCH   1  20
TORSDOF 20
ENDMDL
MODEL 5
REMARK VINA RESULT:      -6.3      3.683     10.270
REMARK  Name = 
REMARK  23 active torsions:
REMARK  status: ('A' for Active; 'I' for Inactive)
REMARK    1  A    between atoms: C_1  and  C_2
REMARK    2  A    between atoms: C_2  and  C_3
REMARK    3  A    between atoms: C_2  and  C_4
REMARK    4  A    between atoms: C_2  and  C_5
REMARK    5  A    between atoms: C_8  and  C_9
REMARK    6  A    between atoms: C_9  and  N_10
REMARK    7  A    between atoms: N_10  and  C_11
REMARK    8  A    between atoms: C_11  and  C_12
REMARK    9  A    between atoms: C_12  and  C_13
REMARK   10  A    between atoms: C_13  and  C_14
REMARK   11  A    between atoms: C_14  and  N_15
REMARK   12  A    between atoms: N_15  and  C_16
REMARK   13  A    between atoms: C_16  and  C_17
REMARK   14  A    between atoms: C_17  and  C_18
REMARK   15  A    between atoms: C_18  and  N_19
REMARK   16  A    between atoms: C_20  and  C_22
REMARK   17  A    between atoms: C_22  and  C_23
REMARK   18  A    between atoms: C_23  and  C_24
REMARK   19  A    between atoms: C_24  and  C_25
REMARK   20  A    between atoms: C_25  and  C_26
REMARK   21  A    between atoms: C_26  and  C_27
REMARK   22  A    between atoms: C_27  and  C_28
REMARK   23  A    between atoms: N_30  and  O_31
REMARK                            x       y       z     vdW  Elec       q    Type
REMARK                         _______ _______ _______ _____ _____    ______ ____
ROOT
ATOM      1  N   UNL     1       1.655   6.173  20.761  0.00  0.00    +0.000 NA
ATOM      2  H   UNL     1       0.703   6.533  20.836  0.00  0.00    +0.000 HD
ENDROOT
BRANCH   1   3
ATOM      3  C   UNL     1       2.491   7.177  20.113  0.00  0.00    +0.000 C 
BRANCH   3   4
ATOM      4  C   UNL     1       2.285   7.114  18.608  0.00  0.00    +0.000 C 
BRANCH   4   5
ATOM      5  C   UNL     1       1.717   8.436  18.106  0.00  0.00    +0.000 C 
BRANCH   5   6
ATOM      6  C   UNL     1       1.524   9.391  19.275  0.00  0.00    +0.000 C 
BRANCH   6   7
ATOM      7  N   UNL     1       0.537  10.389  18.904  0.00  0.00    +0.000 NA
ATOM      8  H   UNL     1      -0.053  10.611  19.704  0.00  0.00    +0.000 HD
BRANCH   7   9
ATOM      9  C   UNL     1      -0.290   9.914  17.802  0.00  0.00    +0.000 C 
BRANCH   9  13
ATOM     10  C   UNL     1      -4.315  11.403  18.179  0.00  0.00    +0.000 A 
ATOM     11  C   UNL     1      -4.012  10.328  17.326  0.00  0.00    +0.000 A 
ATOM     12  C   UNL     1      -2.732   9.805  17.260  0.00  0.00    +0.000 A 
ATOM     13  C   UNL     1      -1.689  10.424  17.948  0.00  0.00    +0.000 A 
ATOM     14  C   UNL     1      -1.962  11.536  18.745  0.00  0.00    +0.000 A 
ATOM     15  C   UNL     1      -3.260  12.012  18.863  0.00  0.00    +0.000 A 
BRANCH  10  17
ATOM     16  C   UNL     1      -5.765  12.752  19.681  0.00  0.00    +0.000 C 
ATOM     17  C   UNL     1      -5.758  11.828  18.452  0.00  0.00    +0.000 C 
ATOM     18  C   UNL     1      -6.683  10.625  18.722  0.00  0.00    +0.000 C 
ATOM     19  C   UNL     1      -6.332  12.597  17.236  0.00  0.00    +0.000 C 
ENDBRANCH  10  17
ENDBRANCH   9  13
ENDBRANCH   7   9
ENDBRANCH   6   7
ENDBRANCH   5   6
ENDBRANCH   4   5
ENDBRANCH   3   4
ENDBRANCH   1   3
BRANCH   1  20
ATOM     20  C   UNL     1       1.650   4.929  19.994  0.00  0.00    +0.000 C 
BRANCH  20  21
ATOM     21  C   UNL     1       1.143   3.766  20.863  0.00  0.00    +0.000 C 
BRANCH  21  22
ATOM     22  C   UNL     1       2.183   2.646  20.954  0.00  0.00    +0.000 C 
BRANCH  22  23
ATOM     23  N   UNL     1       3.124   2.624  19.847  0.00  0.00    +0.000 N 
ATOM     24  C   UNL     1       2.713   2.218  18.604  0.00  0.00    +0.000 C 
ATOM     25  O   UNL     1       1.566   1.849  18.356  0.00  0.00    +0.000 OA
ATOM     26  H   UNL     1       4.076   2.953  19.981  0.00  0.00    +0.000 HD
BRANCH  24  27
ATOM     27  C   UNL     1       3.804   2.232  17.552  0.00  0.00    +0.000 C 
BRANCH  27  28
ATOM     28  C   UNL     1       4.341   3.652  17.384  0.00  0.00    +0.000 C 
BRANCH  28  29
ATOM     29  C   UNL     1       5.349   3.769  16.247  0.00  0.00    +0.000 C 
BRANCH  29  30
ATOM     30  C   UNL     1       5.424   5.213  15.737  0.00  0.00    +0.000 C 
BRANCH  30  31
ATOM     31  C   UNL     1       6.725   5.873  16.182  0.00  0.00    +0.000 C 
BRANCH  31  32
ATOM     32  C   UNL     1       6.510   6.863  17.325  0.00  0.00    +0.000 C 
BRANCH  32  33
ATOM     33  C   UNL     1       7.574   6.672  18.392  0.00  0.00    +0.000 C 
ATOM     34  O   UNL     1       8.427   7.489  18.664  0.00  0.00    +0.000 OA
ATOM     35  N   UNL     1       7.483   5.462  19.038  0.00  0.00    +0.000 N 
ATOM     36  H   UNL     1       6.802   4.736  18.848  0.00  0.00    +0.000 HD
BRANCH  35  37
ATOM     37  O   UNL     1       8.441   5.217  20.040  0.00  0.00    +0.000 OA
ATOM     38  H   UNL     1       8.719   4.296  19.842  0.00  0.00    +0.000 HD
ENDBRANCH  35  37
ENDBRANCH  32  33
ENDBRANCH  31  32
ENDBRANCH  30  31
ENDBRANCH  29  30
ENDBRANCH  28  29
ENDBRANCH  27  28
ENDBRANCH  24  27
ENDBRANCH  22  23
ENDBRANCH  21  22
ENDBRANCH  20  21
ENDBRANCH   1  20
TORSDOF 20
ENDMDL
MODEL 6
REMARK VINA RESULT:      -6.2      5.125      7.632
REMARK  Name = 
REMARK  23 active torsions:
REMARK  status: ('A' for Active; 'I' for Inactive)
REMARK    1  A    between atoms: C_1  and  C_2
REMARK    2  A    between atoms: C_2  and  C_3
REMARK    3  A    between atoms: C_2  and  C_4
REMARK    4  A    between atoms: C_2  and  C_5
REMARK    5  A    between atoms: C_8  and  C_9
REMARK    6  A    between atoms: C_9  and  N_10
REMARK    7  A    between atoms: N_10  and  C_11
REMARK    8  A    between atoms: C_11  and  C_12
REMARK    9  A    between atoms: C_12  and  C_13
REMARK   10  A    between atoms: C_13  and  C_14
REMARK   11  A    between atoms: C_14  and  N_15
REMARK   12  A    between atoms: N_15  and  C_16
REMARK   13  A    between atoms: C_16  and  C_17
REMARK   14  A    between atoms: C_17  and  C_18
REMARK   15  A    between atoms: C_18  and  N_19
REMARK   16  A    between atoms: C_20  and  C_22
REMARK   17  A    between atoms: C_22  and  C_23
REMARK   18  A    between atoms: C_23  and  C_24
REMARK   19  A    between atoms: C_24  and  C_25
REMARK   20  A    between atoms: C_25  and  C_26
REMARK   21  A    between atoms: C_26  and  C_27
REMARK   22  A    between atoms: C_27  and  C_28
REMARK   23  A    between atoms: N_30  and  O_31
REMARK                            x       y       z     vdW  Elec       q    Type
REMARK                         _______ _______ _______ _____ _____    ______ ____
ROOT
ATOM      1  N   UNL     1       6.404   3.972  17.151  0.00  0.00    +0.000 NA
ATOM      2  H   UNL     1       6.283   3.702  18.127  0.00  0.00    +0.000 HD
ENDROOT
BRANCH   1   3
ATOM      3  C   UNL     1       7.062   5.272  17.098  0.00  0.00    +0.000 C 
BRANCH   3   4
ATOM      4  C   UNL     1       7.838   5.500  18.385  0.00  0.00    +0.000 C 
BRANCH   4   5
ATOM      5  C   UNL     1       7.984   6.994  18.647  0.00  0.00    +0.000 C 
BRANCH   5   6
ATOM      6  C   UNL     1       7.410   7.780  17.476  0.00  0.00    +0.000 C 
BRANCH   6   7
ATOM      7  N   UNL     1       8.114   9.046  17.375  0.00  0.00    +0.000 NA
ATOM      8  H   UNL     1       8.831   8.990  16.653  0.00  0.00    +0.000 HD
BRANCH   7   9
ATOM      9  C   UNL     1       8.728   9.399  18.648  0.00  0.00    +0.000 C 
BRANCH   9  13
ATOM     10  C   UNL     1      10.365  13.378  18.424  0.00  0.00    +0.000 A 
ATOM     11  C   UNL     1       9.237  13.010  17.670  0.00  0.00    +0.000 A 
ATOM     12  C   UNL     1       8.670  11.754  17.797  0.00  0.00    +0.000 A 
ATOM     13  C   UNL     1       9.290  10.785  18.585  0.00  0.00    +0.000 A 
ATOM     14  C   UNL     1      10.450  11.114  19.285  0.00  0.00    +0.000 A 
ATOM     15  C   UNL     1      10.974  12.397  19.210  0.00  0.00    +0.000 A 
BRANCH  10  17
ATOM     16  C   UNL     1      11.301  15.124  19.925  0.00  0.00    +0.000 C 
ATOM     17  C   UNL     1      10.850  14.827  18.486  0.00  0.00    +0.000 C 
ATOM     18  C   UNL     1       9.752  15.831  18.085  0.00  0.00    +0.000 C 
ATOM     19  C   UNL     1      12.048  15.034  17.525  0.00  0.00    +0.000 C 
ENDBRANCH  10  17
ENDBRANCH   9  13
ENDBRANCH   7   9
ENDBRANCH   6   7
ENDBRANCH   5   6
ENDBRANCH   4   5
ENDBRANCH   3   4
ENDBRANCH   1   3
BRANCH   1  20
ATOM     20  C   UNL     1       5.101   4.022  16.490  0.00  0.00    +0.000 C 
BRANCH  20  21
ATOM     21  C   UNL     1       4.031   3.350  17.365  0.00  0.00    +0.000 C 
BRANCH  21  22
ATOM     22  C   UNL     1       3.825   4.114  18.676  0.00  0.00    +0.000 C 
BRANCH  22  23
ATOM     23  N   UNL     1       3.819   5.558  18.521  0.00  0.00    +0.000 N 
ATOM     24  C   UNL     1       2.668   6.204  18.153  0.00  0.00    +0.000 C 
ATOM     25  O   UNL     1       1.606   5.624  17.927  0.00  0.00    +0.000 OA
ATOM     26  H   UNL     1       4.654   6.097  18.730  0.00  0.00    +0.000 HD
BRANCH  24  27
ATOM     27  C   UNL     1       2.813   7.707  18.015  0.00  0.00    +0.000 C 
BRANCH  27  28
ATOM     28  C   UNL     1       1.789   8.408  18.906  0.00  0.00    +0.000 C 
BRANCH  28  29
ATOM     29  C   UNL     1       1.066   9.543  18.190  0.00  0.00    +0.000 C 
BRANCH  29  30
ATOM     30  C   UNL     1       0.625  10.618  19.190  0.00  0.00    +0.000 C 
BRANCH  30  31
ATOM     31  C   UNL     1      -0.373  11.574  18.546  0.00  0.00    +0.000 C 
BRANCH  31  32
ATOM     32  C   UNL     1      -1.526  10.838  17.867  0.00  0.00    +0.000 C 
BRANCH  32  33
ATOM     33  C   UNL     1      -2.839  11.545  18.151  0.00  0.00    +0.000 C 
ATOM     34  O   UNL     1      -3.184  11.937  19.245  0.00  0.00    +0.000 OA
ATOM     35  N   UNL     1      -3.623  11.704  17.033  0.00  0.00    +0.000 N 
ATOM     36  H   UNL     1      -3.396  11.388  16.097  0.00  0.00    +0.000 HD
BRANCH  35  37
ATOM     37  O   UNL     1      -4.858  12.352  17.224  0.00  0.00    +0.000 OA
ATOM     38  H   UNL     1      -4.719  12.820  18.076  0.00  0.00    +0.000 HD
ENDBRANCH  35  37
ENDBRANCH  32  33
ENDBRANCH  31  32
ENDBRANCH  30  31
ENDBRANCH  29  30
ENDBRANCH  28  29
ENDBRANCH  27  28
ENDBRANCH  24  27
ENDBRANCH  22  23
ENDBRANCH  21  22
ENDBRANCH  20  21
ENDBRANCH   1  20
TORSDOF 20
ENDMDL
MODEL 7
REMARK VINA RESULT:      -6.1      3.430      5.300
REMARK  Name = 
REMARK  23 active torsions:
REMARK  status: ('A' for Active; 'I' for Inactive)
REMARK    1  A    between atoms: C_1  and  C_2
REMARK    2  A    between atoms: C_2  and  C_3
REMARK    3  A    between atoms: C_2  and  C_4
REMARK    4  A    between atoms: C_2  and  C_5
REMARK    5  A    between atoms: C_8  and  C_9
REMARK    6  A    between atoms: C_9  and  N_10
REMARK    7  A    between atoms: N_10  and  C_11
REMARK    8  A    between atoms: C_11  and  C_12
REMARK    9  A    between atoms: C_12  and  C_13
REMARK   10  A    between atoms: C_13  and  C_14
REMARK   11  A    between atoms: C_14  and  N_15
REMARK   12  A    between atoms: N_15  and  C_16
REMARK   13  A    between atoms: C_16  and  C_17
REMARK   14  A    between atoms: C_17  and  C_18
REMARK   15  A    between atoms: C_18  and  N_19
REMARK   16  A    between atoms: C_20  and  C_22
REMARK   17  A    between atoms: C_22  and  C_23
REMARK   18  A    between atoms: C_23  and  C_24
REMARK   19  A    between atoms: C_24  and  C_25
REMARK   20  A    between atoms: C_25  and  C_26
REMARK   21  A    between atoms: C_26  and  C_27
REMARK   22  A    between atoms: C_27  and  C_28
REMARK   23  A    between atoms: N_30  and  O_31
REMARK                            x       y       z     vdW  Elec       q    Type
REMARK                         _______ _______ _______ _____ _____    ______ ____
ROOT
ATOM      1  N   UNL     1       2.414   6.901  19.813  0.00  0.00    +0.000 NA
ATOM      2  H   UNL     1       2.559   7.602  20.540  0.00  0.00    +0.000 HD
ENDROOT
BRANCH   1   3
ATOM      3  C   UNL     1       2.766   5.590  20.345  0.00  0.00    +0.000 C 
BRANCH   3   4
ATOM      4  C   UNL     1       1.500   4.846  20.737  0.00  0.00    +0.000 C 
BRANCH   4   5
ATOM      5  C   UNL     1       1.852   3.635  21.593  0.00  0.00    +0.000 C 
BRANCH   5   6
ATOM      6  C   UNL     1       1.305   2.371  20.946  0.00  0.00    +0.000 C 
BRANCH   6   7
ATOM      7  N   UNL     1       1.494   2.464  19.509  0.00  0.00    +0.000 NA
ATOM      8  H   UNL     1       0.718   2.015  19.025  0.00  0.00    +0.000 HD
BRANCH   7   9
ATOM      9  C   UNL     1       2.748   1.838  19.111  0.00  0.00    +0.000 C 
BRANCH   9  13
ATOM     10  C   UNL     1       5.241   4.637  16.986  0.00  0.00    +0.000 A 
ATOM     11  C   UNL     1       3.978   4.265  16.493  0.00  0.00    +0.000 A 
ATOM     12  C   UNL     1       3.148   3.422  17.213  0.00  0.00    +0.000 A 
ATOM     13  C   UNL     1       3.610   2.822  18.384  0.00  0.00    +0.000 A 
ATOM     14  C   UNL     1       4.889   3.127  18.849  0.00  0.00    +0.000 A 
ATOM     15  C   UNL     1       5.688   4.029  18.161  0.00  0.00    +0.000 A 
BRANCH  10  17
ATOM     16  C   UNL     1       5.122   6.573  15.433  0.00  0.00    +0.000 C 
ATOM     17  C   UNL     1       6.058   5.753  16.336  0.00  0.00    +0.000 C 
ATOM     18  C   UNL     1       7.225   5.209  15.488  0.00  0.00    +0.000 C 
ATOM     19  C   UNL     1       6.660   6.682  17.420  0.00  0.00    +0.000 C 
ENDBRANCH  10  17
ENDBRANCH   9  13
ENDBRANCH   7   9
ENDBRANCH   6   7
ENDBRANCH   5   6
ENDBRANCH   4   5
ENDBRANCH   3   4
ENDBRANCH   1   3
BRANCH   1  20
ATOM     20  C   UNL     1       3.234   7.225  18.647  0.00  0.00    +0.000 C 
BRANCH  20  21
ATOM     21  C   UNL     1       2.375   7.879  17.553  0.00  0.00    +0.000 C 
BRANCH  21  22
ATOM     22  C   UNL     1       2.019   9.325  17.915  0.00  0.00    +0.000 C 
BRANCH  22  23
ATOM     23  N   UNL     1       0.987   9.440  18.931  0.00  0.00    +0.000 N 
ATOM     24  C   UNL     1       0.513  10.675  19.292  0.00  0.00    +0.000 C 
ATOM     25  O   UNL     1       0.924  11.728  18.805  0.00  0.00    +0.000 OA
ATOM     26  H   UNL     1       0.581   8.605  19.343  0.00  0.00    +0.000 HD
BRANCH  24  27
ATOM     27  C   UNL     1      -0.549  10.643  20.372  0.00  0.00    +0.000 C 
BRANCH  27  28
ATOM     28  C   UNL     1      -0.579  11.982  21.106  0.00  0.00    +0.000 C 
BRANCH  28  29
ATOM     29  C   UNL     1      -1.008  11.846  22.562  0.00  0.00    +0.000 C 
BRANCH  29  30
ATOM     30  C   UNL     1      -1.436  13.205  23.129  0.00  0.00    +0.000 C 
BRANCH  30  31
ATOM     31  C   UNL     1      -2.933  13.420  22.936  0.00  0.00    +0.000 C 
BRANCH  31  32
ATOM     32  C   UNL     1      -3.688  13.463  24.263  0.00  0.00    +0.000 C 
BRANCH  32  33
ATOM     33  C   UNL     1      -5.154  13.133  24.043  0.00  0.00    +0.000 C 
ATOM     34  O   UNL     1      -5.945  13.865  23.487  0.00  0.00    +0.000 OA
ATOM     35  N   UNL     1      -5.515  11.904  24.540  0.00  0.00    +0.000 N 
ATOM     36  H   UNL     1      -4.905  11.255  25.023  0.00  0.00    +0.000 HD
BRANCH  35  37
ATOM     37  O   UNL     1      -6.863  11.534  24.372  0.00  0.00    +0.000 OA
ATOM     38  H   UNL     1      -7.040  11.012  25.185  0.00  0.00    +0.000 HD
ENDBRANCH  35  37
ENDBRANCH  32  33
ENDBRANCH  31  32
ENDBRANCH  30  31
ENDBRANCH  29  30
ENDBRANCH  28  29
ENDBRANCH  27  28
ENDBRANCH  24  27
ENDBRANCH  22  23
ENDBRANCH  21  22
ENDBRANCH  20  21
ENDBRANCH   1  20
TORSDOF 20
ENDMDL
MODEL 8
REMARK VINA RESULT:      -6.0      4.152      9.815
REMARK  Name = 
REMARK  23 active torsions:
REMARK  status: ('A' for Active; 'I' for Inactive)
REMARK    1  A    between atoms: C_1  and  C_2
REMARK    2  A    between atoms: C_2  and  C_3
REMARK    3  A    between atoms: C_2  and  C_4
REMARK    4  A    between atoms: C_2  and  C_5
REMARK    5  A    between atoms: C_8  and  C_9
REMARK    6  A    between atoms: C_9  and  N_10
REMARK    7  A    between atoms: N_10  and  C_11
REMARK    8  A    between atoms: C_11  and  C_12
REMARK    9  A    between atoms: C_12  and  C_13
REMARK   10  A    between atoms: C_13  and  C_14
REMARK   11  A    between atoms: C_14  and  N_15
REMARK   12  A    between atoms: N_15  and  C_16
REMARK   13  A    between atoms: C_16  and  C_17
REMARK   14  A    between atoms: C_17  and  C_18
REMARK   15  A    between atoms: C_18  and  N_19
REMARK   16  A    between atoms: C_20  and  C_22
REMARK   17  A    between atoms: C_22  and  C_23
REMARK   18  A    between atoms: C_23  and  C_24
REMARK   19  A    between atoms: C_24  and  C_25
REMARK   20  A    between atoms: C_25  and  C_26
REMARK   21  A    between atoms: C_26  and  C_27
REMARK   22  A    between atoms: C_27  and  C_28
REMARK   23  A    between atoms: N_30  and  O_31
REMARK                            x       y       z     vdW  Elec       q    Type
REMARK                         _______ _______ _______ _____ _____    ______ ____
ROOT
ATOM      1  N   UNL     1       2.370   5.372  20.789  0.00  0.00    +0.000 NA
ATOM      2  H   UNL     1       2.514   5.508  21.790  0.00  0.00    +0.000 HD
ENDROOT
BRANCH   1   3
ATOM      3  C   UNL     1       2.362   6.675  20.133  0.00  0.00    +0.000 C 
BRANCH   3   4
ATOM      4  C   UNL     1       2.444   6.484  18.627  0.00  0.00    +0.000 C 
BRANCH   4   5
ATOM      5  C   UNL     1       1.716   7.621  17.919  0.00  0.00    +0.000 C 
BRANCH   5   6
ATOM      6  C   UNL     1       2.655   8.806  17.749  0.00  0.00    +0.000 C 
BRANCH   6   7
ATOM      7  N   UNL     1       1.968  10.010  18.180  0.00  0.00    +0.000 NA
ATOM      8  H   UNL     1       2.300  10.291  19.102  0.00  0.00    +0.000 HD
BRANCH   7   9
ATOM      9  C   UNL     1       0.527   9.796  18.224  0.00  0.00    +0.000 C 
BRANCH   9  13
ATOM     10  C   UNL     1      -1.370  12.645  20.841  0.00  0.00    +0.000 A 
ATOM     11  C   UNL     1      -1.031  11.356  21.289  0.00  0.00    +0.000 A 
ATOM     12  C   UNL     1      -0.357  10.468  20.469  0.00  0.00    +0.000 A 
ATOM     13  C   UNL     1      -0.117  10.794  19.134  0.00  0.00    +0.000 A 
ATOM     14  C   UNL     1      -0.511  12.043  18.656  0.00  0.00    +0.000 A 
ATOM     15  C   UNL     1      -1.122  12.957  19.502  0.00  0.00    +0.000 A 
BRANCH  10  17
ATOM     16  C   UNL     1      -1.593  15.096  21.184  0.00  0.00    +0.000 C 
ATOM     17  C   UNL     1      -1.883  13.718  21.801  0.00  0.00    +0.000 C 
ATOM     18  C   UNL     1      -1.213  13.635  23.187  0.00  0.00    +0.000 C 
ATOM     19  C   UNL     1      -3.411  13.567  22.010  0.00  0.00    +0.000 C 
ENDBRANCH  10  17
ENDBRANCH   9  13
ENDBRANCH   7   9
ENDBRANCH   6   7
ENDBRANCH   5   6
ENDBRANCH   4   5
ENDBRANCH   3   4
ENDBRANCH   1   3
BRANCH   1  20
ATOM     20  C   UNL     1       1.108   4.671  20.564  0.00  0.00    +0.000 C 
BRANCH  20  21
ATOM     21  C   UNL     1       1.254   3.182  20.917  0.00  0.00    +0.000 C 
BRANCH  21  22
ATOM     22  C   UNL     1       2.541   2.595  20.331  0.00  0.00    +0.000 C 
BRANCH  22  23
ATOM     23  N   UNL     1       2.648   2.734  18.888  0.00  0.00    +0.000 N 
ATOM     24  C   UNL     1       3.745   3.342  18.336  0.00  0.00    +0.000 C 
ATOM     25  O   UNL     1       4.673   3.802  19.002  0.00  0.00    +0.000 OA
ATOM     26  H   UNL     1       1.932   2.341  18.284  0.00  0.00    +0.000 HD
BRANCH  24  27
ATOM     27  C   UNL     1       3.714   3.431  16.824  0.00  0.00    +0.000 C 
BRANCH  27  28
ATOM     28  C   UNL     1       5.097   3.814  16.300  0.00  0.00    +0.000 C 
BRANCH  28  29
ATOM     29  C   UNL     1       5.058   5.010  15.356  0.00  0.00    +0.000 C 
BRANCH  29  30
ATOM     30  C   UNL     1       4.950   6.319  16.146  0.00  0.00    +0.000 C 
BRANCH  30  31
ATOM     31  C   UNL     1       6.134   6.474  17.094  0.00  0.00    +0.000 C 
BRANCH  31  32
ATOM     32  C   UNL     1       7.239   5.458  16.813  0.00  0.00    +0.000 C 
BRANCH  32  33
ATOM     33  C   UNL     1       7.871   4.997  18.114  0.00  0.00    +0.000 C 
ATOM     34  O   UNL     1       8.772   4.190  18.189  0.00  0.00    +0.000 OA
ATOM     35  N   UNL     1       7.320   5.588  19.225  0.00  0.00    +0.000 N 
ATOM     36  H   UNL     1       6.559   6.259  19.227  0.00  0.00    +0.000 HD
BRANCH  35  37
ATOM     37  O   UNL     1       7.858   5.205  20.468  0.00  0.00    +0.000 OA
ATOM     38  H   UNL     1       7.497   5.889  21.073  0.00  0.00    +0.000 HD
ENDBRANCH  35  37
ENDBRANCH  32  33
ENDBRANCH  31  32
ENDBRANCH  30  31
ENDBRANCH  29  30
ENDBRANCH  28  29
ENDBRANCH  27  28
ENDBRANCH  24  27
ENDBRANCH  22  23
ENDBRANCH  21  22
ENDBRANCH  20  21
ENDBRANCH   1  20
TORSDOF 20
ENDMDL
MODEL 9
REMARK VINA RESULT:      -6.0      4.444      8.926
REMARK  Name = 
REMARK  23 active torsions:
REMARK  status: ('A' for Active; 'I' for Inactive)
REMARK    1  A    between atoms: C_1  and  C_2
REMARK    2  A    between atoms: C_2  and  C_3
REMARK    3  A    between atoms: C_2  and  C_4
REMARK    4  A    between atoms: C_2  and  C_5
REMARK    5  A    between atoms: C_8  and  C_9
REMARK    6  A    between atoms: C_9  and  N_10
REMARK    7  A    between atoms: N_10  and  C_11
REMARK    8  A    between atoms: C_11  and  C_12
REMARK    9  A    between atoms: C_12  and  C_13
REMARK   10  A    between atoms: C_13  and  C_14
REMARK   11  A    between atoms: C_14  and  N_15
REMARK   12  A    between atoms: N_15  and  C_16
REMARK   13  A    between atoms: C_16  and  C_17
REMARK   14  A    between atoms: C_17  and  C_18
REMARK   15  A    between atoms: C_18  and  N_19
REMARK   16  A    between atoms: C_20  and  C_22
REMARK   17  A    between atoms: C_22  and  C_23
REMARK   18  A    between atoms: C_23  and  C_24
REMARK   19  A    between atoms: C_24  and  C_25
REMARK   20  A    between atoms: C_25  and  C_26
REMARK   21  A    between atoms: C_26  and  C_27
REMARK   22  A    between atoms: C_27  and  C_28
REMARK   23  A    between atoms: N_30  and  O_31
REMARK                            x       y       z     vdW  Elec       q    Type
REMARK                         _______ _______ _______ _____ _____    ______ ____
ROOT
ATOM      1  N   UNL     1       1.650   3.205  18.039  0.00  0.00    +0.000 NA
ATOM      2  H   UNL     1       1.016   3.953  18.322  0.00  0.00    +0.000 HD
ENDROOT
BRANCH   1   3
ATOM      3  C   UNL     1       1.967   2.389  19.206  0.00  0.00    +0.000 C 
BRANCH   3   4
ATOM      4  C   UNL     1       1.094   2.816  20.375  0.00  0.00    +0.000 C 
BRANCH   4   5
ATOM      5  C   UNL     1       0.923   4.330  20.371  0.00  0.00    +0.000 C 
BRANCH   5   6
ATOM      6  C   UNL     1       2.143   4.987  21.001  0.00  0.00    +0.000 C 
BRANCH   6   7
ATOM      7  N   UNL     1       1.779   6.322  21.439  0.00  0.00    +0.000 NA
ATOM      8  H   UNL     1       0.869   6.304  21.897  0.00  0.00    +0.000 HD
BRANCH   7   9
ATOM      9  C   UNL     1       1.741   7.244  20.311  0.00  0.00    +0.000 C 
BRANCH   9  13
ATOM     10  C   UNL     1      -0.250  10.898  21.428  0.00  0.00    +0.000 A 
ATOM     11  C   UNL     1       0.339  10.747  20.161  0.00  0.00    +0.000 A 
ATOM     12  C   UNL     1       0.915   9.548  19.778  0.00  0.00    +0.000 A 
ATOM     13  C   UNL     1       1.035   8.506  20.697  0.00  0.00    +0.000 A 
ATOM     14  C   UNL     1       0.516   8.666  21.982  0.00  0.00    +0.000 A 
ATOM     15  C   UNL     1      -0.124   9.845  22.337  0.00  0.00    +0.000 A 
BRANCH  10  17
ATOM     16  C   UNL     1      -2.085  12.364  20.615  0.00  0.00    +0.000 C 
ATOM     17  C   UNL     1      -1.105  12.117  21.774  0.00  0.00    +0.000 C 
ATOM     18  C   UNL     1      -0.257  13.385  21.995  0.00  0.00    +0.000 C 
ATOM     19  C   UNL     1      -1.910  11.859  23.073  0.00  0.00    +0.000 C 
ENDBRANCH  10  17
ENDBRANCH   9  13
ENDBRANCH   7   9
ENDBRANCH   6   7
ENDBRANCH   5   6
ENDBRANCH   4   5
ENDBRANCH   3   4
ENDBRANCH   1   3
BRANCH   1  20
ATOM     20  C   UNL     1       2.864   3.780  17.463  0.00  0.00    +0.000 C 
BRANCH  20  21
ATOM     21  C   UNL     1       2.777   5.314  17.454  0.00  0.00    +0.000 C 
BRANCH  21  22
ATOM     22  C   UNL     1       3.981   5.943  18.161  0.00  0.00    +0.000 C 
BRANCH  22  23
ATOM     23  N   UNL     1       5.259   5.617  17.551  0.00  0.00    +0.000 N 
ATOM     24  C   UNL     1       6.174   4.860  18.235  0.00  0.00    +0.000 C 
ATOM     25  O   UNL     1       5.985   4.431  19.373  0.00  0.00    +0.000 OA
ATOM     26  H   UNL     1       5.458   5.910  16.599  0.00  0.00    +0.000 HD
BRANCH  24  27
ATOM     27  C   UNL     1       7.466   4.612  17.482  0.00  0.00    +0.000 C 
BRANCH  27  28
ATOM     28  C   UNL     1       7.156   4.252  16.030  0.00  0.00    +0.000 C 
BRANCH  28  29
ATOM     29  C   UNL     1       7.748   5.245  15.037  0.00  0.00    +0.000 C 
BRANCH  29  30
ATOM     30  C   UNL     1       7.256   4.948  13.616  0.00  0.00    +0.000 C 
BRANCH  30  31
ATOM     31  C   UNL     1       6.239   3.812  13.627  0.00  0.00    +0.000 C 
BRANCH  31  32
ATOM     32  C   UNL     1       5.204   3.950  12.512  0.00  0.00    +0.000 C 
BRANCH  32  33
ATOM     33  C   UNL     1       5.141   2.673  11.693  0.00  0.00    +0.000 C 
ATOM     34  O   UNL     1       4.191   2.339  11.018  0.00  0.00    +0.000 OA
ATOM     35  N   UNL     1       6.280   1.910  11.787  0.00  0.00    +0.000 N 
ATOM     36  H   UNL     1       7.099   2.130  12.343  0.00  0.00    +0.000 HD
BRANCH  35  37
ATOM     37  O   UNL     1       6.289   0.709  11.054  0.00  0.00    +0.000 OA
ATOM     38  H   UNL     1       6.350   1.030  10.127  0.00  0.00    +0.000 HD
ENDBRANCH  35  37
ENDBRANCH  32  33
ENDBRANCH  31  32
ENDBRANCH  30  31
ENDBRANCH  29  30
ENDBRANCH  28  29
ENDBRANCH  27  28
ENDBRANCH  24  27
ENDBRANCH  22  23
ENDBRANCH  21  22
ENDBRANCH  20  21
ENDBRANCH   1  20
TORSDOF 20
ENDMDL
