MODEL 1
REMARK VINA RESULT:      -8.3      0.000      0.000
REMARK  Name = 
REMARK  5 active torsions:
REMARK  status: ('A' for Active; 'I' for Inactive)
REMARK    1  A    between atoms: C_2  and  C_23
REMARK    2  A    between atoms: N_3  and  N_4
REMARK    3  A    between atoms: N_8  and  C_9
REMARK    4  A    between atoms: C_9  and  N_10
REMARK    5  A    between atoms: C_26  and  O_27
REMARK                            x       y       z     vdW  Elec       q    Type
REMARK                         _______ _______ _______ _____ _____    ______ ____
ROOT
ATOM      1  N   UNL     1       1.427   7.795  20.214  0.00  0.00    +0.000 NA
ATOM      2  C   UNL     1       2.316   7.151  19.517  0.00  0.00    +0.000 C 
ATOM      3  C   UNL     1       3.097   7.606  18.280  0.00  0.00    +0.000 C 
ATOM      4  O   UNL     1       2.954   8.698  17.767  0.00  0.00    +0.000 OA
ATOM      5  N   UNL     1       3.871   6.516  17.886  0.00  0.00    +0.000 N 
ATOM      6  C   UNL     1       3.603   5.421  18.745  0.00  0.00    +0.000 A 
ATOM      7  C   UNL     1       4.080   4.125  18.688  0.00  0.00    +0.000 A 
ATOM      8  C   UNL     1       3.673   3.221  19.680  0.00  0.00    +0.000 A 
ATOM      9  C   UNL     1       2.762   3.603  20.680  0.00  0.00    +0.000 A 
ATOM     10 CL   UNL     1       2.279   2.454  21.866  0.00  0.00    +0.000 Cl
ATOM     11  C   UNL     1       2.244   4.892  20.718  0.00  0.00    +0.000 A 
ATOM     12  C   UNL     1       2.702   5.771  19.753  0.00  0.00    +0.000 A 
ENDROOT
BRANCH   1  15
ATOM     13  O   UNL     1       1.037  10.033  21.923  0.00  0.00    +0.000 OA
ATOM     14  C   UNL     1       0.953  10.098  20.702  0.00  0.00    +0.000 C 
ATOM     15  N   UNL     1       1.160   9.066  19.801  0.00  0.00    +0.000 N 
ATOM     16  H   UNL     1       1.154   9.256  18.798  0.00  0.00    +0.000 HD
BRANCH  14  17
ATOM     17  C   UNL     1       0.653  11.398  20.038  0.00  0.00    +0.000 A 
ATOM     18  C   UNL     1      -0.344  11.455  19.058  0.00  0.00    +0.000 A 
ATOM     19  C   UNL     1      -0.722  12.690  18.522  0.00  0.00    +0.000 A 
ATOM     20  C   UNL     1      -0.088  13.852  18.959  0.00  0.00    +0.000 A 
ATOM     21  C   UNL     1       0.941  13.799  19.892  0.00  0.00    +0.000 A 
ATOM     22  C   UNL     1       1.321  12.571  20.426  0.00  0.00    +0.000 A 
BRANCH  20  23
ATOM     23  O   UNL     1      -0.456  15.081  18.498  0.00  0.00    +0.000 OA
ATOM     24  H   UNL     1      -0.343  15.098  17.534  0.00  0.00    +0.000 HD
ENDBRANCH  20  23
ENDBRANCH  14  17
ENDBRANCH   1  15
BRANCH   5  25
ATOM     25  C   UNL     1       4.412   6.396  16.552  0.00  0.00    +0.000 C 
BRANCH  25  26
ATOM     26  N   UNL     1       5.849   6.548  16.376  0.00  0.00    +0.000 NA
ATOM     27  C   UNL     1       6.588   5.533  15.632  0.00  0.00    +0.000 C 
ATOM     28  C   UNL     1       7.059   4.370  16.512  0.00  0.00    +0.000 C 
ATOM     29  O   UNL     1       7.869   4.842  17.595  0.00  0.00    +0.000 OA
ATOM     30  C   UNL     1       7.185   5.822  18.389  0.00  0.00    +0.000 C 
ATOM     31  C   UNL     1       6.628   6.976  17.543  0.00  0.00    +0.000 C 
ENDBRANCH  25  26
ENDBRANCH   5  25
TORSDOF 5
ENDMDL
MODEL 2
REMARK VINA RESULT:      -8.2      2.942      4.912
REMARK  Name = 
REMARK  5 active torsions:
REMARK  status: ('A' for Active; 'I' for Inactive)
REMARK    1  A    between atoms: C_2  and  C_23
REMARK    2  A    between atoms: N_3  and  N_4
REMARK    3  A    between atoms: N_8  and  C_9
REMARK    4  A    between atoms: C_9  and  N_10
REMARK    5  A    between atoms: C_26  and  O_27
REMARK                            x       y       z     vdW  Elec       q    Type
REMARK                         _______ _______ _______ _____ _____    ______ ____
ROOT
ATOM      1  N   UNL     1       3.323   7.662  17.585  0.00  0.00    +0.000 NA
ATOM      2  C   UNL     1       3.682   6.426  17.773  0.00  0.00    +0.000 C 
ATOM      3  C   UNL     1       3.366   5.488  18.942  0.00  0.00    +0.000 C 
ATOM      4  O   UNL     1       2.702   5.823  19.903  0.00  0.00    +0.000 OA
ATOM      5  N   UNL     1       4.044   4.299  18.681  0.00  0.00    +0.000 N 
ATOM      6  C   UNL     1       4.781   4.439  17.479  0.00  0.00    +0.000 A 
ATOM      7  C   UNL     1       5.651   3.549  16.877  0.00  0.00    +0.000 A 
ATOM      8  C   UNL     1       6.250   3.921  15.664  0.00  0.00    +0.000 A 
ATOM      9  C   UNL     1       6.014   5.187  15.097  0.00  0.00    +0.000 A 
ATOM     10 CL   UNL     1       6.784   5.604  13.616  0.00  0.00    +0.000 Cl
ATOM     11  C   UNL     1       5.175   6.103  15.719  0.00  0.00    +0.000 A 
ATOM     12  C   UNL     1       4.565   5.686  16.889  0.00  0.00    +0.000 A 
ENDROOT
BRANCH   1  15
ATOM     13  O   UNL     1       1.846  10.080  17.354  0.00  0.00    +0.000 OA
ATOM     14  C   UNL     1       1.870   9.403  18.376  0.00  0.00    +0.000 C 
ATOM     15  N   UNL     1       2.534   8.201  18.559  0.00  0.00    +0.000 N 
ATOM     16  H   UNL     1       2.409   7.676  19.424  0.00  0.00    +0.000 HD
BRANCH  14  17
ATOM     17  C   UNL     1       1.085   9.821  19.572  0.00  0.00    +0.000 A 
ATOM     18  C   UNL     1       1.002   8.961  20.673  0.00  0.00    +0.000 A 
ATOM     19  C   UNL     1       0.378   9.394  21.847  0.00  0.00    +0.000 A 
ATOM     20  C   UNL     1      -0.170  10.675  21.903  0.00  0.00    +0.000 A 
ATOM     21  C   UNL     1      -0.140  11.515  20.797  0.00  0.00    +0.000 A 
ATOM     22  C   UNL     1       0.478  11.086  19.625  0.00  0.00    +0.000 A 
BRANCH  20  23
ATOM     23  O   UNL     1      -0.746  11.156  23.041  0.00  0.00    +0.000 OA
ATOM     24  H   UNL     1      -0.900  12.108  22.933  0.00  0.00    +0.000 HD
ENDBRANCH  20  23
ENDBRANCH  14  17
ENDBRANCH   1  15
BRANCH   5  25
ATOM     25  C   UNL     1       4.343   3.339  19.719  0.00  0.00    +0.000 C 
BRANCH  25  26
ATOM     26  N   UNL     1       3.364   2.298  19.995  0.00  0.00    +0.000 NA
ATOM     27  C   UNL     1       2.569   1.756  18.897  0.00  0.00    +0.000 C 
ATOM     28  C   UNL     1       1.290   2.557  18.631  0.00  0.00    +0.000 C 
ATOM     29  O   UNL     1       0.477   2.630  19.808  0.00  0.00    +0.000 OA
ATOM     30  C   UNL     1       1.192   3.188  20.920  0.00  0.00    +0.000 C 
ATOM     31  C   UNL     1       2.521   2.466  21.184  0.00  0.00    +0.000 C 
ENDBRANCH  25  26
ENDBRANCH   5  25
TORSDOF 5
ENDMDL
MODEL 3
REMARK VINA RESULT:      -7.8      1.366      1.775
REMARK  Name = 
REMARK  5 active torsions:
REMARK  status: ('A' for Active; 'I' for Inactive)
REMARK    1  A    between atoms: C_2  and  C_23
REMARK    2  A    between atoms: N_3  and  N_4
REMARK    3  A    between atoms: N_8  and  C_9
REMARK    4  A    between atoms: C_9  and  N_10
REMARK    5  A    between atoms: C_26  and  O_27
REMARK                            x       y       z     vdW  Elec       q    Type
REMARK                         _______ _______ _______ _____ _____    ______ ____
ROOT
ATOM      1  N   UNL     1       1.612   7.457  20.452  0.00  0.00    +0.000 NA
ATOM      2  C   UNL     1       2.292   6.584  19.770  0.00  0.00    +0.000 C 
ATOM      3  C   UNL     1       3.138   6.781  18.508  0.00  0.00    +0.000 C 
ATOM      4  O   UNL     1       3.269   7.855  17.955  0.00  0.00    +0.000 OA
ATOM      5  N   UNL     1       3.599   5.516  18.147  0.00  0.00    +0.000 N 
ATOM      6  C   UNL     1       3.078   4.556  19.050  0.00  0.00    +0.000 A 
ATOM      7  C   UNL     1       3.207   3.181  19.036  0.00  0.00    +0.000 A 
ATOM      8  C   UNL     1       2.602   2.445  20.067  0.00  0.00    +0.000 A 
ATOM      9  C   UNL     1       1.840   3.082  21.062  0.00  0.00    +0.000 A 
ATOM     10 CL   UNL     1       1.104   2.136  22.296  0.00  0.00    +0.000 Cl
ATOM     11  C   UNL     1       1.669   4.461  21.057  0.00  0.00    +0.000 A 
ATOM     12  C   UNL     1       2.317   5.160  20.054  0.00  0.00    +0.000 A 
ENDROOT
BRANCH   1  15
ATOM     13  O   UNL     1      -0.407   9.426  20.810  0.00  0.00    +0.000 OA
ATOM     14  C   UNL     1       0.628   9.631  20.185  0.00  0.00    +0.000 C 
ATOM     15  N   UNL     1       1.671   8.740  19.993  0.00  0.00    +0.000 N 
ATOM     16  H   UNL     1       2.527   9.049  19.533  0.00  0.00    +0.000 HD
BRANCH  14  17
ATOM     17  C   UNL     1       0.889  10.970  19.584  0.00  0.00    +0.000 A 
ATOM     18  C   UNL     1       0.188  12.084  20.058  0.00  0.00    +0.000 A 
ATOM     19  C   UNL     1       0.516  13.361  19.592  0.00  0.00    +0.000 A 
ATOM     20  C   UNL     1       1.529  13.509  18.647  0.00  0.00    +0.000 A 
ATOM     21  C   UNL     1       2.193  12.403  18.130  0.00  0.00    +0.000 A 
ATOM     22  C   UNL     1       1.867  11.129  18.590  0.00  0.00    +0.000 A 
BRANCH  20  23
ATOM     23  O   UNL     1       1.913  14.738  18.199  0.00  0.00    +0.000 OA
ATOM     24  H   UNL     1       2.573  15.100  18.812  0.00  0.00    +0.000 HD
ENDBRANCH  20  23
ENDBRANCH  14  17
ENDBRANCH   1  15
BRANCH   5  25
ATOM     25  C   UNL     1       4.064   5.217  16.812  0.00  0.00    +0.000 C 
BRANCH  25  26
ATOM     26  N   UNL     1       5.295   4.454  16.667  0.00  0.00    +0.000 NA
ATOM     27  C   UNL     1       6.487   4.880  17.394  0.00  0.00    +0.000 C 
ATOM     28  C   UNL     1       7.319   5.914  16.627  0.00  0.00    +0.000 C 
ATOM     29  O   UNL     1       7.705   5.410  15.343  0.00  0.00    +0.000 OA
ATOM     30  C   UNL     1       6.572   5.005  14.563  0.00  0.00    +0.000 C 
ATOM     31  C   UNL     1       5.664   4.021  15.315  0.00  0.00    +0.000 C 
ENDBRANCH  25  26
ENDBRANCH   5  25
TORSDOF 5
ENDMDL
MODEL 4
REMARK VINA RESULT:      -7.8      2.866      4.598
REMARK  Name = 
REMARK  5 active torsions:
REMARK  status: ('A' for Active; 'I' for Inactive)
REMARK    1  A    between atoms: C_2  and  C_23
REMARK    2  A    between atoms: N_3  and  N_4
REMARK    3  A    between atoms: N_8  and  C_9
REMARK    4  A    between atoms: C_9  and  N_10
REMARK    5  A    between atoms: C_26  and  O_27
REMARK                            x       y       z     vdW  Elec       q    Type
REMARK                         _______ _______ _______ _____ _____    ______ ____
ROOT
ATOM      1  N   UNL     1       3.102   8.131  17.358  0.00  0.00    +0.000 NA
ATOM      2  C   UNL     1       3.433   6.940  17.763  0.00  0.00    +0.000 C 
ATOM      3  C   UNL     1       2.991   6.181  19.019  0.00  0.00    +0.000 C 
ATOM      4  O   UNL     1       2.232   6.647  19.844  0.00  0.00    +0.000 OA
ATOM      5  N   UNL     1       3.687   4.974  19.009  0.00  0.00    +0.000 N 
ATOM      6  C   UNL     1       4.548   4.943  17.883  0.00  0.00    +0.000 A 
ATOM      7  C   UNL     1       5.472   3.984  17.514  0.00  0.00    +0.000 A 
ATOM      8  C   UNL     1       6.198   4.179  16.330  0.00  0.00    +0.000 A 
ATOM      9  C   UNL     1       6.030   5.345  15.560  0.00  0.00    +0.000 A 
ATOM     10 CL   UNL     1       6.954   5.547  14.124  0.00  0.00    +0.000 Cl
ATOM     11  C   UNL     1       5.134   6.333  15.949  0.00  0.00    +0.000 A 
ATOM     12  C   UNL     1       4.402   6.087  17.096  0.00  0.00    +0.000 A 
ENDROOT
BRANCH   1  15
ATOM     13  O   UNL     1       2.669  10.940  17.336  0.00  0.00    +0.000 OA
ATOM     14  C   UNL     1       2.089  10.177  18.101  0.00  0.00    +0.000 C 
ATOM     15  N   UNL     1       2.218   8.799  18.153  0.00  0.00    +0.000 N 
ATOM     16  H   UNL     1       1.615   8.253  18.769  0.00  0.00    +0.000 HD
BRANCH  14  17
ATOM     17  C   UNL     1       1.085  10.704  19.069  0.00  0.00    +0.000 A 
ATOM     18  C   UNL     1       0.663  12.034  18.965  0.00  0.00    +0.000 A 
ATOM     19  C   UNL     1      -0.369  12.502  19.784  0.00  0.00    +0.000 A 
ATOM     20  C   UNL     1      -0.959  11.640  20.707  0.00  0.00    +0.000 A 
ATOM     21  C   UNL     1      -0.510  10.333  20.854  0.00  0.00    +0.000 A 
ATOM     22  C   UNL     1       0.520   9.865  20.042  0.00  0.00    +0.000 A 
BRANCH  20  23
ATOM     23  O   UNL     1      -1.999  12.039  21.492  0.00  0.00    +0.000 OA
ATOM     24  H   UNL     1      -1.755  11.906  22.423  0.00  0.00    +0.000 HD
ENDBRANCH  20  23
ENDBRANCH  14  17
ENDBRANCH   1  15
BRANCH   5  25
ATOM     25  C   UNL     1       3.871   4.181  20.203  0.00  0.00    +0.000 C 
BRANCH  25  26
ATOM     26  N   UNL     1       3.053   2.987  20.367  0.00  0.00    +0.000 NA
ATOM     27  C   UNL     1       2.971   2.023  19.275  0.00  0.00    +0.000 C 
ATOM     28  C   UNL     1       1.865   2.352  18.267  0.00  0.00    +0.000 C 
ATOM     29  O   UNL     1       0.590   2.439  18.914  0.00  0.00    +0.000 OA
ATOM     30  C   UNL     1       0.595   3.399  19.981  0.00  0.00    +0.000 C 
ATOM     31  C   UNL     1       1.733   3.156  20.983  0.00  0.00    +0.000 C 
ENDBRANCH  25  26
ENDBRANCH   5  25
TORSDOF 5
ENDMDL
MODEL 5
REMARK VINA RESULT:      -7.7      2.705      4.351
REMARK  Name = 
REMARK  5 active torsions:
REMARK  status: ('A' for Active; 'I' for Inactive)
REMARK    1  A    between atoms: C_2  and  C_23
REMARK    2  A    between atoms: N_3  and  N_4
REMARK    3  A    between atoms: N_8  and  C_9
REMARK    4  A    between atoms: C_9  and  N_10
REMARK    5  A    between atoms: C_26  and  O_27
REMARK                            x       y       z     vdW  Elec       q    Type
REMARK                         _______ _______ _______ _____ _____    ______ ____
ROOT
ATOM      1  N   UNL     1       2.600   8.717  17.564  0.00  0.00    +0.000 NA
ATOM      2  C   UNL     1       2.770   7.582  18.177  0.00  0.00    +0.000 C 
ATOM      3  C   UNL     1       2.068   7.036  19.424  0.00  0.00    +0.000 C 
ATOM      4  O   UNL     1       1.216   7.652  20.032  0.00  0.00    +0.000 OA
ATOM      5  N   UNL     1       2.666   5.808  19.700  0.00  0.00    +0.000 N 
ATOM      6  C   UNL     1       3.699   5.572  18.760  0.00  0.00    +0.000 A 
ATOM      7  C   UNL     1       4.600   4.526  18.692  0.00  0.00    +0.000 A 
ATOM      8  C   UNL     1       5.528   4.512  17.640  0.00  0.00    +0.000 A 
ATOM      9  C   UNL     1       5.577   5.561  16.704  0.00  0.00    +0.000 A 
ATOM     10 CL   UNL     1       6.743   5.508  15.440  0.00  0.00    +0.000 Cl
ATOM     11  C   UNL     1       4.703   6.638  16.791  0.00  0.00    +0.000 A 
ATOM     12  C   UNL     1       3.772   6.596  17.813  0.00  0.00    +0.000 A 
ENDROOT
BRANCH   1  15
ATOM     13  O   UNL     1       2.803  11.542  17.801  0.00  0.00    +0.000 OA
ATOM     14  C   UNL     1       1.836  10.903  18.199  0.00  0.00    +0.000 C 
ATOM     15  N   UNL     1       1.645   9.535  18.093  0.00  0.00    +0.000 N 
ATOM     16  H   UNL     1       0.758   9.120  18.377  0.00  0.00    +0.000 HD
BRANCH  14  17
ATOM     17  C   UNL     1       0.679  11.604  18.826  0.00  0.00    +0.000 A 
ATOM     18  C   UNL     1       0.745  12.986  19.035  0.00  0.00    +0.000 A 
ATOM     19  C   UNL     1      -0.379  13.672  19.503  0.00  0.00    +0.000 A 
ATOM     20  C   UNL     1      -1.552  12.969  19.771  0.00  0.00    +0.000 A 
ATOM     21  C   UNL     1      -1.610  11.589  19.618  0.00  0.00    +0.000 A 
ATOM     22  C   UNL     1      -0.491  10.902  19.155  0.00  0.00    +0.000 A 
BRANCH  20  23
ATOM     23  O   UNL     1      -2.686  13.603  20.184  0.00  0.00    +0.000 OA
ATOM     24  H   UNL     1      -3.279  13.708  19.423  0.00  0.00    +0.000 HD
ENDBRANCH  20  23
ENDBRANCH  14  17
ENDBRANCH   1  15
BRANCH   5  25
ATOM     25  C   UNL     1       2.586   5.187  21.003  0.00  0.00    +0.000 C 
BRANCH  25  26
ATOM     26  N   UNL     1       1.815   3.959  21.134  0.00  0.00    +0.000 NA
ATOM     27  C   UNL     1       2.516   2.698  21.358  0.00  0.00    +0.000 C 
ATOM     28  C   UNL     1       2.942   2.010  20.057  0.00  0.00    +0.000 C 
ATOM     29  O   UNL     1       1.814   1.777  19.206  0.00  0.00    +0.000 OA
ATOM     30  C   UNL     1       1.099   2.987  18.919  0.00  0.00    +0.000 C 
ATOM     31  C   UNL     1       0.710   3.755  20.191  0.00  0.00    +0.000 C 
ENDBRANCH  25  26
ENDBRANCH   5  25
TORSDOF 5
ENDMDL
MODEL 6
REMARK VINA RESULT:      -7.7      1.259      1.519
REMARK  Name = 
REMARK  5 active torsions:
REMARK  status: ('A' for Active; 'I' for Inactive)
REMARK    1  A    between atoms: C_2  and  C_23
REMARK    2  A    between atoms: N_3  and  N_4
REMARK    3  A    between atoms: N_8  and  C_9
REMARK    4  A    between atoms: C_9  and  N_10
REMARK    5  A    between atoms: C_26  and  O_27
REMARK                            x       y       z     vdW  Elec       q    Type
REMARK                         _______ _______ _______ _____ _____    ______ ____
ROOT
ATOM      1  N   UNL     1       1.683   7.534  20.308  0.00  0.00    +0.000 NA
ATOM      2  C   UNL     1       2.446   6.681  19.690  0.00  0.00    +0.000 C 
ATOM      3  C   UNL     1       3.392   6.903  18.506  0.00  0.00    +0.000 C 
ATOM      4  O   UNL     1       3.540   7.980  17.965  0.00  0.00    +0.000 OA
ATOM      5  N   UNL     1       3.919   5.652  18.189  0.00  0.00    +0.000 N 
ATOM      6  C   UNL     1       3.348   4.677  19.045  0.00  0.00    +0.000 A 
ATOM      7  C   UNL     1       3.516   3.305  19.045  0.00  0.00    +0.000 A 
ATOM      8  C   UNL     1       2.845   2.552  20.020  0.00  0.00    +0.000 A 
ATOM      9  C   UNL     1       1.981   3.166  20.943  0.00  0.00    +0.000 A 
ATOM     10 CL   UNL     1       1.167   2.199  22.110  0.00  0.00    +0.000 Cl
ATOM     11  C   UNL     1       1.773   4.540  20.921  0.00  0.00    +0.000 A 
ATOM     12  C   UNL     1       2.485   5.258  19.977  0.00  0.00    +0.000 A 
ENDROOT
BRANCH   1  15
ATOM     13  O   UNL     1      -0.361   9.486  20.609  0.00  0.00    +0.000 OA
ATOM     14  C   UNL     1       0.690   9.701  20.016  0.00  0.00    +0.000 C 
ATOM     15  N   UNL     1       1.746   8.818  19.854  0.00  0.00    +0.000 N 
ATOM     16  H   UNL     1       2.613   9.135  19.420  0.00  0.00    +0.000 HD
BRANCH  14  17
ATOM     17  C   UNL     1       0.959  11.043  19.426  0.00  0.00    +0.000 A 
ATOM     18  C   UNL     1       0.196  12.140  19.840  0.00  0.00    +0.000 A 
ATOM     19  C   UNL     1       0.522  13.423  19.390  0.00  0.00    +0.000 A 
ATOM     20  C   UNL     1       1.598  13.594  18.519  0.00  0.00    +0.000 A 
ATOM     21  C   UNL     1       2.327  12.503  18.060  0.00  0.00    +0.000 A 
ATOM     22  C   UNL     1       2.003  11.224  18.505  0.00  0.00    +0.000 A 
BRANCH  20  23
ATOM     23  O   UNL     1       1.981  14.830  18.092  0.00  0.00    +0.000 OA
ATOM     24  H   UNL     1       2.899  14.781  17.780  0.00  0.00    +0.000 HD
ENDBRANCH  20  23
ENDBRANCH  14  17
ENDBRANCH   1  15
BRANCH   5  25
ATOM     25  C   UNL     1       4.507   5.367  16.900  0.00  0.00    +0.000 C 
BRANCH  25  26
ATOM     26  N   UNL     1       5.955   5.244  16.817  0.00  0.00    +0.000 NA
ATOM     27  C   UNL     1       6.679   4.599  17.908  0.00  0.00    +0.000 C 
ATOM     28  C   UNL     1       7.065   5.571  19.029  0.00  0.00    +0.000 C 
ATOM     29  O   UNL     1       7.849   6.655  18.519  0.00  0.00    +0.000 OA
ATOM     30  C   UNL     1       7.176   7.355  17.463  0.00  0.00    +0.000 C 
ATOM     31  C   UNL     1       6.704   6.414  16.345  0.00  0.00    +0.000 C 
ENDBRANCH  25  26
ENDBRANCH   5  25
TORSDOF 5
ENDMDL
MODEL 7
REMARK VINA RESULT:      -7.5      1.043      1.102
REMARK  Name = 
REMARK  5 active torsions:
REMARK  status: ('A' for Active; 'I' for Inactive)
REMARK    1  A    between atoms: C_2  and  C_23
REMARK    2  A    between atoms: N_3  and  N_4
REMARK    3  A    between atoms: N_8  and  C_9
REMARK    4  A    between atoms: C_9  and  N_10
REMARK    5  A    between atoms: C_26  and  O_27
REMARK                            x       y       z     vdW  Elec       q    Type
REMARK                         _______ _______ _______ _____ _____    ______ ____
ROOT
ATOM      1  N   UNL     1       1.595   7.591  19.594  0.00  0.00    +0.000 NA
ATOM      2  C   UNL     1       2.477   6.980  18.857  0.00  0.00    +0.000 C 
ATOM      3  C   UNL     1       3.467   7.560  17.843  0.00  0.00    +0.000 C 
ATOM      4  O   UNL     1       3.539   8.745  17.587  0.00  0.00    +0.000 OA
ATOM      5  N   UNL     1       4.136   6.472  17.285  0.00  0.00    +0.000 N 
ATOM      6  C   UNL     1       3.614   5.274  17.836  0.00  0.00    +0.000 A 
ATOM      7  C   UNL     1       3.920   3.962  17.527  0.00  0.00    +0.000 A 
ATOM      8  C   UNL     1       3.269   2.942  18.237  0.00  0.00    +0.000 A 
ATOM      9  C   UNL     1       2.292   3.240  19.203  0.00  0.00    +0.000 A 
ATOM     10 CL   UNL     1       1.510   1.954  20.036  0.00  0.00    +0.000 Cl
ATOM     11  C   UNL     1       1.948   4.556  19.488  0.00  0.00    +0.000 A 
ATOM     12  C   UNL     1       2.642   5.537  18.804  0.00  0.00    +0.000 A 
ENDROOT
BRANCH   1  15
ATOM     13  O   UNL     1      -0.072   9.340  21.090  0.00  0.00    +0.000 OA
ATOM     14  C   UNL     1       0.691   9.727  20.211  0.00  0.00    +0.000 C 
ATOM     15  N   UNL     1       1.556   8.947  19.462  0.00  0.00    +0.000 N 
ATOM     16  H   UNL     1       2.214   9.389  18.820  0.00  0.00    +0.000 HD
BRANCH  14  17
ATOM     17  C   UNL     1       0.794  11.180  19.893  0.00  0.00    +0.000 A 
ATOM     18  C   UNL     1       1.591  11.592  18.819  0.00  0.00    +0.000 A 
ATOM     19  C   UNL     1       1.595  12.936  18.432  0.00  0.00    +0.000 A 
ATOM     20  C   UNL     1       0.814  13.855  19.132  0.00  0.00    +0.000 A 
ATOM     21  C   UNL     1       0.062  13.464  20.233  0.00  0.00    +0.000 A 
ATOM     22  C   UNL     1       0.058  12.127  20.623  0.00  0.00    +0.000 A 
BRANCH  20  23
ATOM     23  O   UNL     1       0.750  15.165  18.762  0.00  0.00    +0.000 OA
ATOM     24  H   UNL     1       0.552  15.701  19.546  0.00  0.00    +0.000 HD
ENDBRANCH  20  23
ENDBRANCH  14  17
ENDBRANCH   1  15
BRANCH   5  25
ATOM     25  C   UNL     1       4.828   6.558  16.020  0.00  0.00    +0.000 C 
BRANCH  25  26
ATOM     26  N   UNL     1       6.283   6.513  16.028  0.00  0.00    +0.000 NA
ATOM     27  C   UNL     1       6.966   5.403  15.372  0.00  0.00    +0.000 C 
ATOM     28  C   UNL     1       7.162   4.193  16.292  0.00  0.00    +0.000 C 
ATOM     29  O   UNL     1       7.885   4.558  17.473  0.00  0.00    +0.000 OA
ATOM     30  C   UNL     1       7.245   5.627  18.185  0.00  0.00    +0.000 C 
ATOM     31  C   UNL     1       6.959   6.840  17.288  0.00  0.00    +0.000 C 
ENDBRANCH  25  26
ENDBRANCH   5  25
TORSDOF 5
ENDMDL
MODEL 8
REMARK VINA RESULT:      -7.5      1.611      1.756
REMARK  Name = 
REMARK  5 active torsions:
REMARK  status: ('A' for Active; 'I' for Inactive)
REMARK    1  A    between atoms: C_2  and  C_23
REMARK    2  A    between atoms: N_3  and  N_4
REMARK    3  A    between atoms: N_8  and  C_9
REMARK    4  A    between atoms: C_9  and  N_10
REMARK    5  A    between atoms: C_26  and  O_27
REMARK                            x       y       z     vdW  Elec       q    Type
REMARK                         _______ _______ _______ _____ _____    ______ ____
ROOT
ATOM      1  N   UNL     1       1.689   7.466  19.182  0.00  0.00    +0.000 NA
ATOM      2  C   UNL     1       2.576   6.807  18.495  0.00  0.00    +0.000 C 
ATOM      3  C   UNL     1       3.752   7.334  17.667  0.00  0.00    +0.000 C 
ATOM      4  O   UNL     1       4.002   8.516  17.543  0.00  0.00    +0.000 OA
ATOM      5  N   UNL     1       4.347   6.218  17.082  0.00  0.00    +0.000 N 
ATOM      6  C   UNL     1       3.616   5.059  17.443  0.00  0.00    +0.000 A 
ATOM      7  C   UNL     1       3.794   3.749  17.039  0.00  0.00    +0.000 A 
ATOM      8  C   UNL     1       2.937   2.768  17.560  0.00  0.00    +0.000 A 
ATOM      9  C   UNL     1       1.888   3.111  18.431  0.00  0.00    +0.000 A 
ATOM     10 CL   UNL     1       0.852   1.876  19.031  0.00  0.00    +0.000 Cl
ATOM     11  C   UNL     1       1.675   4.432  18.808  0.00  0.00    +0.000 A 
ATOM     12  C   UNL     1       2.567   5.366  18.313  0.00  0.00    +0.000 A 
ENDROOT
BRANCH   1  15
ATOM     13  O   UNL     1      -0.104   9.309  20.393  0.00  0.00    +0.000 OA
ATOM     14  C   UNL     1       0.897   9.653  19.775  0.00  0.00    +0.000 C 
ATOM     15  N   UNL     1       1.835   8.822  19.186  0.00  0.00    +0.000 N 
ATOM     16  H   UNL     1       2.681   9.218  18.776  0.00  0.00    +0.000 HD
BRANCH  14  17
ATOM     17  C   UNL     1       1.238  11.099  19.645  0.00  0.00    +0.000 A 
ATOM     18  C   UNL     1       0.965  11.967  20.708  0.00  0.00    +0.000 A 
ATOM     19  C   UNL     1       1.396  13.296  20.649  0.00  0.00    +0.000 A 
ATOM     20  C   UNL     1       2.082  13.746  19.522  0.00  0.00    +0.000 A 
ATOM     21  C   UNL     1       2.310  12.906  18.439  0.00  0.00    +0.000 A 
ATOM     22  C   UNL     1       1.879  11.582  18.494  0.00  0.00    +0.000 A 
BRANCH  20  23
ATOM     23  O   UNL     1       2.561  15.019  19.440  0.00  0.00    +0.000 OA
ATOM     24  H   UNL     1       2.406  15.353  18.542  0.00  0.00    +0.000 HD
ENDBRANCH  20  23
ENDBRANCH  14  17
ENDBRANCH   1  15
BRANCH   5  25
ATOM     25  C   UNL     1       5.202   6.319  15.922  0.00  0.00    +0.000 C 
BRANCH  25  26
ATOM     26  N   UNL     1       6.639   6.188  16.112  0.00  0.00    +0.000 NA
ATOM     27  C   UNL     1       7.245   4.860  16.085  0.00  0.00    +0.000 C 
ATOM     28  C   UNL     1       7.241   4.173  17.455  0.00  0.00    +0.000 C 
ATOM     29  O   UNL     1       7.911   4.975  18.434  0.00  0.00    +0.000 OA
ATOM     30  C   UNL     1       7.340   6.288  18.534  0.00  0.00    +0.000 C 
ATOM     31  C   UNL     1       7.253   6.994  17.173  0.00  0.00    +0.000 C 
ENDBRANCH  25  26
ENDBRANCH   5  25
TORSDOF 5
ENDMDL
MODEL 9
REMARK VINA RESULT:      -7.5      3.058      4.547
REMARK  Name = 
REMARK  5 active torsions:
REMARK  status: ('A' for Active; 'I' for Inactive)
REMARK    1  A    between atoms: C_2  and  C_23
REMARK    2  A    between atoms: N_3  and  N_4
REMARK    3  A    between atoms: N_8  and  C_9
REMARK    4  A    between atoms: C_9  and  N_10
REMARK    5  A    between atoms: C_26  and  O_27
REMARK                            x       y       z     vdW  Elec       q    Type
REMARK                         _______ _______ _______ _____ _____    ______ ____
ROOT
ATOM      1  N   UNL     1       1.971   9.069  18.640  0.00  0.00    +0.000 NA
ATOM      2  C   UNL     1       2.235   7.841  18.975  0.00  0.00    +0.000 C 
ATOM      3  C   UNL     1       1.775   7.046  20.201  0.00  0.00    +0.000 C 
ATOM      4  O   UNL     1       1.065   7.514  21.069  0.00  0.00    +0.000 OA
ATOM      5  N   UNL     1       2.393   5.800  20.112  0.00  0.00    +0.000 N 
ATOM      6  C   UNL     1       3.224   5.775  18.965  0.00  0.00    +0.000 A 
ATOM      7  C   UNL     1       4.077   4.781  18.523  0.00  0.00    +0.000 A 
ATOM      8  C   UNL     1       4.786   4.993  17.331  0.00  0.00    +0.000 A 
ATOM      9  C   UNL     1       4.675   6.205  16.627  0.00  0.00    +0.000 A 
ATOM     10 CL   UNL     1       5.576   6.425  15.179  0.00  0.00    +0.000 Cl
ATOM     11  C   UNL     1       3.852   7.225  17.088  0.00  0.00    +0.000 A 
ATOM     12  C   UNL     1       3.132   6.965  18.240  0.00  0.00    +0.000 A 
ENDROOT
BRANCH   1  15
ATOM     13  O   UNL     1      -0.596  10.095  17.977  0.00  0.00    +0.000 OA
ATOM     14  C   UNL     1      -0.078  10.242  19.079  0.00  0.00    +0.000 C 
ATOM     15  N   UNL     1       1.149   9.748  19.490  0.00  0.00    +0.000 N 
ATOM     16  H   UNL     1       1.441   9.854  20.462  0.00  0.00    +0.000 HD
BRANCH  14  17
ATOM     17  C   UNL     1      -0.803  10.972  20.158  0.00  0.00    +0.000 A 
ATOM     18  C   UNL     1      -0.511  10.685  21.496  0.00  0.00    +0.000 A 
ATOM     19  C   UNL     1      -1.089  11.450  22.513  0.00  0.00    +0.000 A 
ATOM     20  C   UNL     1      -1.964  12.484  22.183  0.00  0.00    +0.000 A 
ATOM     21  C   UNL     1      -2.302  12.741  20.860  0.00  0.00    +0.000 A 
ATOM     22  C   UNL     1      -1.730  11.978  19.844  0.00  0.00    +0.000 A 
BRANCH  20  23
ATOM     23  O   UNL     1      -2.515  13.285  23.138  0.00  0.00    +0.000 OA
ATOM     24  H   UNL     1      -2.034  13.153  23.971  0.00  0.00    +0.000 HD
ENDBRANCH  20  23
ENDBRANCH  14  17
ENDBRANCH   1  15
BRANCH   5  25
ATOM     25  C   UNL     1       2.553   4.935  21.259  0.00  0.00    +0.000 C 
BRANCH  25  26
ATOM     26  N   UNL     1       1.864   3.653  21.254  0.00  0.00    +0.000 NA
ATOM     27  C   UNL     1       2.649   2.422  21.233  0.00  0.00    +0.000 C 
ATOM     28  C   UNL     1       3.009   1.966  19.814  0.00  0.00    +0.000 C 
ATOM     29  O   UNL     1       1.831   1.786  19.020  0.00  0.00    +0.000 OA
ATOM     30  C   UNL     1       1.029   2.975  18.972  0.00  0.00    +0.000 C 
ATOM     31  C   UNL     1       0.701   3.517  20.371  0.00  0.00    +0.000 C 
ENDBRANCH  25  26
ENDBRANCH   5  25
TORSDOF 5
ENDMDL
