MODEL 1
REMARK VINA RESULT:      -7.7      0.000      0.000
REMARK  Name = 
REMARK  4 active torsions:
REMARK  status: ('A' for Active; 'I' for Inactive)
REMARK    1  A    between atoms: C_2  and  C_3
REMARK    2  A    between atoms: C_11  and  C_12
REMARK    3  A    between atoms: C_12  and  O_13
REMARK    4  A    between atoms: C_12  and  C_14
REMARK                            x       y       z     vdW  Elec       q    Type
REMARK                         _______ _______ _______ _____ _____    ______ ____
ROOT
ATOM      1  O   UNL     1       7.440   5.252  13.582  0.00  0.00    +0.000 OA
ATOM      2  C   UNL     1       6.652   4.424  14.036  0.00  0.00    +0.000 C 
ATOM      3  N   UNL     1       6.318   4.409  15.392  0.00  0.00    +0.000 N 
ATOM      4  C   UNL     1       5.376   3.499  16.035  0.00  0.00    +0.000 C 
ATOM      5  C   UNL     1       4.168   4.300  16.524  0.00  0.00    +0.000 C 
ATOM      6  C   UNL     1       4.594   5.376  17.545  0.00  0.00    +0.000 C 
ATOM      7  C   UNL     1       5.681   6.266  16.888  0.00  0.00    +0.000 C 
ATOM      8  C   UNL     1       6.831   5.456  16.276  0.00  0.00    +0.000 C 
ENDROOT
BRANCH   2   9
ATOM      9  C   UNL     1       6.035   3.352  13.127  0.00  0.00    +0.000 C 
ATOM     10  C   UNL     1       4.829   3.828  12.318  0.00  0.00    +0.000 C 
ATOM     11  C   UNL     1       4.657   2.753  11.255  0.00  0.00    +0.000 C 
ATOM     12  C   UNL     1       6.060   2.238  10.960  0.00  0.00    +0.000 C 
ATOM     13  C   UNL     1       6.974   2.875  12.008  0.00  0.00    +0.000 C 
ENDBRANCH   2   9
BRANCH   6  14
ATOM     14  C   UNL     1       5.066   4.788  18.906  0.00  0.00    +0.000 C 
BRANCH  14  15
ATOM     15  C   UNL     1       3.954   4.233  19.785  0.00  0.00    +0.000 A 
ATOM     16  C   UNL     1       4.022   2.903  20.243  0.00  0.00    +0.000 A 
ATOM     17  C   UNL     1       2.985   2.354  21.004  0.00  0.00    +0.000 A 
ATOM     18  C   UNL     1       1.884   3.136  21.330  0.00  0.00    +0.000 A 
ATOM     19  F   UNL     1       0.885   2.605  22.047  0.00  0.00    +0.000 F 
ATOM     20  C   UNL     1       1.811   4.463  20.924  0.00  0.00    +0.000 A 
ATOM     21  C   UNL     1       2.842   5.011  20.154  0.00  0.00    +0.000 A 
ENDBRANCH  14  15
BRANCH  14  22
ATOM     22  O   UNL     1       5.766   5.785  19.650  0.00  0.00    +0.000 OA
ATOM     23  H   UNL     1       6.338   6.271  19.034  0.00  0.00    +0.000 HD
ENDBRANCH  14  22
ENDBRANCH   6  14
TORSDOF 4
ENDMDL
MODEL 2
REMARK VINA RESULT:      -7.7      0.254      1.056
REMARK  Name = 
REMARK  4 active torsions:
REMARK  status: ('A' for Active; 'I' for Inactive)
REMARK    1  A    between atoms: C_2  and  C_3
REMARK    2  A    between atoms: C_11  and  C_12
REMARK    3  A    between atoms: C_12  and  O_13
REMARK    4  A    between atoms: C_12  and  C_14
REMARK                            x       y       z     vdW  Elec       q    Type
REMARK                         _______ _______ _______ _____ _____    ______ ____
ROOT
ATOM      1  O   UNL     1       7.412   5.493  13.733  0.00  0.00    +0.000 OA
ATOM      2  C   UNL     1       6.698   4.582  14.150  0.00  0.00    +0.000 C 
ATOM      3  N   UNL     1       6.308   4.521  15.489  0.00  0.00    +0.000 N 
ATOM      4  C   UNL     1       5.443   3.509  16.087  0.00  0.00    +0.000 C 
ATOM      5  C   UNL     1       4.135   4.171  16.522  0.00  0.00    +0.000 C 
ATOM      6  C   UNL     1       4.395   5.280  17.564  0.00  0.00    +0.000 C 
ATOM      7  C   UNL     1       5.406   6.288  16.958  0.00  0.00    +0.000 C 
ATOM      8  C   UNL     1       6.664   5.612  16.397  0.00  0.00    +0.000 C 
ENDROOT
BRANCH   2   9
ATOM      9  C   UNL     1       6.243   3.455  13.211  0.00  0.00    +0.000 C 
ATOM     10  C   UNL     1       4.920   3.726  12.495  0.00  0.00    +0.000 C 
ATOM     11  C   UNL     1       4.891   2.691  11.381  0.00  0.00    +0.000 C 
ATOM     12  C   UNL     1       6.346   2.474  10.983  0.00  0.00    +0.000 C 
ATOM     13  C   UNL     1       7.185   3.225  12.019  0.00  0.00    +0.000 C 
ENDBRANCH   2   9
BRANCH   6  14
ATOM     14  C   UNL     1       4.867   4.737  18.943  0.00  0.00    +0.000 C 
BRANCH  14  15
ATOM     15  C   UNL     1       3.771   4.115  19.797  0.00  0.00    +0.000 A 
ATOM     16  C   UNL     1       2.572   4.819  20.019  0.00  0.00    +0.000 A 
ATOM     17  C   UNL     1       1.574   4.293  20.846  0.00  0.00    +0.000 A 
ATOM     18  C   UNL     1       1.759   3.051  21.439  0.00  0.00    +0.000 A 
ATOM     19  F   UNL     1       0.810   2.554  22.243  0.00  0.00    +0.000 F 
ATOM     20  C   UNL     1       2.917   2.318  21.206  0.00  0.00    +0.000 A 
ATOM     21  C   UNL     1       3.920   2.847  20.387  0.00  0.00    +0.000 A 
ENDBRANCH  14  15
BRANCH  14  22
ATOM     22  O   UNL     1       5.474   5.787  19.697  0.00  0.00    +0.000 OA
ATOM     23  H   UNL     1       4.941   6.589  19.576  0.00  0.00    +0.000 HD
ENDBRANCH  14  22
ENDBRANCH   6  14
TORSDOF 4
ENDMDL
MODEL 3
REMARK VINA RESULT:      -6.8      4.434      8.047
REMARK  Name = 
REMARK  4 active torsions:
REMARK  status: ('A' for Active; 'I' for Inactive)
REMARK    1  A    between atoms: C_2  and  C_3
REMARK    2  A    between atoms: C_11  and  C_12
REMARK    3  A    between atoms: C_12  and  O_13
REMARK    4  A    between atoms: C_12  and  C_14
REMARK                            x       y       z     vdW  Elec       q    Type
REMARK                         _______ _______ _______ _____ _____    ______ ____
ROOT
ATOM      1  O   UNL     1       0.179   7.834  21.612  0.00  0.00    +0.000 OA
ATOM      2  C   UNL     1       1.013   8.043  20.733  0.00  0.00    +0.000 C 
ATOM      3  N   UNL     1       1.886   7.040  20.308  0.00  0.00    +0.000 N 
ATOM      4  C   UNL     1       2.890   7.163  19.256  0.00  0.00    +0.000 C 
ATOM      5  C   UNL     1       2.493   6.264  18.084  0.00  0.00    +0.000 C 
ATOM      6  C   UNL     1       2.413   4.786  18.523  0.00  0.00    +0.000 C 
ATOM      7  C   UNL     1       1.430   4.687  19.718  0.00  0.00    +0.000 C 
ATOM      8  C   UNL     1       1.746   5.684  20.840  0.00  0.00    +0.000 C 
ENDROOT
BRANCH   2   9
ATOM      9  C   UNL     1       1.144   9.434  20.096  0.00  0.00    +0.000 C 
ATOM     10  C   UNL     1       0.149   9.710  18.970  0.00  0.00    +0.000 C 
ATOM     11  C   UNL     1       0.217  11.218  18.785  0.00  0.00    +0.000 C 
ATOM     12  C   UNL     1       0.519  11.789  20.165  0.00  0.00    +0.000 C 
ATOM     13  C   UNL     1       0.827  10.588  21.061  0.00  0.00    +0.000 C 
ENDBRANCH   2   9
BRANCH   6  14
ATOM     14  C   UNL     1       3.799   4.161  18.854  0.00  0.00    +0.000 C 
BRANCH  14  15
ATOM     15  C   UNL     1       4.841   4.291  17.752  0.00  0.00    +0.000 A 
ATOM     16  C   UNL     1       6.141   4.730  18.068  0.00  0.00    +0.000 A 
ATOM     17  C   UNL     1       7.099   4.912  17.064  0.00  0.00    +0.000 A 
ATOM     18  C   UNL     1       6.770   4.637  15.743  0.00  0.00    +0.000 A 
ATOM     19  F   UNL     1       7.682   4.825  14.781  0.00  0.00    +0.000 F 
ATOM     20  C   UNL     1       5.505   4.166  15.410  0.00  0.00    +0.000 A 
ATOM     21  C   UNL     1       4.543   3.993  16.410  0.00  0.00    +0.000 A 
ENDBRANCH  14  15
BRANCH  14  22
ATOM     22  O   UNL     1       3.646   2.775  19.161  0.00  0.00    +0.000 OA
ATOM     23  H   UNL     1       2.696   2.583  19.212  0.00  0.00    +0.000 HD
ENDBRANCH  14  22
ENDBRANCH   6  14
TORSDOF 4
ENDMDL
MODEL 4
REMARK VINA RESULT:      -6.8      0.798      1.158
REMARK  Name = 
REMARK  4 active torsions:
REMARK  status: ('A' for Active; 'I' for Inactive)
REMARK    1  A    between atoms: C_2  and  C_3
REMARK    2  A    between atoms: C_11  and  C_12
REMARK    3  A    between atoms: C_12  and  O_13
REMARK    4  A    between atoms: C_12  and  C_14
REMARK                            x       y       z     vdW  Elec       q    Type
REMARK                         _______ _______ _______ _____ _____    ______ ____
ROOT
ATOM      1  O   UNL     1       8.215   5.592  13.283  0.00  0.00    +0.000 OA
ATOM      2  C   UNL     1       7.283   4.828  13.526  0.00  0.00    +0.000 C 
ATOM      3  N   UNL     1       6.892   4.555  14.839  0.00  0.00    +0.000 N 
ATOM      4  C   UNL     1       5.786   3.694  15.245  0.00  0.00    +0.000 C 
ATOM      5  C   UNL     1       4.706   4.553  15.905  0.00  0.00    +0.000 C 
ATOM      6  C   UNL     1       5.258   5.274  17.154  0.00  0.00    +0.000 C 
ATOM      7  C   UNL     1       6.504   6.094  16.729  0.00  0.00    +0.000 C 
ATOM      8  C   UNL     1       7.531   5.265  15.947  0.00  0.00    +0.000 C 
ENDROOT
BRANCH   2   9
ATOM      9  C   UNL     1       6.538   4.118  12.387  0.00  0.00    +0.000 C 
ATOM     10  C   UNL     1       6.786   2.612  12.313  0.00  0.00    +0.000 C 
ATOM     11  C   UNL     1       5.681   2.106  11.398  0.00  0.00    +0.000 C 
ATOM     12  C   UNL     1       4.491   3.025  11.642  0.00  0.00    +0.000 C 
ATOM     13  C   UNL     1       5.008   4.161  12.528  0.00  0.00    +0.000 C 
ENDBRANCH   2   9
BRANCH   6  14
ATOM     14  C   UNL     1       5.567   4.314  18.338  0.00  0.00    +0.000 C 
BRANCH  14  15
ATOM     15  C   UNL     1       4.394   4.046  19.270  0.00  0.00    +0.000 A 
ATOM     16  C   UNL     1       4.141   2.735  19.717  0.00  0.00    +0.000 A 
ATOM     17  C   UNL     1       3.035   2.456  20.528  0.00  0.00    +0.000 A 
ATOM     18  C   UNL     1       2.189   3.487  20.913  0.00  0.00    +0.000 A 
ATOM     19  F   UNL     1       1.122   3.217  21.676  0.00  0.00    +0.000 F 
ATOM     20  C   UNL     1       2.438   4.796  20.517  0.00  0.00    +0.000 A 
ATOM     21  C   UNL     1       3.537   5.076  19.698  0.00  0.00    +0.000 A 
ENDBRANCH  14  15
BRANCH  14  22
ATOM     22  O   UNL     1       6.644   4.835  19.117  0.00  0.00    +0.000 OA
ATOM     23  H   UNL     1       6.856   4.185  19.807  0.00  0.00    +0.000 HD
ENDBRANCH  14  22
ENDBRANCH   6  14
TORSDOF 4
ENDMDL
MODEL 5
REMARK VINA RESULT:      -6.7      4.653      8.119
REMARK  Name = 
REMARK  4 active torsions:
REMARK  status: ('A' for Active; 'I' for Inactive)
REMARK    1  A    between atoms: C_2  and  C_3
REMARK    2  A    between atoms: C_11  and  C_12
REMARK    3  A    between atoms: C_12  and  O_13
REMARK    4  A    between atoms: C_12  and  C_14
REMARK                            x       y       z     vdW  Elec       q    Type
REMARK                         _______ _______ _______ _____ _____    ______ ____
ROOT
ATOM      1  O   UNL     1       0.142   8.419  21.433  0.00  0.00    +0.000 OA
ATOM      2  C   UNL     1       0.844   8.565  20.434  0.00  0.00    +0.000 C 
ATOM      3  N   UNL     1       1.826   7.631  20.095  0.00  0.00    +0.000 N 
ATOM      4  C   UNL     1       2.693   7.684  18.922  0.00  0.00    +0.000 C 
ATOM      5  C   UNL     1       2.341   6.522  17.993  0.00  0.00    +0.000 C 
ATOM      6  C   UNL     1       2.545   5.165  18.701  0.00  0.00    +0.000 C 
ATOM      7  C   UNL     1       1.708   5.168  20.006  0.00  0.00    +0.000 C 
ATOM      8  C   UNL     1       1.960   6.404  20.880  0.00  0.00    +0.000 C 
ENDROOT
BRANCH   2   9
ATOM      9  C   UNL     1       0.686   9.805  19.542  0.00  0.00    +0.000 C 
ATOM     10  C   UNL     1      -0.740  10.050  19.049  0.00  0.00    +0.000 C 
ATOM     11  C   UNL     1      -0.708  11.484  18.542  0.00  0.00    +0.000 C 
ATOM     12  C   UNL     1       0.304  12.209  19.421  0.00  0.00    +0.000 C 
ATOM     13  C   UNL     1       0.982  11.129  20.266  0.00  0.00    +0.000 C 
ENDBRANCH   2   9
BRANCH   6  14
ATOM     14  C   UNL     1       4.039   4.823  18.967  0.00  0.00    +0.000 C 
BRANCH  14  15
ATOM     15  C   UNL     1       4.946   4.916  17.748  0.00  0.00    +0.000 A 
ATOM     16  C   UNL     1       4.757   4.032  16.668  0.00  0.00    +0.000 A 
ATOM     17  C   UNL     1       5.613   4.060  15.561  0.00  0.00    +0.000 A 
ATOM     18  C   UNL     1       6.648   4.984  15.518  0.00  0.00    +0.000 A 
ATOM     19  F   UNL     1       7.476   5.000  14.466  0.00  0.00    +0.000 F 
ATOM     20  C   UNL     1       6.833   5.892  16.554  0.00  0.00    +0.000 A 
ATOM     21  C   UNL     1       5.985   5.859  17.665  0.00  0.00    +0.000 A 
ENDBRANCH  14  15
BRANCH  14  22
ATOM     22  O   UNL     1       4.148   3.504  19.503  0.00  0.00    +0.000 OA
ATOM     23  H   UNL     1       4.082   3.567  20.469  0.00  0.00    +0.000 HD
ENDBRANCH  14  22
ENDBRANCH   6  14
TORSDOF 4
ENDMDL
MODEL 6
REMARK VINA RESULT:      -6.7      0.810      1.510
REMARK  Name = 
REMARK  4 active torsions:
REMARK  status: ('A' for Active; 'I' for Inactive)
REMARK    1  A    between atoms: C_2  and  C_3
REMARK    2  A    between atoms: C_11  and  C_12
REMARK    3  A    between atoms: C_12  and  O_13
REMARK    4  A    between atoms: C_12  and  C_14
REMARK                            x       y       z     vdW  Elec       q    Type
REMARK                         _______ _______ _______ _____ _____    ______ ____
ROOT
ATOM      1  O   UNL     1       8.168   5.577  13.409  0.00  0.00    +0.000 OA
ATOM      2  C   UNL     1       7.231   4.802  13.598  0.00  0.00    +0.000 C 
ATOM      3  N   UNL     1       6.806   4.480  14.889  0.00  0.00    +0.000 N 
ATOM      4  C   UNL     1       5.692   3.602  15.232  0.00  0.00    +0.000 C 
ATOM      5  C   UNL     1       4.592   4.433  15.893  0.00  0.00    +0.000 C 
ATOM      6  C   UNL     1       5.107   5.108  17.183  0.00  0.00    +0.000 C 
ATOM      7  C   UNL     1       6.361   5.946  16.823  0.00  0.00    +0.000 C 
ATOM      8  C   UNL     1       7.412   5.150  16.039  0.00  0.00    +0.000 C 
ENDROOT
BRANCH   2   9
ATOM      9  C   UNL     1       6.520   4.133  12.413  0.00  0.00    +0.000 C 
ATOM     10  C   UNL     1       6.771   2.631  12.293  0.00  0.00    +0.000 C 
ATOM     11  C   UNL     1       5.694   2.158  11.329  0.00  0.00    +0.000 C 
ATOM     12  C   UNL     1       4.496   3.068  11.571  0.00  0.00    +0.000 C 
ATOM     13  C   UNL     1       4.986   4.171  12.512  0.00  0.00    +0.000 C 
ENDBRANCH   2   9
BRANCH   6  14
ATOM     14  C   UNL     1       5.387   4.105  18.339  0.00  0.00    +0.000 C 
BRANCH  14  15
ATOM     15  C   UNL     1       4.168   3.729  19.170  0.00  0.00    +0.000 A 
ATOM     16  C   UNL     1       2.948   4.402  18.966  0.00  0.00    +0.000 A 
ATOM     17  C   UNL     1       1.831   4.113  19.758  0.00  0.00    +0.000 A 
ATOM     18  C   UNL     1       1.920   3.138  20.742  0.00  0.00    +0.000 A 
ATOM     19  F   UNL     1       0.854   2.873  21.509  0.00  0.00    +0.000 F 
ATOM     20  C   UNL     1       3.101   2.433  20.938  0.00  0.00    +0.000 A 
ATOM     21  C   UNL     1       4.222   2.726  20.155  0.00  0.00    +0.000 A 
ENDBRANCH  14  15
BRANCH  14  22
ATOM     22  O   UNL     1       6.377   4.640  19.217  0.00  0.00    +0.000 OA
ATOM     23  H   UNL     1       7.181   4.104  19.124  0.00  0.00    +0.000 HD
ENDBRANCH  14  22
ENDBRANCH   6  14
TORSDOF 4
ENDMDL
MODEL 7
REMARK VINA RESULT:      -6.7      5.178      8.321
REMARK  Name = 
REMARK  4 active torsions:
REMARK  status: ('A' for Active; 'I' for Inactive)
REMARK    1  A    between atoms: C_2  and  C_3
REMARK    2  A    between atoms: C_11  and  C_12
REMARK    3  A    between atoms: C_12  and  O_13
REMARK    4  A    between atoms: C_12  and  C_14
REMARK                            x       y       z     vdW  Elec       q    Type
REMARK                         _______ _______ _______ _____ _____    ______ ____
ROOT
ATOM      1  O   UNL     1      -0.099   9.599  20.988  0.00  0.00    +0.000 OA
ATOM      2  C   UNL     1       0.402   9.599  19.865  0.00  0.00    +0.000 C 
ATOM      3  N   UNL     1       1.478   8.765  19.550  0.00  0.00    +0.000 N 
ATOM      4  C   UNL     1       2.130   8.658  18.249  0.00  0.00    +0.000 C 
ATOM      5  C   UNL     1       1.863   7.266  17.674  0.00  0.00    +0.000 C 
ATOM      6  C   UNL     1       2.423   6.166  18.602  0.00  0.00    +0.000 C 
ATOM      7  C   UNL     1       1.809   6.363  20.013  0.00  0.00    +0.000 C 
ATOM      8  C   UNL     1       1.957   7.797  20.538  0.00  0.00    +0.000 C 
ENDROOT
BRANCH   2   9
ATOM      9  C   UNL     1      -0.119  10.549  18.777  0.00  0.00    +0.000 C 
ATOM     10  C   UNL     1      -1.593  10.353  18.421  0.00  0.00    +0.000 C 
ATOM     11  C   UNL     1      -1.950  11.613  17.648  0.00  0.00    +0.000 C 
ATOM     12  C   UNL     1      -1.089  12.720  18.242  0.00  0.00    +0.000 C 
ATOM     13  C   UNL     1      -0.108  12.029  19.192  0.00  0.00    +0.000 C 
ENDBRANCH   2   9
BRANCH   6  14
ATOM     14  C   UNL     1       3.977   6.122  18.643  0.00  0.00    +0.000 C 
BRANCH  14  15
ATOM     15  C   UNL     1       4.632   5.488  17.424  0.00  0.00    +0.000 A 
ATOM     16  C   UNL     1       5.045   6.300  16.350  0.00  0.00    +0.000 A 
ATOM     17  C   UNL     1       5.597   5.735  15.195  0.00  0.00    +0.000 A 
ATOM     18  C   UNL     1       5.760   4.358  15.115  0.00  0.00    +0.000 A 
ATOM     19  F   UNL     1       6.274   3.817  14.004  0.00  0.00    +0.000 F 
ATOM     20  C   UNL     1       5.396   3.538  16.176  0.00  0.00    +0.000 A 
ATOM     21  C   UNL     1       4.835   4.099  17.327  0.00  0.00    +0.000 A 
ENDBRANCH  14  15
BRANCH  14  22
ATOM     22  O   UNL     1       4.412   5.411  19.802  0.00  0.00    +0.000 OA
ATOM     23  H   UNL     1       4.139   5.917  20.584  0.00  0.00    +0.000 HD
ENDBRANCH  14  22
ENDBRANCH   6  14
TORSDOF 4
ENDMDL
MODEL 8
REMARK VINA RESULT:      -6.7      5.192      8.292
REMARK  Name = 
REMARK  4 active torsions:
REMARK  status: ('A' for Active; 'I' for Inactive)
REMARK    1  A    between atoms: C_2  and  C_3
REMARK    2  A    between atoms: C_11  and  C_12
REMARK    3  A    between atoms: C_12  and  O_13
REMARK    4  A    between atoms: C_12  and  C_14
REMARK                            x       y       z     vdW  Elec       q    Type
REMARK                         _______ _______ _______ _____ _____    ______ ____
ROOT
ATOM      1  O   UNL     1      -0.082   9.627  20.995  0.00  0.00    +0.000 OA
ATOM      2  C   UNL     1       0.409   9.632  19.867  0.00  0.00    +0.000 C 
ATOM      3  N   UNL     1       1.481   8.798  19.539  0.00  0.00    +0.000 N 
ATOM      4  C   UNL     1       2.121   8.696  18.232  0.00  0.00    +0.000 C 
ATOM      5  C   UNL     1       1.847   7.308  17.653  0.00  0.00    +0.000 C 
ATOM      6  C   UNL     1       2.414   6.203  18.571  0.00  0.00    +0.000 C 
ATOM      7  C   UNL     1       1.814   6.394  19.988  0.00  0.00    +0.000 C 
ATOM      8  C   UNL     1       1.968   7.826  20.518  0.00  0.00    +0.000 C 
ENDROOT
BRANCH   2   9
ATOM      9  C   UNL     1      -0.121  10.587  18.789  0.00  0.00    +0.000 C 
ATOM     10  C   UNL     1      -1.587  10.368  18.417  0.00  0.00    +0.000 C 
ATOM     11  C   UNL     1      -1.963  11.632  17.659  0.00  0.00    +0.000 C 
ATOM     12  C   UNL     1      -1.128  12.747  18.277  0.00  0.00    +0.000 C 
ATOM     13  C   UNL     1      -0.142  12.061  19.225  0.00  0.00    +0.000 C 
ENDBRANCH   2   9
BRANCH   6  14
ATOM     14  C   UNL     1       3.969   6.156  18.597  0.00  0.00    +0.000 C 
BRANCH  14  15
ATOM     15  C   UNL     1       4.613   5.525  17.371  0.00  0.00    +0.000 A 
ATOM     16  C   UNL     1       4.770   4.127  17.305  0.00  0.00    +0.000 A 
ATOM     17  C   UNL     1       5.410   3.529  16.214  0.00  0.00    +0.000 A 
ATOM     18  C   UNL     1       5.878   4.321  15.174  0.00  0.00    +0.000 A 
ATOM     19  F   UNL     1       6.503   3.749  14.138  0.00  0.00    +0.000 F 
ATOM     20  C   UNL     1       5.701   5.699  15.197  0.00  0.00    +0.000 A 
ATOM     21  C   UNL     1       5.070   6.300  16.291  0.00  0.00    +0.000 A 
ENDBRANCH  14  15
BRANCH  14  22
ATOM     22  O   UNL     1       4.414   5.442  19.750  0.00  0.00    +0.000 OA
ATOM     23  H   UNL     1       5.358   5.631  19.874  0.00  0.00    +0.000 HD
ENDBRANCH  14  22
ENDBRANCH   6  14
TORSDOF 4
ENDMDL
MODEL 9
REMARK VINA RESULT:      -6.7      2.984      7.513
REMARK  Name = 
REMARK  4 active torsions:
REMARK  status: ('A' for Active; 'I' for Inactive)
REMARK    1  A    between atoms: C_2  and  C_3
REMARK    2  A    between atoms: C_11  and  C_12
REMARK    3  A    between atoms: C_12  and  O_13
REMARK    4  A    between atoms: C_12  and  C_14
REMARK                            x       y       z     vdW  Elec       q    Type
REMARK                         _______ _______ _______ _____ _____    ______ ____
ROOT
ATOM      1  O   UNL     1       4.118   6.224  19.094  0.00  0.00    +0.000 OA
ATOM      2  C   UNL     1       3.903   5.328  18.280  0.00  0.00    +0.000 C 
ATOM      3  N   UNL     1       4.566   5.290  17.051  0.00  0.00    +0.000 N 
ATOM      4  C   UNL     1       4.416   4.264  16.025  0.00  0.00    +0.000 C 
ATOM      5  C   UNL     1       5.730   3.493  15.900  0.00  0.00    +0.000 C 
ATOM      6  C   UNL     1       6.887   4.432  15.496  0.00  0.00    +0.000 C 
ATOM      7  C   UNL     1       6.961   5.584  16.532  0.00  0.00    +0.000 C 
ATOM      8  C   UNL     1       5.610   6.274  16.761  0.00  0.00    +0.000 C 
ENDROOT
BRANCH   2   9
ATOM      9  C   UNL     1       2.867   4.235  18.577  0.00  0.00    +0.000 C 
ATOM     10  C   UNL     1       3.395   3.077  19.423  0.00  0.00    +0.000 C 
ATOM     11  C   UNL     1       2.136   2.362  19.889  0.00  0.00    +0.000 C 
ATOM     12  C   UNL     1       1.075   3.447  20.029  0.00  0.00    +0.000 C 
ATOM     13  C   UNL     1       1.688   4.718  19.438  0.00  0.00    +0.000 C 
ENDBRANCH   2   9
BRANCH   6  14
ATOM     14  C   UNL     1       6.774   4.965  14.039  0.00  0.00    +0.000 C 
BRANCH  14  15
ATOM     15  C   UNL     1       6.558   3.893  12.980  0.00  0.00    +0.000 A 
ATOM     16  C   UNL     1       5.249   3.506  12.634  0.00  0.00    +0.000 A 
ATOM     17  C   UNL     1       5.026   2.483  11.705  0.00  0.00    +0.000 A 
ATOM     18  C   UNL     1       6.108   1.857  11.102  0.00  0.00    +0.000 A 
ATOM     19  F   UNL     1       5.894   0.868  10.224  0.00  0.00    +0.000 F 
ATOM     20  C   UNL     1       7.409   2.246  11.397  0.00  0.00    +0.000 A 
ATOM     21  C   UNL     1       7.634   3.261  12.332  0.00  0.00    +0.000 A 
ENDBRANCH  14  15
BRANCH  14  22
ATOM     22  O   UNL     1       7.951   5.697  13.697  0.00  0.00    +0.000 OA
ATOM     23  H   UNL     1       7.947   6.525  14.205  0.00  0.00    +0.000 HD
ENDBRANCH  14  22
ENDBRANCH   6  14
TORSDOF 4
ENDMDL
