MODEL 1
REMARK VINA RESULT:      -8.0      0.000      0.000
REMARK  Name = 
REMARK  7 active torsions:
REMARK  status: ('A' for Active; 'I' for Inactive)
REMARK    1  A    between atoms: C_1  and  O_2
REMARK    2  A    between atoms: O_2  and  C_3
REMARK    3  A    between atoms: C_6  and  C_7
REMARK    4  A    between atoms: C_7  and  C_9
REMARK    5  A    between atoms: C_14  and  C_15
REMARK    6  A    between atoms: C_15  and  O_17
REMARK    7  A    between atoms: C_18  and  O_19
REMARK                            x       y       z     vdW  Elec       q    Type
REMARK                         _______ _______ _______ _____ _____    ______ ____
ROOT
ATOM      1  C   UNL     1       3.192   3.690  17.427  0.00  0.00    +0.000 C 
ATOM      2  O   UNL     1       2.532   3.192  16.518  0.00  0.00    +0.000 OA
ENDROOT
BRANCH   1   6
ATOM      3  C   UNL     1       6.669   6.116  16.724  0.00  0.00    +0.000 A 
ATOM      4  C   UNL     1       5.494   6.651  17.250  0.00  0.00    +0.000 A 
ATOM      5  C   UNL     1       4.364   5.849  17.420  0.00  0.00    +0.000 A 
ATOM      6  C   UNL     1       4.391   4.493  17.059  0.00  0.00    +0.000 A 
ATOM      7  C   UNL     1       5.544   3.987  16.447  0.00  0.00    +0.000 A 
ATOM      8  C   UNL     1       6.686   4.783  16.312  0.00  0.00    +0.000 A 
BRANCH   3  10
ATOM      9  C   UNL     1       7.728   8.048  17.611  0.00  0.00    +0.000 C 
ATOM     10  O   UNL     1       7.718   6.991  16.658  0.00  0.00    +0.000 OA
ENDBRANCH   3  10
BRANCH   7  11
ATOM     11  O   UNL     1       5.666   2.715  15.958  0.00  0.00    +0.000 OA
ATOM     12  H   UNL     1       6.504   2.321  16.256  0.00  0.00    +0.000 HD
ENDBRANCH   7  11
ENDBRANCH   1   6
BRANCH   1  13
ATOM     13  C   UNL     1       2.680   3.571  18.822  0.00  0.00    +0.000 A 
ATOM     14  C   UNL     1       1.581   4.376  19.193  0.00  0.00    +0.000 A 
ATOM     15  C   UNL     1       1.064   4.357  20.489  0.00  0.00    +0.000 A 
ATOM     16  C   UNL     1       1.598   3.492  21.428  0.00  0.00    +0.000 A 
ATOM     17  C   UNL     1       2.651   2.652  21.068  0.00  0.00    +0.000 A 
ATOM     18  C   UNL     1       3.210   2.672  19.770  0.00  0.00    +0.000 A 
BRANCH  18  19
ATOM     19  C   UNL     1       4.374   1.744  19.617  0.00  0.00    +0.000 C 
ATOM     20  O   UNL     1       5.265   1.728  20.456  0.00  0.00    +0.000 OA
BRANCH  19  21
ATOM     21  O   UNL     1       4.332   0.841  18.627  0.00  0.00    +0.000 OA
ATOM     22  H   UNL     1       3.595   0.187  18.685  0.00  0.00    +0.000 HD
ENDBRANCH  19  21
ENDBRANCH  18  19
ENDBRANCH   1  13
TORSDOF 6
ENDMDL
MODEL 2
REMARK VINA RESULT:      -7.9      1.931      2.859
REMARK  Name = 
REMARK  7 active torsions:
REMARK  status: ('A' for Active; 'I' for Inactive)
REMARK    1  A    between atoms: C_1  and  O_2
REMARK    2  A    between atoms: O_2  and  C_3
REMARK    3  A    between atoms: C_6  and  C_7
REMARK    4  A    between atoms: C_7  and  C_9
REMARK    5  A    between atoms: C_14  and  C_15
REMARK    6  A    between atoms: C_15  and  O_17
REMARK    7  A    between atoms: C_18  and  O_19
REMARK                            x       y       z     vdW  Elec       q    Type
REMARK                         _______ _______ _______ _____ _____    ______ ____
ROOT
ATOM      1  C   UNL     1       5.382   4.839  18.960  0.00  0.00    +0.000 C 
ATOM      2  O   UNL     1       6.261   5.108  19.774  0.00  0.00    +0.000 OA
ENDROOT
BRANCH   1   6
ATOM      3  C   UNL     1       6.383   4.516  14.793  0.00  0.00    +0.000 A 
ATOM      4  C   UNL     1       5.063   4.640  15.224  0.00  0.00    +0.000 A 
ATOM      5  C   UNL     1       4.764   4.691  16.587  0.00  0.00    +0.000 A 
ATOM      6  C   UNL     1       5.787   4.614  17.545  0.00  0.00    +0.000 A 
ATOM      7  C   UNL     1       7.099   4.398  17.106  0.00  0.00    +0.000 A 
ATOM      8  C   UNL     1       7.399   4.383  15.740  0.00  0.00    +0.000 A 
BRANCH   3  10
ATOM      9  C   UNL     1       5.907   3.491  12.704  0.00  0.00    +0.000 C 
ATOM     10  O   UNL     1       6.547   4.531  13.436  0.00  0.00    +0.000 OA
ENDBRANCH   3  10
BRANCH   7  11
ATOM     11  O   UNL     1       8.170   4.205  17.935  0.00  0.00    +0.000 OA
ATOM     12  H   UNL     1       8.245   3.264  18.170  0.00  0.00    +0.000 HD
ENDBRANCH   7  11
ENDBRANCH   1   6
BRANCH   1  13
ATOM     13  C   UNL     1       3.994   4.624  19.461  0.00  0.00    +0.000 A 
ATOM     14  C   UNL     1       3.224   5.765  19.780  0.00  0.00    +0.000 A 
ATOM     15  C   UNL     1       1.931   5.655  20.292  0.00  0.00    +0.000 A 
ATOM     16  C   UNL     1       1.357   4.404  20.444  0.00  0.00    +0.000 A 
ATOM     17  C   UNL     1       2.082   3.268  20.087  0.00  0.00    +0.000 A 
ATOM     18  C   UNL     1       3.403   3.351  19.592  0.00  0.00    +0.000 A 
BRANCH  18  19
ATOM     19  C   UNL     1       4.021   2.013  19.338  0.00  0.00    +0.000 C 
ATOM     20  O   UNL     1       3.653   1.334  18.389  0.00  0.00    +0.000 OA
BRANCH  19  21
ATOM     21  O   UNL     1       5.078   1.655  20.082  0.00  0.00    +0.000 OA
ATOM     22  H   UNL     1       5.829   1.256  19.581  0.00  0.00    +0.000 HD
ENDBRANCH  19  21
ENDBRANCH  18  19
ENDBRANCH   1  13
TORSDOF 6
ENDMDL
MODEL 3
REMARK VINA RESULT:      -7.5      2.445      3.708
REMARK  Name = 
REMARK  7 active torsions:
REMARK  status: ('A' for Active; 'I' for Inactive)
REMARK    1  A    between atoms: C_1  and  O_2
REMARK    2  A    between atoms: O_2  and  C_3
REMARK    3  A    between atoms: C_6  and  C_7
REMARK    4  A    between atoms: C_7  and  C_9
REMARK    5  A    between atoms: C_14  and  C_15
REMARK    6  A    between atoms: C_15  and  O_17
REMARK    7  A    between atoms: C_18  and  O_19
REMARK                            x       y       z     vdW  Elec       q    Type
REMARK                         _______ _______ _______ _____ _____    ______ ____
ROOT
ATOM      1  C   UNL     1       5.062   4.570  18.960  0.00  0.00    +0.000 C 
ATOM      2  O   UNL     1       5.807   4.968  19.852  0.00  0.00    +0.000 OA
ENDROOT
BRANCH   1   6
ATOM      3  C   UNL     1       6.473   4.464  14.902  0.00  0.00    +0.000 A 
ATOM      4  C   UNL     1       5.120   4.334  15.213  0.00  0.00    +0.000 A 
ATOM      5  C   UNL     1       4.697   4.320  16.544  0.00  0.00    +0.000 A 
ATOM      6  C   UNL     1       5.627   4.434  17.589  0.00  0.00    +0.000 A 
ATOM      7  C   UNL     1       6.989   4.473  17.270  0.00  0.00    +0.000 A 
ATOM      8  C   UNL     1       7.407   4.522  15.936  0.00  0.00    +0.000 A 
BRANCH   3  10
ATOM      9  C   UNL     1       6.123   3.538  12.743  0.00  0.00    +0.000 C 
ATOM     10  O   UNL     1       6.750   4.517  13.564  0.00  0.00    +0.000 OA
ENDBRANCH   3  10
BRANCH   7  11
ATOM     11  O   UNL     1       8.000   4.481  18.192  0.00  0.00    +0.000 OA
ATOM     12  H   UNL     1       8.358   5.381  18.286  0.00  0.00    +0.000 HD
ENDBRANCH   7  11
ENDBRANCH   1   6
BRANCH   1  13
ATOM     13  C   UNL     1       3.688   4.127  19.330  0.00  0.00    +0.000 A 
ATOM     14  C   UNL     1       3.459   2.741  19.479  0.00  0.00    +0.000 A 
ATOM     15  C   UNL     1       2.194   2.237  19.785  0.00  0.00    +0.000 A 
ATOM     16  C   UNL     1       1.142   3.110  20.004  0.00  0.00    +0.000 A 
ATOM     17  C   UNL     1       1.359   4.484  19.912  0.00  0.00    +0.000 A 
ATOM     18  C   UNL     1       2.624   5.018  19.576  0.00  0.00    +0.000 A 
BRANCH  18  19
ATOM     19  C   UNL     1       2.620   6.510  19.463  0.00  0.00    +0.000 C 
ATOM     20  O   UNL     1       2.759   7.046  18.371  0.00  0.00    +0.000 OA
BRANCH  19  21
ATOM     21  O   UNL     1       2.315   7.224  20.555  0.00  0.00    +0.000 OA
ATOM     22  H   UNL     1       1.359   7.233  20.798  0.00  0.00    +0.000 HD
ENDBRANCH  19  21
ENDBRANCH  18  19
ENDBRANCH   1  13
TORSDOF 6
ENDMDL
MODEL 4
REMARK VINA RESULT:      -7.3      1.993      2.988
REMARK  Name = 
REMARK  7 active torsions:
REMARK  status: ('A' for Active; 'I' for Inactive)
REMARK    1  A    between atoms: C_1  and  O_2
REMARK    2  A    between atoms: O_2  and  C_3
REMARK    3  A    between atoms: C_6  and  C_7
REMARK    4  A    between atoms: C_7  and  C_9
REMARK    5  A    between atoms: C_14  and  C_15
REMARK    6  A    between atoms: C_15  and  O_17
REMARK    7  A    between atoms: C_18  and  O_19
REMARK                            x       y       z     vdW  Elec       q    Type
REMARK                         _______ _______ _______ _____ _____    ______ ____
ROOT
ATOM      1  C   UNL     1       5.291   5.118  19.098  0.00  0.00    +0.000 C 
ATOM      2  O   UNL     1       6.180   5.209  19.941  0.00  0.00    +0.000 OA
ENDROOT
BRANCH   1   6
ATOM      3  C   UNL     1       6.364   4.965  14.939  0.00  0.00    +0.000 A 
ATOM      4  C   UNL     1       7.035   4.209  15.899  0.00  0.00    +0.000 A 
ATOM      5  C   UNL     1       6.699   4.319  17.250  0.00  0.00    +0.000 A 
ATOM      6  C   UNL     1       5.682   5.193  17.663  0.00  0.00    +0.000 A 
ATOM      7  C   UNL     1       5.076   6.013  16.704  0.00  0.00    +0.000 A 
ATOM      8  C   UNL     1       5.391   5.876  15.348  0.00  0.00    +0.000 A 
BRANCH   3  10
ATOM      9  C   UNL     1       6.108   3.649  12.978  0.00  0.00    +0.000 C 
ATOM     10  O   UNL     1       6.751   4.727  13.649  0.00  0.00    +0.000 OA
ENDBRANCH   3  10
BRANCH   7  11
ATOM     11  O   UNL     1       4.146   6.977  16.986  0.00  0.00    +0.000 OA
ATOM     12  H   UNL     1       4.492   7.854  16.749  0.00  0.00    +0.000 HD
ENDBRANCH   7  11
ENDBRANCH   1   6
BRANCH   1  13
ATOM     13  C   UNL     1       3.907   4.806  19.557  0.00  0.00    +0.000 A 
ATOM     14  C   UNL     1       3.090   5.883  19.966  0.00  0.00    +0.000 A 
ATOM     15  C   UNL     1       1.796   5.677  20.447  0.00  0.00    +0.000 A 
ATOM     16  C   UNL     1       1.270   4.397  20.478  0.00  0.00    +0.000 A 
ATOM     17  C   UNL     1       2.044   3.326  20.030  0.00  0.00    +0.000 A 
ATOM     18  C   UNL     1       3.366   3.505  19.565  0.00  0.00    +0.000 A 
BRANCH  18  19
ATOM     19  C   UNL     1       4.039   2.219  19.200  0.00  0.00    +0.000 C 
ATOM     20  O   UNL     1       3.713   1.619  18.185  0.00  0.00    +0.000 OA
BRANCH  19  21
ATOM     21  O   UNL     1       5.096   1.833  19.930  0.00  0.00    +0.000 OA
ATOM     22  H   UNL     1       5.649   2.567  20.290  0.00  0.00    +0.000 HD
ENDBRANCH  19  21
ENDBRANCH  18  19
ENDBRANCH   1  13
TORSDOF 6
ENDMDL
MODEL 5
REMARK VINA RESULT:      -7.2      2.406      5.936
REMARK  Name = 
REMARK  7 active torsions:
REMARK  status: ('A' for Active; 'I' for Inactive)
REMARK    1  A    between atoms: C_1  and  O_2
REMARK    2  A    between atoms: O_2  and  C_3
REMARK    3  A    between atoms: C_6  and  C_7
REMARK    4  A    between atoms: C_7  and  C_9
REMARK    5  A    between atoms: C_14  and  C_15
REMARK    6  A    between atoms: C_15  and  O_17
REMARK    7  A    between atoms: C_18  and  O_19
REMARK                            x       y       z     vdW  Elec       q    Type
REMARK                         _______ _______ _______ _____ _____    ______ ____
ROOT
ATOM      1  C   UNL     1       4.057   6.451  17.667  0.00  0.00    +0.000 C 
ATOM      2  O   UNL     1       3.841   7.651  17.519  0.00  0.00    +0.000 OA
ENDROOT
BRANCH   1   6
ATOM      3  C   UNL     1       1.517   3.906  20.020  0.00  0.00    +0.000 A 
ATOM      4  C   UNL     1       2.050   3.487  18.802  0.00  0.00    +0.000 A 
ATOM      5  C   UNL     1       2.830   4.355  18.034  0.00  0.00    +0.000 A 
ATOM      6  C   UNL     1       3.086   5.662  18.475  0.00  0.00    +0.000 A 
ATOM      7  C   UNL     1       2.473   6.102  19.654  0.00  0.00    +0.000 A 
ATOM      8  C   UNL     1       1.721   5.221  20.438  0.00  0.00    +0.000 A 
BRANCH   3  10
ATOM      9  C   UNL     1       1.416   2.439  21.886  0.00  0.00    +0.000 C 
ATOM     10  O   UNL     1       0.817   2.946  20.699  0.00  0.00    +0.000 OA
ENDBRANCH   3  10
BRANCH   7  11
ATOM     11  O   UNL     1       2.557   7.378  20.140  0.00  0.00    +0.000 OA
ATOM     12  H   UNL     1       3.141   7.913  19.575  0.00  0.00    +0.000 HD
ENDBRANCH   7  11
ENDBRANCH   1   6
BRANCH   1  13
ATOM     13  C   UNL     1       5.195   5.838  16.923  0.00  0.00    +0.000 A 
ATOM     14  C   UNL     1       5.063   5.683  15.526  0.00  0.00    +0.000 A 
ATOM     15  C   UNL     1       6.063   5.084  14.759  0.00  0.00    +0.000 A 
ATOM     16  C   UNL     1       7.240   4.677  15.362  0.00  0.00    +0.000 A 
ATOM     17  C   UNL     1       7.411   4.868  16.733  0.00  0.00    +0.000 A 
ATOM     18  C   UNL     1       6.402   5.447  17.536  0.00  0.00    +0.000 A 
BRANCH  18  19
ATOM     19  C   UNL     1       6.762   5.494  18.988  0.00  0.00    +0.000 C 
ATOM     20  O   UNL     1       6.132   4.832  19.801  0.00  0.00    +0.000 OA
BRANCH  19  21
ATOM     21  O   UNL     1       7.873   6.157  19.340  0.00  0.00    +0.000 OA
ATOM     22  H   UNL     1       7.755   7.126  19.489  0.00  0.00    +0.000 HD
ENDBRANCH  19  21
ENDBRANCH  18  19
ENDBRANCH   1  13
TORSDOF 6
ENDMDL
MODEL 6
REMARK VINA RESULT:      -7.2      2.003      2.462
REMARK  Name = 
REMARK  7 active torsions:
REMARK  status: ('A' for Active; 'I' for Inactive)
REMARK    1  A    between atoms: C_1  and  O_2
REMARK    2  A    between atoms: O_2  and  C_3
REMARK    3  A    between atoms: C_6  and  C_7
REMARK    4  A    between atoms: C_7  and  C_9
REMARK    5  A    between atoms: C_14  and  C_15
REMARK    6  A    between atoms: C_15  and  O_17
REMARK    7  A    between atoms: C_18  and  O_19
REMARK                            x       y       z     vdW  Elec       q    Type
REMARK                         _______ _______ _______ _____ _____    ______ ____
ROOT
ATOM      1  C   UNL     1       4.001   4.993  18.816  0.00  0.00    +0.000 C 
ATOM      2  O   UNL     1       4.083   5.830  19.711  0.00  0.00    +0.000 OA
ENDROOT
BRANCH   1   6
ATOM      3  C   UNL     1       7.000   5.141  15.742  0.00  0.00    +0.000 A 
ATOM      4  C   UNL     1       5.645   5.013  15.440  0.00  0.00    +0.000 A 
ATOM      5  C   UNL     1       4.697   4.916  16.462  0.00  0.00    +0.000 A 
ATOM      6  C   UNL     1       5.095   4.941  17.807  0.00  0.00    +0.000 A 
ATOM      7  C   UNL     1       6.463   4.977  18.100  0.00  0.00    +0.000 A 
ATOM      8  C   UNL     1       7.407   5.111  17.076  0.00  0.00    +0.000 A 
BRANCH   3  10
ATOM      9  C   UNL     1       7.290   4.862  13.401  0.00  0.00    +0.000 C 
ATOM     10  O   UNL     1       7.818   5.280  14.655  0.00  0.00    +0.000 OA
ENDBRANCH   3  10
BRANCH   7  11
ATOM     11  O   UNL     1       6.987   4.905  19.362  0.00  0.00    +0.000 OA
ATOM     12  H   UNL     1       7.959   4.903  19.320  0.00  0.00    +0.000 HD
ENDBRANCH   7  11
ENDBRANCH   1   6
BRANCH   1  13
ATOM     13  C   UNL     1       2.887   4.003  18.871  0.00  0.00    +0.000 A 
ATOM     14  C   UNL     1       1.702   4.303  18.162  0.00  0.00    +0.000 A 
ATOM     15  C   UNL     1       0.597   3.451  18.192  0.00  0.00    +0.000 A 
ATOM     16  C   UNL     1       0.670   2.255  18.885  0.00  0.00    +0.000 A 
ATOM     17  C   UNL     1       1.849   1.917  19.550  0.00  0.00    +0.000 A 
ATOM     18  C   UNL     1       2.972   2.775  19.558  0.00  0.00    +0.000 A 
BRANCH  18  19
ATOM     19  C   UNL     1       4.104   2.254  20.387  0.00  0.00    +0.000 C 
ATOM     20  O   UNL     1       3.941   2.024  21.577  0.00  0.00    +0.000 OA
BRANCH  19  21
ATOM     21  O   UNL     1       5.238   1.912  19.759  0.00  0.00    +0.000 OA
ATOM     22  H   UNL     1       5.668   2.635  19.243  0.00  0.00    +0.000 HD
ENDBRANCH  19  21
ENDBRANCH  18  19
ENDBRANCH   1  13
TORSDOF 6
ENDMDL
MODEL 7
REMARK VINA RESULT:      -7.2      2.325      3.554
REMARK  Name = 
REMARK  7 active torsions:
REMARK  status: ('A' for Active; 'I' for Inactive)
REMARK    1  A    between atoms: C_1  and  O_2
REMARK    2  A    between atoms: O_2  and  C_3
REMARK    3  A    between atoms: C_6  and  C_7
REMARK    4  A    between atoms: C_7  and  C_9
REMARK    5  A    between atoms: C_14  and  C_15
REMARK    6  A    between atoms: C_15  and  O_17
REMARK    7  A    between atoms: C_18  and  O_19
REMARK                            x       y       z     vdW  Elec       q    Type
REMARK                         _______ _______ _______ _____ _____    ______ ____
ROOT
ATOM      1  C   UNL     1       5.007   4.066  18.580  0.00  0.00    +0.000 C 
ATOM      2  O   UNL     1       5.669   4.194  19.607  0.00  0.00    +0.000 OA
ENDROOT
BRANCH   1   6
ATOM      3  C   UNL     1       6.775   4.814  14.735  0.00  0.00    +0.000 A 
ATOM      4  C   UNL     1       5.432   4.465  14.871  0.00  0.00    +0.000 A 
ATOM      5  C   UNL     1       4.897   4.177  16.129  0.00  0.00    +0.000 A 
ATOM      6  C   UNL     1       5.705   4.231  17.275  0.00  0.00    +0.000 A 
ATOM      7  C   UNL     1       7.071   4.493  17.119  0.00  0.00    +0.000 A 
ATOM      8  C   UNL     1       7.595   4.815  15.863  0.00  0.00    +0.000 A 
BRANCH   3  10
ATOM      9  C   UNL     1       6.903   4.143  12.460  0.00  0.00    +0.000 C 
ATOM     10  O   UNL     1       7.160   5.123  13.460  0.00  0.00    +0.000 OA
ENDBRANCH   3  10
BRANCH   7  11
ATOM     11  O   UNL     1       7.984   4.475  18.138  0.00  0.00    +0.000 OA
ATOM     12  H   UNL     1       8.108   3.566  18.460  0.00  0.00    +0.000 HD
ENDBRANCH   7  11
ENDBRANCH   1   6
BRANCH   1  13
ATOM     13  C   UNL     1       3.587   3.627  18.702  0.00  0.00    +0.000 A 
ATOM     14  C   UNL     1       3.320   2.240  18.666  0.00  0.00    +0.000 A 
ATOM     15  C   UNL     1       2.017   1.745  18.733  0.00  0.00    +0.000 A 
ATOM     16  C   UNL     1       0.957   2.620  18.895  0.00  0.00    +0.000 A 
ATOM     17  C   UNL     1       1.204   3.989  18.985  0.00  0.00    +0.000 A 
ATOM     18  C   UNL     1       2.512   4.518  18.891  0.00  0.00    +0.000 A 
BRANCH  18  19
ATOM     19  C   UNL     1       2.546   6.013  18.941  0.00  0.00    +0.000 C 
ATOM     20  O   UNL     1       2.351   6.600  19.997  0.00  0.00    +0.000 OA
BRANCH  19  21
ATOM     21  O   UNL     1       2.939   6.671  17.841  0.00  0.00    +0.000 OA
ATOM     22  H   UNL     1       3.906   6.861  17.787  0.00  0.00    +0.000 HD
ENDBRANCH  19  21
ENDBRANCH  18  19
ENDBRANCH   1  13
TORSDOF 6
ENDMDL
MODEL 8
REMARK VINA RESULT:      -7.2      1.881      2.816
REMARK  Name = 
REMARK  7 active torsions:
REMARK  status: ('A' for Active; 'I' for Inactive)
REMARK    1  A    between atoms: C_1  and  O_2
REMARK    2  A    between atoms: O_2  and  C_3
REMARK    3  A    between atoms: C_6  and  C_7
REMARK    4  A    between atoms: C_7  and  C_9
REMARK    5  A    between atoms: C_14  and  C_15
REMARK    6  A    between atoms: C_15  and  O_17
REMARK    7  A    between atoms: C_18  and  O_19
REMARK                            x       y       z     vdW  Elec       q    Type
REMARK                         _______ _______ _______ _____ _____    ______ ____
ROOT
ATOM      1  C   UNL     1       3.344   5.685  19.151  0.00  0.00    +0.000 C 
ATOM      2  O   UNL     1       3.138   6.831  19.543  0.00  0.00    +0.000 OA
ENDROOT
BRANCH   1   6
ATOM      3  C   UNL     1       6.483   5.456  16.225  0.00  0.00    +0.000 A 
ATOM      4  C   UNL     1       5.390   6.306  16.065  0.00  0.00    +0.000 A 
ATOM      5  C   UNL     1       4.359   6.321  17.007  0.00  0.00    +0.000 A 
ATOM      6  C   UNL     1       4.406   5.478  18.128  0.00  0.00    +0.000 A 
ATOM      7  C   UNL     1       5.461   4.564  18.234  0.00  0.00    +0.000 A 
ATOM      8  C   UNL     1       6.509   4.577  17.307  0.00  0.00    +0.000 A 
BRANCH   3  10
ATOM      9  C   UNL     1       7.220   4.882  14.041  0.00  0.00    +0.000 C 
ATOM     10  O   UNL     1       7.447   5.576  15.263  0.00  0.00    +0.000 OA
ENDBRANCH   3  10
BRANCH   7  11
ATOM     11  O   UNL     1       5.572   3.622  19.219  0.00  0.00    +0.000 OA
ATOM     12  H   UNL     1       4.828   3.698  19.840  0.00  0.00    +0.000 HD
ENDBRANCH   7  11
ENDBRANCH   1   6
BRANCH   1  13
ATOM     13  C   UNL     1       2.615   4.567  19.815  0.00  0.00    +0.000 A 
ATOM     14  C   UNL     1       2.686   4.476  21.223  0.00  0.00    +0.000 A 
ATOM     15  C   UNL     1       2.067   3.439  21.922  0.00  0.00    +0.000 A 
ATOM     16  C   UNL     1       1.316   2.501  21.235  0.00  0.00    +0.000 A 
ATOM     17  C   UNL     1       1.191   2.602  19.850  0.00  0.00    +0.000 A 
ATOM     18  C   UNL     1       1.831   3.626  19.116  0.00  0.00    +0.000 A 
BRANCH  18  19
ATOM     19  C   UNL     1       1.623   3.509  17.639  0.00  0.00    +0.000 C 
ATOM     20  O   UNL     1       0.860   4.271  17.061  0.00  0.00    +0.000 OA
BRANCH  19  21
ATOM     21  O   UNL     1       2.402   2.655  16.960  0.00  0.00    +0.000 OA
ATOM     22  H   UNL     1       2.438   2.804  15.985  0.00  0.00    +0.000 HD
ENDBRANCH  19  21
ENDBRANCH  18  19
ENDBRANCH   1  13
TORSDOF 6
ENDMDL
MODEL 9
REMARK VINA RESULT:      -7.2      1.277      1.987
REMARK  Name = 
REMARK  7 active torsions:
REMARK  status: ('A' for Active; 'I' for Inactive)
REMARK    1  A    between atoms: C_1  and  O_2
REMARK    2  A    between atoms: O_2  and  C_3
REMARK    3  A    between atoms: C_6  and  C_7
REMARK    4  A    between atoms: C_7  and  C_9
REMARK    5  A    between atoms: C_14  and  C_15
REMARK    6  A    between atoms: C_15  and  O_17
REMARK    7  A    between atoms: C_18  and  O_19
REMARK                            x       y       z     vdW  Elec       q    Type
REMARK                         _______ _______ _______ _____ _____    ______ ____
ROOT
ATOM      1  C   UNL     1       2.991   3.633  17.418  0.00  0.00    +0.000 C 
ATOM      2  O   UNL     1       2.168   3.225  16.602  0.00  0.00    +0.000 OA
ENDROOT
BRANCH   1   6
ATOM      3  C   UNL     1       6.511   5.285  15.587  0.00  0.00    +0.000 A 
ATOM      4  C   UNL     1       6.302   3.909  15.669  0.00  0.00    +0.000 A 
ATOM      5  C   UNL     1       5.174   3.400  16.315  0.00  0.00    +0.000 A 
ATOM      6  C   UNL     1       4.235   4.266  16.896  0.00  0.00    +0.000 A 
ATOM      7  C   UNL     1       4.498   5.641  16.889  0.00  0.00    +0.000 A 
ATOM      8  C   UNL     1       5.610   6.149  16.210  0.00  0.00    +0.000 A 
BRANCH   3  10
ATOM      9  C   UNL     1       7.687   5.238  13.524  0.00  0.00    +0.000 C 
ATOM     10  O   UNL     1       7.624   5.655  14.883  0.00  0.00    +0.000 OA
ENDBRANCH   3  10
BRANCH   7  11
ATOM     11  O   UNL     1       3.718   6.581  17.505  0.00  0.00    +0.000 OA
ATOM     12  H   UNL     1       3.764   7.423  17.020  0.00  0.00    +0.000 HD
ENDBRANCH   7  11
ENDBRANCH   1   6
BRANCH   1  13
ATOM     13  C   UNL     1       2.637   3.590  18.865  0.00  0.00    +0.000 A 
ATOM     14  C   UNL     1       1.625   4.462  19.323  0.00  0.00    +0.000 A 
ATOM     15  C   UNL     1       1.258   4.515  20.668  0.00  0.00    +0.000 A 
ATOM     16  C   UNL     1       1.855   3.658  21.577  0.00  0.00    +0.000 A 
ATOM     17  C   UNL     1       2.820   2.753  21.136  0.00  0.00    +0.000 A 
ATOM     18  C   UNL     1       3.229   2.700  19.784  0.00  0.00    +0.000 A 
BRANCH  18  19
ATOM     19  C   UNL     1       4.323   1.709  19.540  0.00  0.00    +0.000 C 
ATOM     20  O   UNL     1       5.256   1.614  20.325  0.00  0.00    +0.000 OA
BRANCH  19  21
ATOM     21  O   UNL     1       4.172   0.840  18.530  0.00  0.00    +0.000 OA
ATOM     22  H   UNL     1       4.425  -0.091  18.735  0.00  0.00    +0.000 HD
ENDBRANCH  19  21
ENDBRANCH  18  19
ENDBRANCH   1  13
TORSDOF 6
ENDMDL
