MODEL 1
REMARK VINA RESULT:      -8.8      0.000      0.000
REMARK  Name = 
REMARK  6 active torsions:
REMARK  status: ('A' for Active; 'I' for Inactive)
REMARK    1  A    between atoms: C_1  and  C_2
REMARK    2  A    between atoms: C_10  and  S_11
REMARK    3  A    between atoms: S_11  and  N_14
REMARK    4  A    between atoms: C_17  and  C_18
REMARK    5  A    between atoms: N_20  and  C_21
REMARK    6  A    between atoms: N_20  and  C_22
REMARK                            x       y       z     vdW  Elec       q    Type
REMARK                         _______ _______ _______ _____ _____    ______ ____
ROOT
ATOM      1  S   UNL     1       0.731   9.087  21.164  0.00  0.00    +0.000 S 
ATOM      2  O   UNL     1      -0.433   8.364  21.652  0.00  0.00    +0.000 OA
ATOM      3  O   UNL     1       1.680   9.651  22.097  0.00  0.00    +0.000 OA
ENDROOT
BRANCH   1  13
ATOM      4  C   UNL     1       5.717   4.691  16.212  0.00  0.00    +0.000 C 
ATOM      5  C   UNL     1       4.789   5.745  16.767  0.00  0.00    +0.000 C 
ATOM      6  O   UNL     1       5.076   6.931  16.578  0.00  0.00    +0.000 OA
ATOM      7  N   UNL     1       3.734   5.276  17.562  0.00  0.00    +0.000 N 
ATOM      8  C   UNL     1       3.468   3.848  17.781  0.00  0.00    +0.000 C 
ATOM      9  C   UNL     1       3.624   3.507  19.246  0.00  0.00    +0.000 C 
ATOM     10  C   UNL     1       2.593   4.278  20.057  0.00  0.00    +0.000 C 
ATOM     11  C   UNL     1       2.455   5.720  19.622  0.00  0.00    +0.000 A 
ATOM     12  C   UNL     1       1.786   6.616  20.480  0.00  0.00    +0.000 A 
ATOM     13  C   UNL     1       1.621   7.951  20.106  0.00  0.00    +0.000 A 
ATOM     14  C   UNL     1       2.052   8.380  18.848  0.00  0.00    +0.000 A 
ATOM     15  C   UNL     1       2.719   7.495  17.998  0.00  0.00    +0.000 A 
ATOM     16  C   UNL     1       2.961   6.170  18.381  0.00  0.00    +0.000 A 
ENDBRANCH   1  13
BRANCH   1  17
ATOM     17  N   UNL     1       0.166  10.327  20.133  0.00  0.00    +0.000 NA
ATOM     18  C   UNL     1      -0.945   9.951  19.230  0.00  0.00    +0.000 C 
ATOM     19  C   UNL     1      -1.282  11.080  18.253  0.00  0.00    +0.000 C 
ATOM     20  C   UNL     1      -1.547  12.418  18.964  0.00  0.00    +0.000 C 
ATOM     21  C   UNL     1      -0.279  12.746  19.762  0.00  0.00    +0.000 C 
ATOM     22  C   UNL     1       0.090  11.661  20.756  0.00  0.00    +0.000 C 
BRANCH  20  23
ATOM     23  C   UNL     1      -2.824  12.383  19.831  0.00  0.00    +0.000 C 
ATOM     24  O   UNL     1      -2.731  12.649  21.033  0.00  0.00    +0.000 OA
ATOM     25  N   UNL     1      -4.047  12.047  19.237  0.00  0.00    +0.000 N 
ATOM     26  C   UNL     1      -4.148  11.671  17.830  0.00  0.00    +0.000 C 
BRANCH  25  27
ATOM     27  C   UNL     1      -5.315  12.389  19.961  0.00  0.00    +0.000 C 
ATOM     28  C   UNL     1      -5.843  13.836  19.746  0.00  0.00    +0.000 C 
ATOM     29  C   UNL     1      -6.517  14.055  18.386  0.00  0.00    +0.000 C 
ATOM     30  C   UNL     1      -7.595  13.018  18.101  0.00  0.00    +0.000 C 
ATOM     31  C   UNL     1      -7.068  11.603  18.299  0.00  0.00    +0.000 C 
ATOM     32  C   UNL     1      -6.505  11.436  19.704  0.00  0.00    +0.000 C 
ENDBRANCH  25  27
ENDBRANCH  20  23
ENDBRANCH   1  17
TORSDOF 4
ENDMDL
MODEL 2
REMARK VINA RESULT:      -8.5      2.335      3.265
REMARK  Name = 
REMARK  6 active torsions:
REMARK  status: ('A' for Active; 'I' for Inactive)
REMARK    1  A    between atoms: C_1  and  C_2
REMARK    2  A    between atoms: C_10  and  S_11
REMARK    3  A    between atoms: S_11  and  N_14
REMARK    4  A    between atoms: C_17  and  C_18
REMARK    5  A    between atoms: N_20  and  C_21
REMARK    6  A    between atoms: N_20  and  C_22
REMARK                            x       y       z     vdW  Elec       q    Type
REMARK                         _______ _______ _______ _____ _____    ______ ____
ROOT
ATOM      1  S   UNL     1       0.801   9.035  21.244  0.00  0.00    +0.000 S 
ATOM      2  O   UNL     1      -0.483   8.443  21.583  0.00  0.00    +0.000 OA
ATOM      3  O   UNL     1       1.724   9.417  22.289  0.00  0.00    +0.000 OA
ENDROOT
BRANCH   1  13
ATOM      4  C   UNL     1       5.549   4.410  16.266  0.00  0.00    +0.000 C 
ATOM      5  C   UNL     1       4.663   5.500  16.822  0.00  0.00    +0.000 C 
ATOM      6  O   UNL     1       4.977   6.674  16.603  0.00  0.00    +0.000 OA
ATOM      7  N   UNL     1       3.615   5.075  17.650  0.00  0.00    +0.000 N 
ATOM      8  C   UNL     1       3.315   3.659  17.903  0.00  0.00    +0.000 C 
ATOM      9  C   UNL     1       3.496   3.342  19.370  0.00  0.00    +0.000 C 
ATOM     10  C   UNL     1       2.506   4.156  20.190  0.00  0.00    +0.000 C 
ATOM     11  C   UNL     1       2.397   5.593  19.730  0.00  0.00    +0.000 A 
ATOM     12  C   UNL     1       1.773   6.523  20.585  0.00  0.00    +0.000 A 
ATOM     13  C   UNL     1       1.635   7.855  20.188  0.00  0.00    +0.000 A 
ATOM     14  C   UNL     1       2.048   8.248  18.913  0.00  0.00    +0.000 A 
ATOM     15  C   UNL     1       2.670   7.329  18.065  0.00  0.00    +0.000 A 
ATOM     16  C   UNL     1       2.885   6.005  18.469  0.00  0.00    +0.000 A 
ENDBRANCH   1  13
BRANCH   1  17
ATOM     17  N   UNL     1       0.491  10.395  20.257  0.00  0.00    +0.000 NA
ATOM     18  C   UNL     1      -0.744  10.326  19.443  0.00  0.00    +0.000 C 
ATOM     19  C   UNL     1      -0.858  11.520  18.493  0.00  0.00    +0.000 C 
ATOM     20  C   UNL     1      -0.721  12.870  19.218  0.00  0.00    +0.000 C 
ATOM     21  C   UNL     1       0.645  12.854  19.915  0.00  0.00    +0.000 C 
ATOM     22  C   UNL     1       0.802  11.695  20.880  0.00  0.00    +0.000 C 
BRANCH  20  23
ATOM     23  C   UNL     1      -1.896  13.143  20.181  0.00  0.00    +0.000 C 
ATOM     24  O   UNL     1      -2.683  12.224  20.432  0.00  0.00    +0.000 OA
ATOM     25  N   UNL     1      -2.043  14.419  20.740  0.00  0.00    +0.000 N 
ATOM     26  C   UNL     1      -1.150  15.522  20.396  0.00  0.00    +0.000 C 
BRANCH  25  27
ATOM     27  C   UNL     1      -2.917  14.578  21.948  0.00  0.00    +0.000 C 
ATOM     28  C   UNL     1      -2.447  13.822  23.223  0.00  0.00    +0.000 C 
ATOM     29  C   UNL     1      -1.269  14.490  23.942  0.00  0.00    +0.000 C 
ATOM     30  C   UNL     1      -1.527  15.963  24.229  0.00  0.00    +0.000 C 
ATOM     31  C   UNL     1      -1.973  16.702  22.974  0.00  0.00    +0.000 C 
ATOM     32  C   UNL     1      -3.204  16.036  22.373  0.00  0.00    +0.000 C 
ENDBRANCH  25  27
ENDBRANCH  20  23
ENDBRANCH   1  17
TORSDOF 4
ENDMDL
MODEL 3
REMARK VINA RESULT:      -8.4      2.452      3.536
REMARK  Name = 
REMARK  6 active torsions:
REMARK  status: ('A' for Active; 'I' for Inactive)
REMARK    1  A    between atoms: C_1  and  C_2
REMARK    2  A    between atoms: C_10  and  S_11
REMARK    3  A    between atoms: S_11  and  N_14
REMARK    4  A    between atoms: C_17  and  C_18
REMARK    5  A    between atoms: N_20  and  C_21
REMARK    6  A    between atoms: N_20  and  C_22
REMARK                            x       y       z     vdW  Elec       q    Type
REMARK                         _______ _______ _______ _____ _____    ______ ____
ROOT
ATOM      1  S   UNL     1       1.255   9.787  18.214  0.00  0.00    +0.000 S 
ATOM      2  O   UNL     1       2.212  10.690  17.595  0.00  0.00    +0.000 OA
ATOM      3  O   UNL     1       0.015   9.471  17.542  0.00  0.00    +0.000 OA
ENDROOT
BRANCH   1  13
ATOM      4  C   UNL     1       4.188   2.194  19.783  0.00  0.00    +0.000 C 
ATOM      5  C   UNL     1       3.559   3.562  19.916  0.00  0.00    +0.000 C 
ATOM      6  O   UNL     1       2.496   3.655  20.539  0.00  0.00    +0.000 OA
ATOM      7  N   UNL     1       4.184   4.596  19.207  0.00  0.00    +0.000 N 
ATOM      8  C   UNL     1       5.430   4.412  18.450  0.00  0.00    +0.000 C 
ATOM      9  C   UNL     1       5.190   4.671  16.980  0.00  0.00    +0.000 C 
ATOM     10  C   UNL     1       4.764   6.118  16.784  0.00  0.00    +0.000 C 
ATOM     11  C   UNL     1       3.758   6.584  17.813  0.00  0.00    +0.000 A 
ATOM     12  C   UNL     1       3.049   7.776  17.563  0.00  0.00    +0.000 A 
ATOM     13  C   UNL     1       2.126   8.250  18.497  0.00  0.00    +0.000 A 
ATOM     14  C   UNL     1       1.961   7.582  19.713  0.00  0.00    +0.000 A 
ATOM     15  C   UNL     1       2.659   6.399  19.962  0.00  0.00    +0.000 A 
ATOM     16  C   UNL     1       3.537   5.865  19.009  0.00  0.00    +0.000 A 
ENDBRANCH   1  13
BRANCH   1  17
ATOM     17  N   UNL     1       0.899  10.406  19.766  0.00  0.00    +0.000 NA
ATOM     18  C   UNL     1       1.150  11.853  19.950  0.00  0.00    +0.000 C 
ATOM     19  C   UNL     1       0.938  12.280  21.404  0.00  0.00    +0.000 C 
ATOM     20  C   UNL     1      -0.437  11.861  21.951  0.00  0.00    +0.000 C 
ATOM     21  C   UNL     1      -0.515  10.336  21.812  0.00  0.00    +0.000 C 
ATOM     22  C   UNL     1      -0.325   9.863  20.383  0.00  0.00    +0.000 C 
BRANCH  20  23
ATOM     23  C   UNL     1      -1.599  12.599  21.252  0.00  0.00    +0.000 C 
ATOM     24  O   UNL     1      -1.420  13.043  20.113  0.00  0.00    +0.000 OA
ATOM     25  N   UNL     1      -2.819  12.750  21.924  0.00  0.00    +0.000 N 
ATOM     26  C   UNL     1      -3.012  12.280  23.292  0.00  0.00    +0.000 C 
BRANCH  25  27
ATOM     27  C   UNL     1      -4.040  13.100  21.126  0.00  0.00    +0.000 C 
ATOM     28  C   UNL     1      -5.383  12.535  21.668  0.00  0.00    +0.000 C 
ATOM     29  C   UNL     1      -5.923  13.283  22.893  0.00  0.00    +0.000 C 
ATOM     30  C   UNL     1      -6.001  14.787  22.664  0.00  0.00    +0.000 C 
ATOM     31  C   UNL     1      -4.678  15.338  22.147  0.00  0.00    +0.000 C 
ATOM     32  C   UNL     1      -4.258  14.610  20.876  0.00  0.00    +0.000 C 
ENDBRANCH  25  27
ENDBRANCH  20  23
ENDBRANCH   1  17
TORSDOF 4
ENDMDL
MODEL 4
REMARK VINA RESULT:      -8.3      1.409      2.165
REMARK  Name = 
REMARK  6 active torsions:
REMARK  status: ('A' for Active; 'I' for Inactive)
REMARK    1  A    between atoms: C_1  and  C_2
REMARK    2  A    between atoms: C_10  and  S_11
REMARK    3  A    between atoms: S_11  and  N_14
REMARK    4  A    between atoms: C_17  and  C_18
REMARK    5  A    between atoms: N_20  and  C_21
REMARK    6  A    between atoms: N_20  and  C_22
REMARK                            x       y       z     vdW  Elec       q    Type
REMARK                         _______ _______ _______ _____ _____    ______ ____
ROOT
ATOM      1  S   UNL     1       0.618   8.936  21.334  0.00  0.00    +0.000 S 
ATOM      2  O   UNL     1      -0.596   8.419  21.947  0.00  0.00    +0.000 OA
ATOM      3  O   UNL     1       1.591   9.645  22.133  0.00  0.00    +0.000 OA
ENDROOT
BRANCH   1  13
ATOM      4  C   UNL     1       3.344   1.888  17.925  0.00  0.00    +0.000 C 
ATOM      5  C   UNL     1       2.780   2.913  18.882  0.00  0.00    +0.000 C 
ATOM      6  O   UNL     1       1.767   2.615  19.522  0.00  0.00    +0.000 OA
ATOM      7  N   UNL     1       3.397   4.170  18.867  0.00  0.00    +0.000 N 
ATOM      8  C   UNL     1       4.581   4.475  18.051  0.00  0.00    +0.000 C 
ATOM      9  C   UNL     1       4.253   5.545  17.035  0.00  0.00    +0.000 C 
ATOM     10  C   UNL     1       3.873   6.829  17.758  0.00  0.00    +0.000 C 
ATOM     11  C   UNL     1       2.958   6.596  18.939  0.00  0.00    +0.000 A 
ATOM     12  C   UNL     1       2.282   7.702  19.491  0.00  0.00    +0.000 A 
ATOM     13  C   UNL     1       1.443   7.531  20.594  0.00  0.00    +0.000 A 
ATOM     14  C   UNL     1       1.334   6.276  21.198  0.00  0.00    +0.000 A 
ATOM     15  C   UNL     1       2.000   5.176  20.650  0.00  0.00    +0.000 A 
ATOM     16  C   UNL     1       2.789   5.309  19.501  0.00  0.00    +0.000 A 
ENDBRANCH   1  13
BRANCH   1  17
ATOM     17  N   UNL     1       0.145   9.930  20.027  0.00  0.00    +0.000 NA
ATOM     18  C   UNL     1      -1.119   9.549  19.358  0.00  0.00    +0.000 C 
ATOM     19  C   UNL     1      -1.380  10.409  18.119  0.00  0.00    +0.000 C 
ATOM     20  C   UNL     1      -1.321  11.916  18.421  0.00  0.00    +0.000 C 
ATOM     21  C   UNL     1       0.075  12.191  18.992  0.00  0.00    +0.000 C 
ATOM     22  C   UNL     1       0.377  11.372  20.233  0.00  0.00    +0.000 C 
BRANCH  20  23
ATOM     23  C   UNL     1      -2.464  12.377  19.350  0.00  0.00    +0.000 C 
ATOM     24  O   UNL     1      -2.176  12.904  20.429  0.00  0.00    +0.000 OA
ATOM     25  N   UNL     1      -3.793  12.182  18.951  0.00  0.00    +0.000 N 
ATOM     26  C   UNL     1      -4.136  11.503  17.704  0.00  0.00    +0.000 C 
BRANCH  25  27
ATOM     27  C   UNL     1      -4.872  12.962  19.641  0.00  0.00    +0.000 C 
ATOM     28  C   UNL     1      -6.025  13.468  18.730  0.00  0.00    +0.000 C 
ATOM     29  C   UNL     1      -7.022  12.375  18.325  0.00  0.00    +0.000 C 
ATOM     30  C   UNL     1      -7.555  11.606  19.527  0.00  0.00    +0.000 C 
ATOM     31  C   UNL     1      -6.421  11.101  20.409  0.00  0.00    +0.000 C 
ATOM     32  C   UNL     1      -5.532  12.257  20.848  0.00  0.00    +0.000 C 
ENDBRANCH  25  27
ENDBRANCH  20  23
ENDBRANCH   1  17
TORSDOF 4
ENDMDL
MODEL 5
REMARK VINA RESULT:      -8.3      1.711      2.370
REMARK  Name = 
REMARK  6 active torsions:
REMARK  status: ('A' for Active; 'I' for Inactive)
REMARK    1  A    between atoms: C_1  and  C_2
REMARK    2  A    between atoms: C_10  and  S_11
REMARK    3  A    between atoms: S_11  and  N_14
REMARK    4  A    between atoms: C_17  and  C_18
REMARK    5  A    between atoms: N_20  and  C_21
REMARK    6  A    between atoms: N_20  and  C_22
REMARK                            x       y       z     vdW  Elec       q    Type
REMARK                         _______ _______ _______ _____ _____    ______ ____
ROOT
ATOM      1  S   UNL     1       0.885   8.882  21.247  0.00  0.00    +0.000 S 
ATOM      2  O   UNL     1      -0.286   8.153  21.708  0.00  0.00    +0.000 OA
ATOM      3  O   UNL     1       1.849   9.386  22.198  0.00  0.00    +0.000 OA
ENDROOT
BRANCH   1  13
ATOM      4  C   UNL     1       5.735   4.697  15.987  0.00  0.00    +0.000 C 
ATOM      5  C   UNL     1       4.810   5.719  16.605  0.00  0.00    +0.000 C 
ATOM      6  O   UNL     1       5.064   6.915  16.429  0.00  0.00    +0.000 OA
ATOM      7  N   UNL     1       3.802   5.211  17.435  0.00  0.00    +0.000 N 
ATOM      8  C   UNL     1       3.575   3.773  17.635  0.00  0.00    +0.000 C 
ATOM      9  C   UNL     1       3.802   3.406  19.084  0.00  0.00    +0.000 C 
ATOM     10  C   UNL     1       2.793   4.138  19.957  0.00  0.00    +0.000 C 
ATOM     11  C   UNL     1       2.607   5.585  19.559  0.00  0.00    +0.000 A 
ATOM     12  C   UNL     1       1.959   6.449  20.464  0.00  0.00    +0.000 A 
ATOM     13  C   UNL     1       1.749   7.788  20.126  0.00  0.00    +0.000 A 
ATOM     14  C   UNL     1       2.115   8.251  18.860  0.00  0.00    +0.000 A 
ATOM     15  C   UNL     1       2.762   7.398  17.963  0.00  0.00    +0.000 A 
ATOM     16  C   UNL     1       3.048   6.071  18.307  0.00  0.00    +0.000 A 
ENDBRANCH   1  13
BRANCH   1  17
ATOM     17  N   UNL     1       0.330  10.180  20.284  0.00  0.00    +0.000 NA
ATOM     18  C   UNL     1      -1.138  10.265  20.109  0.00  0.00    +0.000 C 
ATOM     19  C   UNL     1      -1.524  11.367  19.121  0.00  0.00    +0.000 C 
ATOM     20  C   UNL     1      -0.908  12.730  19.483  0.00  0.00    +0.000 C 
ATOM     21  C   UNL     1       0.612  12.527  19.510  0.00  0.00    +0.000 C 
ATOM     22  C   UNL     1       1.047  11.452  20.488  0.00  0.00    +0.000 C 
BRANCH  20  23
ATOM     23  C   UNL     1      -1.473  13.300  20.801  0.00  0.00    +0.000 C 
ATOM     24  O   UNL     1      -0.682  13.672  21.674  0.00  0.00    +0.000 OA
ATOM     25  N   UNL     1      -2.861  13.378  20.975  0.00  0.00    +0.000 N 
ATOM     26  C   UNL     1      -3.797  12.882  19.970  0.00  0.00    +0.000 C 
BRANCH  25  27
ATOM     27  C   UNL     1      -3.401  14.271  22.053  0.00  0.00    +0.000 C 
ATOM     28  C   UNL     1      -4.940  14.490  22.037  0.00  0.00    +0.000 C 
ATOM     29  C   UNL     1      -5.743  13.298  22.571  0.00  0.00    +0.000 C 
ATOM     30  C   UNL     1      -5.257  12.841  23.941  0.00  0.00    +0.000 C 
ATOM     31  C   UNL     1      -3.751  12.614  23.947  0.00  0.00    +0.000 C 
ATOM     32  C   UNL     1      -3.021  13.873  23.497  0.00  0.00    +0.000 C 
ENDBRANCH  25  27
ENDBRANCH  20  23
ENDBRANCH   1  17
TORSDOF 4
ENDMDL
MODEL 6
REMARK VINA RESULT:      -8.3      2.202      2.769
REMARK  Name = 
REMARK  6 active torsions:
REMARK  status: ('A' for Active; 'I' for Inactive)
REMARK    1  A    between atoms: C_1  and  C_2
REMARK    2  A    between atoms: C_10  and  S_11
REMARK    3  A    between atoms: S_11  and  N_14
REMARK    4  A    between atoms: C_17  and  C_18
REMARK    5  A    between atoms: N_20  and  C_21
REMARK    6  A    between atoms: N_20  and  C_22
REMARK                            x       y       z     vdW  Elec       q    Type
REMARK                         _______ _______ _______ _____ _____    ______ ____
ROOT
ATOM      1  S   UNL     1       0.835   8.980  21.249  0.00  0.00    +0.000 S 
ATOM      2  O   UNL     1      -0.459   8.411  21.590  0.00  0.00    +0.000 OA
ATOM      3  O   UNL     1       1.755   9.370  22.294  0.00  0.00    +0.000 OA
ENDROOT
BRANCH   1  13
ATOM      4  C   UNL     1       5.558   4.202  16.394  0.00  0.00    +0.000 C 
ATOM      5  C   UNL     1       4.679   5.312  16.922  0.00  0.00    +0.000 C 
ATOM      6  O   UNL     1       5.005   6.478  16.678  0.00  0.00    +0.000 OA
ATOM      7  N   UNL     1       3.625   4.915  17.755  0.00  0.00    +0.000 N 
ATOM      8  C   UNL     1       3.312   3.508  18.040  0.00  0.00    +0.000 C 
ATOM      9  C   UNL     1       3.485   3.223  19.514  0.00  0.00    +0.000 C 
ATOM     10  C   UNL     1       2.500   4.064  20.312  0.00  0.00    +0.000 C 
ATOM     11  C   UNL     1       2.405   5.490  19.819  0.00  0.00    +0.000 A 
ATOM     12  C   UNL     1       1.786   6.445  20.651  0.00  0.00    +0.000 A 
ATOM     13  C   UNL     1       1.661   7.769  20.224  0.00  0.00    +0.000 A 
ATOM     14  C   UNL     1       2.082   8.129  18.941  0.00  0.00    +0.000 A 
ATOM     15  C   UNL     1       2.699   7.186  18.117  0.00  0.00    +0.000 A 
ATOM     16  C   UNL     1       2.901   5.869  18.551  0.00  0.00    +0.000 A 
ENDBRANCH   1  13
BRANCH   1  17
ATOM     17  N   UNL     1       0.550  10.324  20.234  0.00  0.00    +0.000 NA
ATOM     18  C   UNL     1      -0.761  10.338  19.545  0.00  0.00    +0.000 C 
ATOM     19  C   UNL     1      -0.863  11.500  18.555  0.00  0.00    +0.000 C 
ATOM     20  C   UNL     1      -0.537  12.858  19.200  0.00  0.00    +0.000 C 
ATOM     21  C   UNL     1       0.884  12.744  19.764  0.00  0.00    +0.000 C 
ATOM     22  C   UNL     1       1.033  11.612  20.763  0.00  0.00    +0.000 C 
BRANCH  20  23
ATOM     23  C   UNL     1      -1.583  13.275  20.256  0.00  0.00    +0.000 C 
ATOM     24  O   UNL     1      -2.273  12.397  20.785  0.00  0.00    +0.000 OA
ATOM     25  N   UNL     1      -1.726  14.629  20.584  0.00  0.00    +0.000 N 
ATOM     26  C   UNL     1      -0.954  15.673  19.915  0.00  0.00    +0.000 C 
BRANCH  25  27
ATOM     27  C   UNL     1      -2.434  14.990  21.856  0.00  0.00    +0.000 C 
ATOM     28  C   UNL     1      -1.989  16.324  22.519  0.00  0.00    +0.000 C 
ATOM     29  C   UNL     1      -2.530  17.577  21.818  0.00  0.00    +0.000 C 
ATOM     30  C   UNL     1      -4.040  17.524  21.625  0.00  0.00    +0.000 C 
ATOM     31  C   UNL     1      -4.468  16.222  20.962  0.00  0.00    +0.000 C 
ATOM     32  C   UNL     1      -3.977  15.027  21.768  0.00  0.00    +0.000 C 
ENDBRANCH  25  27
ENDBRANCH  20  23
ENDBRANCH   1  17
TORSDOF 4
ENDMDL
MODEL 7
REMARK VINA RESULT:      -8.2      2.676      3.771
REMARK  Name = 
REMARK  6 active torsions:
REMARK  status: ('A' for Active; 'I' for Inactive)
REMARK    1  A    between atoms: C_1  and  C_2
REMARK    2  A    between atoms: C_10  and  S_11
REMARK    3  A    between atoms: S_11  and  N_14
REMARK    4  A    between atoms: C_17  and  C_18
REMARK    5  A    between atoms: N_20  and  C_21
REMARK    6  A    between atoms: N_20  and  C_22
REMARK                            x       y       z     vdW  Elec       q    Type
REMARK                         _______ _______ _______ _____ _____    ______ ____
ROOT
ATOM      1  S   UNL     1       0.708   8.827  21.366  0.00  0.00    +0.000 S 
ATOM      2  O   UNL     1      -0.620   8.356  21.727  0.00  0.00    +0.000 OA
ATOM      3  O   UNL     1       1.596   9.347  22.381  0.00  0.00    +0.000 OA
ENDROOT
BRANCH   1  13
ATOM      4  C   UNL     1       3.437   1.885  17.750  0.00  0.00    +0.000 C 
ATOM      5  C   UNL     1       2.883   2.882  18.741  0.00  0.00    +0.000 C 
ATOM      6  O   UNL     1       1.887   2.560  19.396  0.00  0.00    +0.000 OA
ATOM      7  N   UNL     1       3.486   4.147  18.739  0.00  0.00    +0.000 N 
ATOM      8  C   UNL     1       4.648   4.482  17.904  0.00  0.00    +0.000 C 
ATOM      9  C   UNL     1       4.286   5.570  16.919  0.00  0.00    +0.000 C 
ATOM     10  C   UNL     1       3.908   6.834  17.677  0.00  0.00    +0.000 C 
ATOM     11  C   UNL     1       3.022   6.565  18.872  0.00  0.00    +0.000 A 
ATOM     12  C   UNL     1       2.345   7.652  19.461  0.00  0.00    +0.000 A 
ATOM     13  C   UNL     1       1.533   7.448  20.579  0.00  0.00    +0.000 A 
ATOM     14  C   UNL     1       1.451   6.179  21.158  0.00  0.00    +0.000 A 
ATOM     15  C   UNL     1       2.117   5.099  20.573  0.00  0.00    +0.000 A 
ATOM     16  C   UNL     1       2.879   5.265  19.410  0.00  0.00    +0.000 A 
ENDBRANCH   1  13
BRANCH   1  17
ATOM     17  N   UNL     1       0.517  10.005  20.143  0.00  0.00    +0.000 NA
ATOM     18  C   UNL     1      -0.708   9.880  19.321  0.00  0.00    +0.000 C 
ATOM     19  C   UNL     1      -0.717  10.888  18.169  0.00  0.00    +0.000 C 
ATOM     20  C   UNL     1      -0.489  12.333  18.645  0.00  0.00    +0.000 C 
ATOM     21  C   UNL     1       0.861  12.345  19.371  0.00  0.00    +0.000 C 
ATOM     22  C   UNL     1       0.916  11.370  20.532  0.00  0.00    +0.000 C 
BRANCH  20  23
ATOM     23  C   UNL     1      -1.654  12.859  19.511  0.00  0.00    +0.000 C 
ATOM     24  O   UNL     1      -2.642  12.137  19.677  0.00  0.00    +0.000 OA
ATOM     25  N   UNL     1      -1.564  14.137  20.079  0.00  0.00    +0.000 N 
ATOM     26  C   UNL     1      -0.424  15.015  19.832  0.00  0.00    +0.000 C 
BRANCH  25  27
ATOM     27  C   UNL     1      -2.483  14.485  21.211  0.00  0.00    +0.000 C 
ATOM     28  C   UNL     1      -2.560  13.441  22.361  0.00  0.00    +0.000 C 
ATOM     29  C   UNL     1      -1.343  13.454  23.294  0.00  0.00    +0.000 C 
ATOM     30  C   UNL     1      -1.037  14.848  23.825  0.00  0.00    +0.000 C 
ATOM     31  C   UNL     1      -0.948  15.864  22.694  0.00  0.00    +0.000 C 
ATOM     32  C   UNL     1      -2.230  15.860  21.872  0.00  0.00    +0.000 C 
ENDBRANCH  25  27
ENDBRANCH  20  23
ENDBRANCH   1  17
TORSDOF 4
ENDMDL
MODEL 8
REMARK VINA RESULT:      -8.2      2.840      3.823
REMARK  Name = 
REMARK  6 active torsions:
REMARK  status: ('A' for Active; 'I' for Inactive)
REMARK    1  A    between atoms: C_1  and  C_2
REMARK    2  A    between atoms: C_10  and  S_11
REMARK    3  A    between atoms: S_11  and  N_14
REMARK    4  A    between atoms: C_17  and  C_18
REMARK    5  A    between atoms: N_20  and  C_21
REMARK    6  A    between atoms: N_20  and  C_22
REMARK                            x       y       z     vdW  Elec       q    Type
REMARK                         _______ _______ _______ _____ _____    ______ ____
ROOT
ATOM      1  S   UNL     1       0.679   8.914  21.274  0.00  0.00    +0.000 S 
ATOM      2  O   UNL     1      -0.638   8.448  21.680  0.00  0.00    +0.000 OA
ATOM      3  O   UNL     1       1.581   9.483  22.250  0.00  0.00    +0.000 OA
ENDROOT
BRANCH   1  13
ATOM      4  C   UNL     1       3.388   1.870  17.847  0.00  0.00    +0.000 C 
ATOM      5  C   UNL     1       2.831   2.894  18.807  0.00  0.00    +0.000 C 
ATOM      6  O   UNL     1       1.823   2.595  19.455  0.00  0.00    +0.000 OA
ATOM      7  N   UNL     1       3.446   4.152  18.787  0.00  0.00    +0.000 N 
ATOM      8  C   UNL     1       4.623   4.458  17.962  0.00  0.00    +0.000 C 
ATOM      9  C   UNL     1       4.285   5.528  16.949  0.00  0.00    +0.000 C 
ATOM     10  C   UNL     1       3.910   6.812  17.674  0.00  0.00    +0.000 C 
ATOM     11  C   UNL     1       3.004   6.577  18.862  0.00  0.00    +0.000 A 
ATOM     12  C   UNL     1       2.330   7.683  19.419  0.00  0.00    +0.000 A 
ATOM     13  C   UNL     1       1.501   7.511  20.529  0.00  0.00    +0.000 A 
ATOM     14  C   UNL     1       1.398   6.255  21.133  0.00  0.00    +0.000 A 
ATOM     15  C   UNL     1       2.061   5.157  20.581  0.00  0.00    +0.000 A 
ATOM     16  C   UNL     1       2.841   5.291  19.425  0.00  0.00    +0.000 A 
ENDBRANCH   1  13
BRANCH   1  17
ATOM     17  N   UNL     1       0.453  10.040  20.008  0.00  0.00    +0.000 NA
ATOM     18  C   UNL     1      -0.932  10.162  19.501  0.00  0.00    +0.000 C 
ATOM     19  C   UNL     1      -1.004  11.083  18.281  0.00  0.00    +0.000 C 
ATOM     20  C   UNL     1      -0.362  12.457  18.537  0.00  0.00    +0.000 C 
ATOM     21  C   UNL     1       1.095  12.190  18.934  0.00  0.00    +0.000 C 
ATOM     22  C   UNL     1       1.219  11.291  20.151  0.00  0.00    +0.000 C 
BRANCH  20  23
ATOM     23  C   UNL     1      -1.139  13.285  19.582  0.00  0.00    +0.000 C 
ATOM     24  O   UNL     1      -1.997  12.720  20.268  0.00  0.00    +0.000 OA
ATOM     25  N   UNL     1      -0.858  14.651  19.723  0.00  0.00    +0.000 N 
ATOM     26  C   UNL     1       0.111  15.333  18.870  0.00  0.00    +0.000 C 
BRANCH  25  27
ATOM     27  C   UNL     1      -1.309  15.352  20.969  0.00  0.00    +0.000 C 
ATOM     28  C   UNL     1      -0.351  16.454  21.505  0.00  0.00    +0.000 C 
ATOM     29  C   UNL     1      -0.400  17.762  20.705  0.00  0.00    +0.000 C 
ATOM     30  C   UNL     1      -1.821  18.287  20.542  0.00  0.00    +0.000 C 
ATOM     31  C   UNL     1      -2.751  17.208  20.004  0.00  0.00    +0.000 C 
ATOM     32  C   UNL     1      -2.720  15.980  20.904  0.00  0.00    +0.000 C 
ENDBRANCH  25  27
ENDBRANCH  20  23
ENDBRANCH   1  17
TORSDOF 4
ENDMDL
MODEL 9
REMARK VINA RESULT:      -8.1      2.649      3.524
REMARK  Name = 
REMARK  6 active torsions:
REMARK  status: ('A' for Active; 'I' for Inactive)
REMARK    1  A    between atoms: C_1  and  C_2
REMARK    2  A    between atoms: C_10  and  S_11
REMARK    3  A    between atoms: S_11  and  N_14
REMARK    4  A    between atoms: C_17  and  C_18
REMARK    5  A    between atoms: N_20  and  C_21
REMARK    6  A    between atoms: N_20  and  C_22
REMARK                            x       y       z     vdW  Elec       q    Type
REMARK                         _______ _______ _______ _____ _____    ______ ____
ROOT
ATOM      1  S   UNL     1       0.722   9.126  21.627  0.00  0.00    +0.000 S 
ATOM      2  O   UNL     1      -0.553   8.515  21.968  0.00  0.00    +0.000 OA
ATOM      3  O   UNL     1       1.679   9.438  22.665  0.00  0.00    +0.000 OA
ENDROOT
BRANCH   1  13
ATOM      4  C   UNL     1       5.299   4.821  16.220  0.00  0.00    +0.000 C 
ATOM      5  C   UNL     1       4.435   5.875  16.873  0.00  0.00    +0.000 C 
ATOM      6  O   UNL     1       4.750   7.059  16.722  0.00  0.00    +0.000 OA
ATOM      7  N   UNL     1       3.409   5.400  17.700  0.00  0.00    +0.000 N 
ATOM      8  C   UNL     1       3.108   3.972  17.868  0.00  0.00    +0.000 C 
ATOM      9  C   UNL     1       3.329   3.558  19.306  0.00  0.00    +0.000 C 
ATOM     10  C   UNL     1       2.368   4.320  20.205  0.00  0.00    +0.000 C 
ATOM     11  C   UNL     1       2.254   5.785  19.844  0.00  0.00    +0.000 A 
ATOM     12  C   UNL     1       1.660   6.659  20.776  0.00  0.00    +0.000 A 
ATOM     13  C   UNL     1       1.518   8.015  20.473  0.00  0.00    +0.000 A 
ATOM     14  C   UNL     1       1.897   8.489  19.214  0.00  0.00    +0.000 A 
ATOM     15  C   UNL     1       2.490   7.626  18.290  0.00  0.00    +0.000 A 
ATOM     16  C   UNL     1       2.708   6.277  18.600  0.00  0.00    +0.000 A 
ENDBRANCH   1  13
BRANCH   1  17
ATOM     17  N   UNL     1       0.386  10.547  20.740  0.00  0.00    +0.000 NA
ATOM     18  C   UNL     1      -0.987  11.080  20.884  0.00  0.00    +0.000 C 
ATOM     19  C   UNL     1      -1.231  12.264  19.945  0.00  0.00    +0.000 C 
ATOM     20  C   UNL     1      -0.167  13.366  20.092  0.00  0.00    +0.000 C 
ATOM     21  C   UNL     1       1.186  12.706  19.799  0.00  0.00    +0.000 C 
ATOM     22  C   UNL     1       1.481  11.534  20.715  0.00  0.00    +0.000 C 
BRANCH  20  23
ATOM     23  C   UNL     1      -0.224  14.061  21.469  0.00  0.00    +0.000 C 
ATOM     24  O   UNL     1       0.729  13.925  22.242  0.00  0.00    +0.000 OA
ATOM     25  N   UNL     1      -1.352  14.820  21.808  0.00  0.00    +0.000 N 
ATOM     26  C   UNL     1      -2.506  14.931  20.921  0.00  0.00    +0.000 C 
BRANCH  25  27
ATOM     27  C   UNL     1      -1.247  15.795  22.943  0.00  0.00    +0.000 C 
ATOM     28  C   UNL     1      -2.254  16.979  22.909  0.00  0.00    +0.000 C 
ATOM     29  C   UNL     1      -3.680  16.594  23.322  0.00  0.00    +0.000 C 
ATOM     30  C   UNL     1      -3.717  15.866  24.659  0.00  0.00    +0.000 C 
ATOM     31  C   UNL     1      -2.740  14.699  24.682  0.00  0.00    +0.000 C 
ATOM     32  C   UNL     1      -1.331  15.177  24.358  0.00  0.00    +0.000 C 
ENDBRANCH  25  27
ENDBRANCH  20  23
ENDBRANCH   1  17
TORSDOF 4
ENDMDL
