MODEL 1
REMARK VINA RESULT:      -7.9      0.000      0.000
REMARK  Name = 
REMARK  9 active torsions:
REMARK  status: ('A' for Active; 'I' for Inactive)
REMARK    1  A    between atoms: C_1  and  C_2
REMARK    2  A    between atoms: C_4  and  C_5
REMARK    3  A    between atoms: C_11  and  O_12
REMARK    4  A    between atoms: O_12  and  C_13
REMARK    5  A    between atoms: C_13  and  C_14
REMARK    6  A    between atoms: N_16  and  C_17
REMARK    7  A    between atoms: C_17  and  C_18
REMARK    8  A    between atoms: C_21  and  O_22
REMARK    9  A    between atoms: O_22  and  C_23
REMARK                            x       y       z     vdW  Elec       q    Type
REMARK                         _______ _______ _______ _____ _____    ______ ____
ROOT
ATOM      1  C   UNL     1       1.045   2.659  18.557  0.00  0.00    +0.000 C 
ATOM      2  C   UNL     1       2.311   3.501  18.580  0.00  0.00    +0.000 C 
ATOM      3  C   UNL     1       2.677   4.115  17.224  0.00  0.00    +0.000 C 
ATOM      4  C   UNL     1       3.441   5.398  17.582  0.00  0.00    +0.000 C 
ATOM      5  N   UNL     1       2.743   5.808  18.803  0.00  0.00    +0.000 N 
ATOM      6  C   UNL     1       2.176   4.719  19.475  0.00  0.00    +0.000 C 
ATOM      7  O   UNL     1       1.688   4.703  20.591  0.00  0.00    +0.000 OA
ENDROOT
BRANCH   4   8
ATOM      8  C   UNL     1       4.953   5.183  17.686  0.00  0.00    +0.000 A 
ATOM      9  C   UNL     1       5.598   5.177  18.940  0.00  0.00    +0.000 A 
ATOM     10  F   UNL     1       4.915   5.409  20.067  0.00  0.00    +0.000 F 
ATOM     11  C   UNL     1       6.958   4.925  19.096  0.00  0.00    +0.000 A 
ATOM     12  C   UNL     1       7.738   4.661  17.988  0.00  0.00    +0.000 A 
ATOM     13  C   UNL     1       7.147   4.660  16.730  0.00  0.00    +0.000 A 
ATOM     14  C   UNL     1       5.768   4.920  16.551  0.00  0.00    +0.000 A 
BRANCH  14  15
ATOM     15  O   UNL     1       5.189   4.924  15.288  0.00  0.00    +0.000 OA
BRANCH  15  16
ATOM     16  C   UNL     1       6.129   4.855  14.196  0.00  0.00    +0.000 C 
BRANCH  16  17
ATOM     17  C   UNL     1       5.997   3.611  13.337  0.00  0.00    +0.000 C 
ATOM     18  F   UNL     1       4.907   3.768  12.531  0.00  0.00    +0.000 F 
ENDBRANCH  16  17
ENDBRANCH  15  16
ENDBRANCH  14  15
ENDBRANCH   4   8
BRANCH   5  19
ATOM     19  C   UNL     1       2.965   7.112  19.411  0.00  0.00    +0.000 C 
BRANCH  19  20
ATOM     20  C   UNL     1       1.887   8.147  19.169  0.00  0.00    +0.000 A 
ATOM     21  C   UNL     1       1.138   8.653  20.242  0.00  0.00    +0.000 A 
ATOM     22  C   UNL     1       0.172   9.643  20.033  0.00  0.00    +0.000 A 
ATOM     23  C   UNL     1      -0.059  10.150  18.753  0.00  0.00    +0.000 A 
ATOM     24  C   UNL     1       0.632   9.605  17.674  0.00  0.00    +0.000 A 
ATOM     25  C   UNL     1       1.619   8.637  17.883  0.00  0.00    +0.000 A 
BRANCH  23  26
ATOM     26  O   UNL     1      -1.022  11.108  18.664  0.00  0.00    +0.000 OA
BRANCH  26  27
ATOM     27  C   UNL     1      -2.217  10.810  17.952  0.00  0.00    +0.000 C 
ATOM     28  F   UNL     1      -2.119  10.908  16.611  0.00  0.00    +0.000 F 
ATOM     29  F   UNL     1      -2.614   9.555  18.262  0.00  0.00    +0.000 F 
ATOM     30  F   UNL     1      -3.186  11.665  18.356  0.00  0.00    +0.000 F 
ENDBRANCH  26  27
ENDBRANCH  23  26
ENDBRANCH  19  20
ENDBRANCH   5  19
TORSDOF 8
ENDMDL
MODEL 2
REMARK VINA RESULT:      -7.8      1.079      1.227
REMARK  Name = 
REMARK  9 active torsions:
REMARK  status: ('A' for Active; 'I' for Inactive)
REMARK    1  A    between atoms: C_1  and  C_2
REMARK    2  A    between atoms: C_4  and  C_5
REMARK    3  A    between atoms: C_11  and  O_12
REMARK    4  A    between atoms: O_12  and  C_13
REMARK    5  A    between atoms: C_13  and  C_14
REMARK    6  A    between atoms: N_16  and  C_17
REMARK    7  A    between atoms: C_17  and  C_18
REMARK    8  A    between atoms: C_21  and  O_22
REMARK    9  A    between atoms: O_22  and  C_23
REMARK                            x       y       z     vdW  Elec       q    Type
REMARK                         _______ _______ _______ _____ _____    ______ ____
ROOT
ATOM      1  C   UNL     1       1.076   3.161  19.291  0.00  0.00    +0.000 C 
ATOM      2  C   UNL     1       2.354   3.936  19.016  0.00  0.00    +0.000 C 
ATOM      3  C   UNL     1       2.711   4.044  17.528  0.00  0.00    +0.000 C 
ATOM      4  C   UNL     1       3.499   5.357  17.421  0.00  0.00    +0.000 C 
ATOM      5  N   UNL     1       2.825   6.172  18.434  0.00  0.00    +0.000 N 
ATOM      6  C   UNL     1       2.250   5.389  19.442  0.00  0.00    +0.000 C 
ATOM      7  O   UNL     1       1.778   5.763  20.501  0.00  0.00    +0.000 OA
ENDROOT
BRANCH   4   8
ATOM      8  C   UNL     1       5.009   5.161  17.579  0.00  0.00    +0.000 A 
ATOM      9  C   UNL     1       5.627   5.302  18.839  0.00  0.00    +0.000 A 
ATOM     10  F   UNL     1       4.920   5.659  19.918  0.00  0.00    +0.000 F 
ATOM     11  C   UNL     1       6.985   5.075  19.051  0.00  0.00    +0.000 A 
ATOM     12  C   UNL     1       7.788   4.689  17.997  0.00  0.00    +0.000 A 
ATOM     13  C   UNL     1       7.223   4.541  16.735  0.00  0.00    +0.000 A 
ATOM     14  C   UNL     1       5.848   4.773  16.499  0.00  0.00    +0.000 A 
BRANCH  14  15
ATOM     15  O   UNL     1       5.295   4.630  15.233  0.00  0.00    +0.000 OA
BRANCH  15  16
ATOM     16  C   UNL     1       6.258   4.577  14.160  0.00  0.00    +0.000 C 
BRANCH  16  17
ATOM     17  C   UNL     1       5.907   3.597  13.055  0.00  0.00    +0.000 C 
ATOM     18  F   UNL     1       4.591   3.772  12.738  0.00  0.00    +0.000 F 
ENDBRANCH  16  17
ENDBRANCH  15  16
ENDBRANCH  14  15
ENDBRANCH   4   8
BRANCH   5  19
ATOM     19  C   UNL     1       3.075   7.601  18.560  0.00  0.00    +0.000 C 
BRANCH  19  20
ATOM     20  C   UNL     1       1.853   8.472  18.757  0.00  0.00    +0.000 A 
ATOM     21  C   UNL     1       1.401   8.775  20.051  0.00  0.00    +0.000 A 
ATOM     22  C   UNL     1       0.300   9.616  20.242  0.00  0.00    +0.000 A 
ATOM     23  C   UNL     1      -0.365  10.175  19.149  0.00  0.00    +0.000 A 
ATOM     24  C   UNL     1       0.034   9.825  17.862  0.00  0.00    +0.000 A 
ATOM     25  C   UNL     1       1.152   9.008  17.667  0.00  0.00    +0.000 A 
BRANCH  23  26
ATOM     26  O   UNL     1      -1.424  10.977  19.451  0.00  0.00    +0.000 OA
BRANCH  26  27
ATOM     27  C   UNL     1      -1.300  12.378  19.238  0.00  0.00    +0.000 C 
ATOM     28  F   UNL     1      -1.277  12.756  17.944  0.00  0.00    +0.000 F 
ATOM     29  F   UNL     1      -2.326  13.010  19.851  0.00  0.00    +0.000 F 
ATOM     30  F   UNL     1      -0.149  12.802  19.809  0.00  0.00    +0.000 F 
ENDBRANCH  26  27
ENDBRANCH  23  26
ENDBRANCH  19  20
ENDBRANCH   5  19
TORSDOF 8
ENDMDL
MODEL 3
REMARK VINA RESULT:      -7.7      3.199      9.047
REMARK  Name = 
REMARK  9 active torsions:
REMARK  status: ('A' for Active; 'I' for Inactive)
REMARK    1  A    between atoms: C_1  and  C_2
REMARK    2  A    between atoms: C_4  and  C_5
REMARK    3  A    between atoms: C_11  and  O_12
REMARK    4  A    between atoms: O_12  and  C_13
REMARK    5  A    between atoms: C_13  and  C_14
REMARK    6  A    between atoms: N_16  and  C_17
REMARK    7  A    between atoms: C_17  and  C_18
REMARK    8  A    between atoms: C_21  and  O_22
REMARK    9  A    between atoms: O_22  and  C_23
REMARK                            x       y       z     vdW  Elec       q    Type
REMARK                         _______ _______ _______ _____ _____    ______ ____
ROOT
ATOM      1  C   UNL     1       1.605  14.754  19.514  0.00  0.00    +0.000 C 
ATOM      2  C   UNL     1       0.413  13.819  19.635  0.00  0.00    +0.000 C 
ATOM      3  C   UNL     1      -0.032  13.199  18.305  0.00  0.00    +0.000 C 
ATOM      4  C   UNL     1      -0.662  11.857  18.703  0.00  0.00    +0.000 C 
ATOM      5  N   UNL     1       0.174  11.483  19.845  0.00  0.00    +0.000 N 
ATOM      6  C   UNL     1       0.720  12.601  20.487  0.00  0.00    +0.000 C 
ATOM      7  O   UNL     1       1.307  12.637  21.553  0.00  0.00    +0.000 OA
ENDROOT
BRANCH   4   8
ATOM      8  C   UNL     1      -2.170  11.955  18.949  0.00  0.00    +0.000 A 
ATOM      9  C   UNL     1      -2.676  12.673  20.052  0.00  0.00    +0.000 A 
ATOM     10  F   UNL     1      -1.853  13.243  20.941  0.00  0.00    +0.000 F 
ATOM     11  C   UNL     1      -4.037  12.846  20.289  0.00  0.00    +0.000 A 
ATOM     12  C   UNL     1      -4.959  12.303  19.417  0.00  0.00    +0.000 A 
ATOM     13  C   UNL     1      -4.507  11.585  18.316  0.00  0.00    +0.000 A 
ATOM     14  C   UNL     1      -3.128  11.393  18.063  0.00  0.00    +0.000 A 
BRANCH  14  15
ATOM     15  O   UNL     1      -2.687  10.666  16.964  0.00  0.00    +0.000 OA
BRANCH  15  16
ATOM     16  C   UNL     1      -3.119  11.185  15.689  0.00  0.00    +0.000 C 
BRANCH  16  17
ATOM     17  C   UNL     1      -3.596  10.125  14.713  0.00  0.00    +0.000 C 
ATOM     18  F   UNL     1      -2.585   9.880  13.829  0.00  0.00    +0.000 F 
ENDBRANCH  16  17
ENDBRANCH  15  16
ENDBRANCH  14  15
ENDBRANCH   4   8
BRANCH   5  19
ATOM     19  C   UNL     1       0.107  10.157  20.443  0.00  0.00    +0.000 C 
BRANCH  19  20
ATOM     20  C   UNL     1       1.019   9.111  19.837  0.00  0.00    +0.000 A 
ATOM     21  C   UNL     1       1.438   8.010  20.599  0.00  0.00    +0.000 A 
ATOM     22  C   UNL     1       2.243   7.015  20.033  0.00  0.00    +0.000 A 
ATOM     23  C   UNL     1       2.638   7.098  18.697  0.00  0.00    +0.000 A 
ATOM     24  C   UNL     1       2.284   8.222  17.954  0.00  0.00    +0.000 A 
ATOM     25  C   UNL     1       1.456   9.202  18.508  0.00  0.00    +0.000 A 
BRANCH  23  26
ATOM     26  O   UNL     1       3.422   6.078  18.251  0.00  0.00    +0.000 OA
BRANCH  26  27
ATOM     27  C   UNL     1       2.797   4.866  17.843  0.00  0.00    +0.000 C 
ATOM     28  F   UNL     1       1.497   4.985  17.504  0.00  0.00    +0.000 F 
ATOM     29  F   UNL     1       3.470   4.355  16.788  0.00  0.00    +0.000 F 
ATOM     30  F   UNL     1       2.876   3.976  18.860  0.00  0.00    +0.000 F 
ENDBRANCH  26  27
ENDBRANCH  23  26
ENDBRANCH  19  20
ENDBRANCH   5  19
TORSDOF 8
ENDMDL
MODEL 4
REMARK VINA RESULT:      -7.6      0.686      1.322
REMARK  Name = 
REMARK  9 active torsions:
REMARK  status: ('A' for Active; 'I' for Inactive)
REMARK    1  A    between atoms: C_1  and  C_2
REMARK    2  A    between atoms: C_4  and  C_5
REMARK    3  A    between atoms: C_11  and  O_12
REMARK    4  A    between atoms: O_12  and  C_13
REMARK    5  A    between atoms: C_13  and  C_14
REMARK    6  A    between atoms: N_16  and  C_17
REMARK    7  A    between atoms: C_17  and  C_18
REMARK    8  A    between atoms: C_21  and  O_22
REMARK    9  A    between atoms: O_22  and  C_23
REMARK                            x       y       z     vdW  Elec       q    Type
REMARK                         _______ _______ _______ _____ _____    ______ ____
ROOT
ATOM      1  C   UNL     1       0.968   2.930  18.719  0.00  0.00    +0.000 C 
ATOM      2  C   UNL     1       2.228   3.781  18.744  0.00  0.00    +0.000 C 
ATOM      3  C   UNL     1       2.626   4.347  17.377  0.00  0.00    +0.000 C 
ATOM      4  C   UNL     1       3.373   5.648  17.706  0.00  0.00    +0.000 C 
ATOM      5  N   UNL     1       2.641   6.097  18.893  0.00  0.00    +0.000 N 
ATOM      6  C   UNL     1       2.062   5.030  19.590  0.00  0.00    +0.000 C 
ATOM      7  O   UNL     1       1.545   5.051  20.693  0.00  0.00    +0.000 OA
ENDROOT
BRANCH   4   8
ATOM      8  C   UNL     1       4.883   5.447  17.858  0.00  0.00    +0.000 A 
ATOM      9  C   UNL     1       5.456   5.203  19.122  0.00  0.00    +0.000 A 
ATOM     10  F   UNL     1       4.704   5.190  20.230  0.00  0.00    +0.000 F 
ATOM     11  C   UNL     1       6.813   4.953  19.308  0.00  0.00    +0.000 A 
ATOM     12  C   UNL     1       7.662   4.932  18.220  0.00  0.00    +0.000 A 
ATOM     13  C   UNL     1       7.142   5.171  16.953  0.00  0.00    +0.000 A 
ATOM     14  C   UNL     1       5.768   5.434  16.745  0.00  0.00    +0.000 A 
BRANCH  14  15
ATOM     15  O   UNL     1       5.259   5.679  15.476  0.00  0.00    +0.000 OA
BRANCH  15  16
ATOM     16  C   UNL     1       5.046   4.497  14.676  0.00  0.00    +0.000 C 
BRANCH  16  17
ATOM     17  C   UNL     1       6.288   3.992  13.965  0.00  0.00    +0.000 C 
ATOM     18  F   UNL     1       7.016   5.075  13.567  0.00  0.00    +0.000 F 
ENDBRANCH  16  17
ENDBRANCH  15  16
ENDBRANCH  14  15
ENDBRANCH   4   8
BRANCH   5  19
ATOM     19  C   UNL     1       2.839   7.424  19.459  0.00  0.00    +0.000 C 
BRANCH  19  20
ATOM     20  C   UNL     1       1.718   8.416  19.228  0.00  0.00    +0.000 A 
ATOM     21  C   UNL     1       1.504   8.958  17.952  0.00  0.00    +0.000 A 
ATOM     22  C   UNL     1       0.443   9.839  17.721  0.00  0.00    +0.000 A 
ATOM     23  C   UNL     1      -0.427  10.191  18.756  0.00  0.00    +0.000 A 
ATOM     24  C   UNL     1      -0.180   9.711  20.040  0.00  0.00    +0.000 A 
ATOM     25  C   UNL     1       0.862   8.807  20.267  0.00  0.00    +0.000 A 
BRANCH  23  26
ATOM     26  O   UNL     1      -1.422  11.056  18.420  0.00  0.00    +0.000 OA
BRANCH  26  27
ATOM     27  C   UNL     1      -2.520  10.570  17.657  0.00  0.00    +0.000 C 
ATOM     28  F   UNL     1      -2.971   9.352  18.023  0.00  0.00    +0.000 F 
ATOM     29  F   UNL     1      -3.544  11.449  17.744  0.00  0.00    +0.000 F 
ATOM     30  F   UNL     1      -2.146  10.494  16.359  0.00  0.00    +0.000 F 
ENDBRANCH  26  27
ENDBRANCH  23  26
ENDBRANCH  19  20
ENDBRANCH   5  19
TORSDOF 8
ENDMDL
MODEL 5
REMARK VINA RESULT:      -7.6      0.955      1.412
REMARK  Name = 
REMARK  9 active torsions:
REMARK  status: ('A' for Active; 'I' for Inactive)
REMARK    1  A    between atoms: C_1  and  C_2
REMARK    2  A    between atoms: C_4  and  C_5
REMARK    3  A    between atoms: C_11  and  O_12
REMARK    4  A    between atoms: O_12  and  C_13
REMARK    5  A    between atoms: C_13  and  C_14
REMARK    6  A    between atoms: N_16  and  C_17
REMARK    7  A    between atoms: C_17  and  C_18
REMARK    8  A    between atoms: C_21  and  O_22
REMARK    9  A    between atoms: O_22  and  C_23
REMARK                            x       y       z     vdW  Elec       q    Type
REMARK                         _______ _______ _______ _____ _____    ______ ____
ROOT
ATOM      1  C   UNL     1       1.105   3.110  18.908  0.00  0.00    +0.000 C 
ATOM      2  C   UNL     1       2.399   3.896  18.763  0.00  0.00    +0.000 C 
ATOM      3  C   UNL     1       2.825   4.135  17.310  0.00  0.00    +0.000 C 
ATOM      4  C   UNL     1       3.623   5.446  17.358  0.00  0.00    +0.000 C 
ATOM      5  N   UNL     1       2.905   6.171  18.410  0.00  0.00    +0.000 N 
ATOM      6  C   UNL     1       2.281   5.305  19.315  0.00  0.00    +0.000 C 
ATOM      7  O   UNL     1       1.761   5.586  20.380  0.00  0.00    +0.000 OA
ENDROOT
BRANCH   4   8
ATOM      8  C   UNL     1       5.123   5.224  17.568  0.00  0.00    +0.000 A 
ATOM      9  C   UNL     1       5.694   5.318  18.854  0.00  0.00    +0.000 A 
ATOM     10  F   UNL     1       4.951   5.653  19.916  0.00  0.00    +0.000 F 
ATOM     11  C   UNL     1       7.039   5.065  19.110  0.00  0.00    +0.000 A 
ATOM     12  C   UNL     1       7.877   4.700  18.076  0.00  0.00    +0.000 A 
ATOM     13  C   UNL     1       7.360   4.597  16.790  0.00  0.00    +0.000 A 
ATOM     14  C   UNL     1       5.997   4.856  16.509  0.00  0.00    +0.000 A 
BRANCH  14  15
ATOM     15  O   UNL     1       5.491   4.759  15.220  0.00  0.00    +0.000 OA
BRANCH  15  16
ATOM     16  C   UNL     1       6.476   4.457  14.209  0.00  0.00    +0.000 C 
BRANCH  16  17
ATOM     17  C   UNL     1       5.930   3.708  13.008  0.00  0.00    +0.000 C 
ATOM     18  F   UNL     1       4.568   3.797  13.040  0.00  0.00    +0.000 F 
ENDBRANCH  16  17
ENDBRANCH  15  16
ENDBRANCH  14  15
ENDBRANCH   4   8
BRANCH   5  19
ATOM     19  C   UNL     1       3.156   7.580  18.676  0.00  0.00    +0.000 C 
BRANCH  19  20
ATOM     20  C   UNL     1       1.928   8.457  18.808  0.00  0.00    +0.000 A 
ATOM     21  C   UNL     1       1.296   8.968  17.664  0.00  0.00    +0.000 A 
ATOM     22  C   UNL     1       0.136   9.740  17.776  0.00  0.00    +0.000 A 
ATOM     23  C   UNL     1      -0.418  10.012  19.029  0.00  0.00    +0.000 A 
ATOM     24  C   UNL     1       0.241   9.568  20.172  0.00  0.00    +0.000 A 
ATOM     25  C   UNL     1       1.384   8.770  20.062  0.00  0.00    +0.000 A 
BRANCH  23  26
ATOM     26  O   UNL     1      -1.546  10.775  19.020  0.00  0.00    +0.000 OA
BRANCH  26  27
ATOM     27  C   UNL     1      -1.413  12.187  18.908  0.00  0.00    +0.000 C 
ATOM     28  F   UNL     1      -0.246  12.686  19.363  0.00  0.00    +0.000 F 
ATOM     29  F   UNL     1      -1.553  12.542  17.610  0.00  0.00    +0.000 F 
ATOM     30  F   UNL     1      -2.411  12.773  19.610  0.00  0.00    +0.000 F 
ENDBRANCH  26  27
ENDBRANCH  23  26
ENDBRANCH  19  20
ENDBRANCH   5  19
TORSDOF 8
ENDMDL
MODEL 6
REMARK VINA RESULT:      -7.6      2.603      7.670
REMARK  Name = 
REMARK  9 active torsions:
REMARK  status: ('A' for Active; 'I' for Inactive)
REMARK    1  A    between atoms: C_1  and  C_2
REMARK    2  A    between atoms: C_4  and  C_5
REMARK    3  A    between atoms: C_11  and  O_12
REMARK    4  A    between atoms: O_12  and  C_13
REMARK    5  A    between atoms: C_13  and  C_14
REMARK    6  A    between atoms: N_16  and  C_17
REMARK    7  A    between atoms: C_17  and  C_18
REMARK    8  A    between atoms: C_21  and  O_22
REMARK    9  A    between atoms: O_22  and  C_23
REMARK                            x       y       z     vdW  Elec       q    Type
REMARK                         _______ _______ _______ _____ _____    ______ ____
ROOT
ATOM      1  C   UNL     1       0.853   2.412  18.853  0.00  0.00    +0.000 C 
ATOM      2  C   UNL     1       1.437   3.816  18.845  0.00  0.00    +0.000 C 
ATOM      3  C   UNL     1       1.132   4.627  20.110  0.00  0.00    +0.000 C 
ATOM      4  C   UNL     1       2.313   5.600  20.231  0.00  0.00    +0.000 C 
ATOM      5  N   UNL     1       3.407   4.778  19.709  0.00  0.00    +0.000 N 
ATOM      6  C   UNL     1       2.954   3.808  18.808  0.00  0.00    +0.000 C 
ATOM      7  O   UNL     1       3.621   3.095  18.080  0.00  0.00    +0.000 OA
ENDROOT
BRANCH   4   8
ATOM      8  C   UNL     1       2.057   6.939  19.534  0.00  0.00    +0.000 A 
ATOM      9  C   UNL     1       2.223   7.071  18.140  0.00  0.00    +0.000 A 
ATOM     10  F   UNL     1       2.657   6.046  17.397  0.00  0.00    +0.000 F 
ATOM     11  C   UNL     1       1.945   8.247  17.448  0.00  0.00    +0.000 A 
ATOM     12  C   UNL     1       1.479   9.351  18.132  0.00  0.00    +0.000 A 
ATOM     13  C   UNL     1       1.303   9.269  19.508  0.00  0.00    +0.000 A 
ATOM     14  C   UNL     1       1.586   8.086  20.229  0.00  0.00    +0.000 A 
BRANCH  14  15
ATOM     15  O   UNL     1       1.414   8.017  21.606  0.00  0.00    +0.000 OA
BRANCH  15  16
ATOM     16  C   UNL     1       1.233   9.294  22.253  0.00  0.00    +0.000 C 
BRANCH  16  17
ATOM     17  C   UNL     1      -0.081   9.435  22.999  0.00  0.00    +0.000 C 
ATOM     18  F   UNL     1      -0.947   8.500  22.508  0.00  0.00    +0.000 F 
ENDBRANCH  16  17
ENDBRANCH  15  16
ENDBRANCH  14  15
ENDBRANCH   4   8
BRANCH   5  19
ATOM     19  C   UNL     1       4.799   5.193  19.823  0.00  0.00    +0.000 C 
BRANCH  19  20
ATOM     20  C   UNL     1       5.557   5.331  18.520  0.00  0.00    +0.000 A 
ATOM     21  C   UNL     1       6.140   4.206  17.917  0.00  0.00    +0.000 A 
ATOM     22  C   UNL     1       6.804   4.318  16.691  0.00  0.00    +0.000 A 
ATOM     23  C   UNL     1       6.891   5.551  16.041  0.00  0.00    +0.000 A 
ATOM     24  C   UNL     1       6.376   6.684  16.665  0.00  0.00    +0.000 A 
ATOM     25  C   UNL     1       5.687   6.570  17.877  0.00  0.00    +0.000 A 
BRANCH  23  26
ATOM     26  O   UNL     1       7.560   5.545  14.855  0.00  0.00    +0.000 OA
BRANCH  26  27
ATOM     27  C   UNL     1       6.947   4.928  13.729  0.00  0.00    +0.000 C 
ATOM     28  F   UNL     1       7.439   5.313  12.534  0.00  0.00    +0.000 F 
ATOM     29  F   UNL     1       7.078   3.587  13.835  0.00  0.00    +0.000 F 
ATOM     30  F   UNL     1       5.626   5.221  13.742  0.00  0.00    +0.000 F 
ENDBRANCH  26  27
ENDBRANCH  23  26
ENDBRANCH  19  20
ENDBRANCH   5  19
TORSDOF 8
ENDMDL
MODEL 7
REMARK VINA RESULT:      -7.5      2.387      7.889
REMARK  Name = 
REMARK  9 active torsions:
REMARK  status: ('A' for Active; 'I' for Inactive)
REMARK    1  A    between atoms: C_1  and  C_2
REMARK    2  A    between atoms: C_4  and  C_5
REMARK    3  A    between atoms: C_11  and  O_12
REMARK    4  A    between atoms: O_12  and  C_13
REMARK    5  A    between atoms: C_13  and  C_14
REMARK    6  A    between atoms: N_16  and  C_17
REMARK    7  A    between atoms: C_17  and  C_18
REMARK    8  A    between atoms: C_21  and  O_22
REMARK    9  A    between atoms: O_22  and  C_23
REMARK                            x       y       z     vdW  Elec       q    Type
REMARK                         _______ _______ _______ _____ _____    ______ ____
ROOT
ATOM      1  C   UNL     1       1.003   2.797  19.640  0.00  0.00    +0.000 C 
ATOM      2  C   UNL     1       1.490   4.215  19.384  0.00  0.00    +0.000 C 
ATOM      3  C   UNL     1       1.449   5.121  20.620  0.00  0.00    +0.000 C 
ATOM      4  C   UNL     1       2.569   6.143  20.380  0.00  0.00    +0.000 C 
ATOM      5  N   UNL     1       3.553   5.318  19.673  0.00  0.00    +0.000 N 
ATOM      6  C   UNL     1       2.953   4.257  18.985  0.00  0.00    +0.000 C 
ATOM      7  O   UNL     1       3.467   3.507  18.174  0.00  0.00    +0.000 OA
ENDROOT
BRANCH   4   8
ATOM      8  C   UNL     1       2.082   7.405  19.665  0.00  0.00    +0.000 A 
ATOM      9  C   UNL     1       2.099   7.492  18.257  0.00  0.00    +0.000 A 
ATOM     10  F   UNL     1       2.590   6.494  17.512  0.00  0.00    +0.000 F 
ATOM     11  C   UNL     1       1.611   8.590  17.555  0.00  0.00    +0.000 A 
ATOM     12  C   UNL     1       1.075   9.660  18.243  0.00  0.00    +0.000 A 
ATOM     13  C   UNL     1       1.039   9.622  19.632  0.00  0.00    +0.000 A 
ATOM     14  C   UNL     1       1.536   8.517  20.363  0.00  0.00    +0.000 A 
BRANCH  14  15
ATOM     15  O   UNL     1       1.502   8.492  21.751  0.00  0.00    +0.000 OA
BRANCH  15  16
ATOM     16  C   UNL     1       0.177   8.527  22.320  0.00  0.00    +0.000 C 
BRANCH  16  17
ATOM     17  C   UNL     1      -0.092   9.733  23.202  0.00  0.00    +0.000 C 
ATOM     18  F   UNL     1      -0.685  10.692  22.433  0.00  0.00    +0.000 F 
ENDBRANCH  16  17
ENDBRANCH  15  16
ENDBRANCH  14  15
ENDBRANCH   4   8
BRANCH   5  19
ATOM     19  C   UNL     1       4.906   5.790  19.418  0.00  0.00    +0.000 C 
BRANCH  19  20
ATOM     20  C   UNL     1       5.432   5.567  18.016  0.00  0.00    +0.000 A 
ATOM     21  C   UNL     1       4.905   6.294  16.938  0.00  0.00    +0.000 A 
ATOM     22  C   UNL     1       5.416   6.127  15.647  0.00  0.00    +0.000 A 
ATOM     23  C   UNL     1       6.465   5.237  15.409  0.00  0.00    +0.000 A 
ATOM     24  C   UNL     1       6.947   4.461  16.460  0.00  0.00    +0.000 A 
ATOM     25  C   UNL     1       6.458   4.648  17.757  0.00  0.00    +0.000 A 
BRANCH  23  26
ATOM     26  O   UNL     1       6.883   5.152  14.116  0.00  0.00    +0.000 OA
BRANCH  26  27
ATOM     27  C   UNL     1       6.342   4.127  13.290  0.00  0.00    +0.000 C 
ATOM     28  F   UNL     1       5.043   4.288  12.963  0.00  0.00    +0.000 F 
ATOM     29  F   UNL     1       7.065   4.050  12.150  0.00  0.00    +0.000 F 
ATOM     30  F   UNL     1       6.457   2.944  13.938  0.00  0.00    +0.000 F 
ENDBRANCH  26  27
ENDBRANCH  23  26
ENDBRANCH  19  20
ENDBRANCH   5  19
TORSDOF 8
ENDMDL
MODEL 8
REMARK VINA RESULT:      -7.4      2.629      4.040
REMARK  Name = 
REMARK  9 active torsions:
REMARK  status: ('A' for Active; 'I' for Inactive)
REMARK    1  A    between atoms: C_1  and  C_2
REMARK    2  A    between atoms: C_4  and  C_5
REMARK    3  A    between atoms: C_11  and  O_12
REMARK    4  A    between atoms: O_12  and  C_13
REMARK    5  A    between atoms: C_13  and  C_14
REMARK    6  A    between atoms: N_16  and  C_17
REMARK    7  A    between atoms: C_17  and  C_18
REMARK    8  A    between atoms: C_21  and  O_22
REMARK    9  A    between atoms: O_22  and  C_23
REMARK                            x       y       z     vdW  Elec       q    Type
REMARK                         _______ _______ _______ _____ _____    ______ ____
ROOT
ATOM      1  C   UNL     1       7.843   6.567  17.928  0.00  0.00    +0.000 C 
ATOM      2  C   UNL     1       6.477   5.901  17.901  0.00  0.00    +0.000 C 
ATOM      3  C   UNL     1       5.871   5.663  19.289  0.00  0.00    +0.000 C 
ATOM      4  C   UNL     1       4.354   5.698  19.053  0.00  0.00    +0.000 C 
ATOM      5  N   UNL     1       4.261   6.699  17.987  0.00  0.00    +0.000 N 
ATOM      6  C   UNL     1       5.429   6.763  17.220  0.00  0.00    +0.000 C 
ATOM      7  O   UNL     1       5.603   7.358  16.172  0.00  0.00    +0.000 OA
ENDROOT
BRANCH   4   8
ATOM      8  C   UNL     1       3.764   4.316  18.760  0.00  0.00    +0.000 A 
ATOM      9  C   UNL     1       3.026   3.623  19.743  0.00  0.00    +0.000 A 
ATOM     10  F   UNL     1       2.867   4.130  20.971  0.00  0.00    +0.000 F 
ATOM     11  C   UNL     1       2.417   2.393  19.510  0.00  0.00    +0.000 A 
ATOM     12  C   UNL     1       2.518   1.801  18.267  0.00  0.00    +0.000 A 
ATOM     13  C   UNL     1       3.238   2.446  17.268  0.00  0.00    +0.000 A 
ATOM     14  C   UNL     1       3.870   3.693  17.487  0.00  0.00    +0.000 A 
BRANCH  14  15
ATOM     15  O   UNL     1       4.593   4.326  16.484  0.00  0.00    +0.000 OA
BRANCH  15  16
ATOM     16  C   UNL     1       5.493   3.462  15.757  0.00  0.00    +0.000 C 
BRANCH  16  17
ATOM     17  C   UNL     1       6.155   4.118  14.560  0.00  0.00    +0.000 C 
ATOM     18  F   UNL     1       7.361   4.615  14.964  0.00  0.00    +0.000 F 
ENDBRANCH  16  17
ENDBRANCH  15  16
ENDBRANCH  14  15
ENDBRANCH   4   8
BRANCH   5  19
ATOM     19  C   UNL     1       2.981   7.249  17.564  0.00  0.00    +0.000 C 
BRANCH  19  20
ATOM     20  C   UNL     1       2.210   8.018  18.616  0.00  0.00    +0.000 A 
ATOM     21  C   UNL     1       1.671   9.279  18.319  0.00  0.00    +0.000 A 
ATOM     22  C   UNL     1       0.919   9.976  19.271  0.00  0.00    +0.000 A 
ATOM     23  C   UNL     1       0.687   9.425  20.533  0.00  0.00    +0.000 A 
ATOM     24  C   UNL     1       1.275   8.206  20.859  0.00  0.00    +0.000 A 
ATOM     25  C   UNL     1       2.002   7.494  19.900  0.00  0.00    +0.000 A 
BRANCH  23  26
ATOM     26  O   UNL     1      -0.055  10.189  21.381  0.00  0.00    +0.000 OA
BRANCH  26  27
ATOM     27  C   UNL     1      -0.220   9.753  22.725  0.00  0.00    +0.000 C 
ATOM     28  F   UNL     1      -0.822  10.642  23.541  0.00  0.00    +0.000 F 
ATOM     29  F   UNL     1      -0.940   8.608  22.733  0.00  0.00    +0.000 F 
ATOM     30  F   UNL     1       1.000   9.481  23.244  0.00  0.00    +0.000 F 
ENDBRANCH  26  27
ENDBRANCH  23  26
ENDBRANCH  19  20
ENDBRANCH   5  19
TORSDOF 8
ENDMDL
MODEL 9
REMARK VINA RESULT:      -7.4      2.606      4.859
REMARK  Name = 
REMARK  9 active torsions:
REMARK  status: ('A' for Active; 'I' for Inactive)
REMARK    1  A    between atoms: C_1  and  C_2
REMARK    2  A    between atoms: C_4  and  C_5
REMARK    3  A    between atoms: C_11  and  O_12
REMARK    4  A    between atoms: O_12  and  C_13
REMARK    5  A    between atoms: C_13  and  C_14
REMARK    6  A    between atoms: N_16  and  C_17
REMARK    7  A    between atoms: C_17  and  C_18
REMARK    8  A    between atoms: C_21  and  O_22
REMARK    9  A    between atoms: O_22  and  C_23
REMARK                            x       y       z     vdW  Elec       q    Type
REMARK                         _______ _______ _______ _____ _____    ______ ____
ROOT
ATOM      1  C   UNL     1       8.100   6.567  18.559  0.00  0.00    +0.000 C 
ATOM      2  C   UNL     1       6.797   5.827  18.295  0.00  0.00    +0.000 C 
ATOM      3  C   UNL     1       5.980   5.533  19.559  0.00  0.00    +0.000 C 
ATOM      4  C   UNL     1       4.526   5.489  19.069  0.00  0.00    +0.000 C 
ATOM      5  N   UNL     1       4.557   6.501  18.010  0.00  0.00    +0.000 N 
ATOM      6  C   UNL     1       5.833   6.642  17.453  0.00  0.00    +0.000 C 
ATOM      7  O   UNL     1       6.147   7.263  16.454  0.00  0.00    +0.000 OA
ENDROOT
BRANCH   4   8
ATOM      8  C   UNL     1       4.073   4.082  18.670  0.00  0.00    +0.000 A 
ATOM      9  C   UNL     1       4.218   3.624  17.344  0.00  0.00    +0.000 A 
ATOM     10  F   UNL     1       4.708   4.424  16.389  0.00  0.00    +0.000 F 
ATOM     11  C   UNL     1       3.880   2.335  16.942  0.00  0.00    +0.000 A 
ATOM     12  C   UNL     1       3.380   1.438  17.864  0.00  0.00    +0.000 A 
ATOM     13  C   UNL     1       3.216   1.845  19.183  0.00  0.00    +0.000 A 
ATOM     14  C   UNL     1       3.547   3.153  19.609  0.00  0.00    +0.000 A 
BRANCH  14  15
ATOM     15  O   UNL     1       3.372   3.553  20.928  0.00  0.00    +0.000 OA
BRANCH  15  16
ATOM     16  C   UNL     1       2.014   3.459  21.408  0.00  0.00    +0.000 C 
BRANCH  16  17
ATOM     17  C   UNL     1       1.006   4.235  20.581  0.00  0.00    +0.000 C 
ATOM     18  F   UNL     1       0.341   3.347  19.785  0.00  0.00    +0.000 F 
ENDBRANCH  16  17
ENDBRANCH  15  16
ENDBRANCH  14  15
ENDBRANCH   4   8
BRANCH   5  19
ATOM     19  C   UNL     1       3.338   6.988  17.380  0.00  0.00    +0.000 C 
BRANCH  19  20
ATOM     20  C   UNL     1       2.424   7.817  18.259  0.00  0.00    +0.000 A 
ATOM     21  C   UNL     1       1.752   8.929  17.731  0.00  0.00    +0.000 A 
ATOM     22  C   UNL     1       0.871   9.672  18.523  0.00  0.00    +0.000 A 
ATOM     23  C   UNL     1       0.640   9.316  19.853  0.00  0.00    +0.000 A 
ATOM     24  C   UNL     1       1.355   8.255  20.404  0.00  0.00    +0.000 A 
ATOM     25  C   UNL     1       2.213   7.493  19.606  0.00  0.00    +0.000 A 
BRANCH  23  26
ATOM     26  O   UNL     1      -0.234  10.109  20.532  0.00  0.00    +0.000 OA
BRANCH  26  27
ATOM     27  C   UNL     1       0.273  10.978  21.537  0.00  0.00    +0.000 C 
ATOM     28  F   UNL     1      -0.483  12.069  21.779  0.00  0.00    +0.000 F 
ATOM     29  F   UNL     1       0.411  10.287  22.691  0.00  0.00    +0.000 F 
ATOM     30  F   UNL     1       1.500  11.407  21.160  0.00  0.00    +0.000 F 
ENDBRANCH  26  27
ENDBRANCH  23  26
ENDBRANCH  19  20
ENDBRANCH   5  19
TORSDOF 8
ENDMDL
