MODEL 1
REMARK VINA RESULT:      -8.1      0.000      0.000
REMARK  Name = 
REMARK  2 active torsions:
REMARK  status: ('A' for Active; 'I' for Inactive)
REMARK    1  A    between atoms: C_2  and  C_3
REMARK    2  A    between atoms: C_15  and  C_16
REMARK                            x       y       z     vdW  Elec       q    Type
REMARK                         _______ _______ _______ _____ _____    ______ ____
ROOT
ATOM      1  O   UNL     1       4.753   4.603  16.078  0.00  0.00    +0.000 OA
ATOM      2  C   UNL     1       4.912   4.611  17.299  0.00  0.00    +0.000 C 
ATOM      3  N   UNL     1       3.934   4.108  18.172  0.00  0.00    +0.000 N 
ATOM      4  C   UNL     1       2.806   3.340  17.661  0.00  0.00    +0.000 C 
ATOM      5  C   UNL     1       1.456   3.861  18.176  0.00  0.00    +0.000 C 
ATOM      6  O   UNL     1       1.444   4.153  19.584  0.00  0.00    +0.000 OA
ATOM      7  C   UNL     1       2.515   5.046  19.977  0.00  0.00    +0.000 C 
ATOM      8  C   UNL     1       3.858   4.373  19.616  0.00  0.00    +0.000 C 
ENDROOT
BRANCH   2   9
ATOM      9  C   UNL     1       6.155   5.157  17.892  0.00  0.00    +0.000 A 
ATOM     10  N   UNL     1       7.015   4.402  18.626  0.00  0.00    +0.000 NA
ATOM     11  N   UNL     1       7.996   5.242  19.017  0.00  0.00    +0.000 N 
ATOM     12  C   UNL     1       7.813   6.476  18.522  0.00  0.00    +0.000 A 
ATOM     13  C   UNL     1       6.666   6.467  17.790  0.00  0.00    +0.000 A 
ATOM     14  C   UNL     1       6.388   7.789  17.202  0.00  0.00    +0.000 C 
ATOM     15  C   UNL     1       7.598   8.658  17.724  0.00  0.00    +0.000 C 
ATOM     16  C   UNL     1       8.542   7.743  18.577  0.00  0.00    +0.000 C 
ATOM     17  H   UNL     1       8.737   4.884  19.612  0.00  0.00    +0.000 HD
ENDBRANCH   2   9
BRANCH   7  18
ATOM     18  C   UNL     1       2.304   6.467  19.449  0.00  0.00    +0.000 A 
ATOM     19  C   UNL     1       1.657   7.421  20.256  0.00  0.00    +0.000 A 
ATOM     20  C   UNL     1       1.397   8.707  19.779  0.00  0.00    +0.000 A 
ATOM     21  C   UNL     1       1.794   9.073  18.498  0.00  0.00    +0.000 A 
ATOM     22  C   UNL     1       2.484   8.163  17.703  0.00  0.00    +0.000 A 
ATOM     23  C   UNL     1       2.753   6.881  18.183  0.00  0.00    +0.000 A 
ENDBRANCH   7  18
TORSDOF 2
ENDMDL
MODEL 2
REMARK VINA RESULT:      -7.8      0.086      1.028
REMARK  Name = 
REMARK  2 active torsions:
REMARK  status: ('A' for Active; 'I' for Inactive)
REMARK    1  A    between atoms: C_2  and  C_3
REMARK    2  A    between atoms: C_15  and  C_16
REMARK                            x       y       z     vdW  Elec       q    Type
REMARK                         _______ _______ _______ _____ _____    ______ ____
ROOT
ATOM      1  O   UNL     1       4.710   4.597  16.100  0.00  0.00    +0.000 OA
ATOM      2  C   UNL     1       4.877   4.599  17.321  0.00  0.00    +0.000 C 
ATOM      3  N   UNL     1       3.911   4.079  18.196  0.00  0.00    +0.000 N 
ATOM      4  C   UNL     1       2.790   3.299  17.688  0.00  0.00    +0.000 C 
ATOM      5  C   UNL     1       1.436   3.799  18.213  0.00  0.00    +0.000 C 
ATOM      6  O   UNL     1       1.429   4.083  19.624  0.00  0.00    +0.000 OA
ATOM      7  C   UNL     1       2.490   4.987  20.016  0.00  0.00    +0.000 C 
ATOM      8  C   UNL     1       3.839   4.334  19.643  0.00  0.00    +0.000 C 
ENDROOT
BRANCH   2   9
ATOM      9  C   UNL     1       6.116   5.158  17.910  0.00  0.00    +0.000 A 
ATOM     10  N   UNL     1       6.969   4.421  18.670  0.00  0.00    +0.000 NA
ATOM     11  N   UNL     1       7.948   5.269  19.047  0.00  0.00    +0.000 N 
ATOM     12  C   UNL     1       7.771   6.490  18.520  0.00  0.00    +0.000 A 
ATOM     13  C   UNL     1       6.631   6.465  17.779  0.00  0.00    +0.000 A 
ATOM     14  C   UNL     1       6.360   7.771  17.155  0.00  0.00    +0.000 C 
ATOM     15  C   UNL     1       7.567   8.651  17.664  0.00  0.00    +0.000 C 
ATOM     16  C   UNL     1       8.503   7.756  18.548  0.00  0.00    +0.000 C 
ATOM     17  H   UNL     1       8.684   4.925  19.657  0.00  0.00    +0.000 HD
ENDBRANCH   2   9
BRANCH   7  18
ATOM     18  C   UNL     1       2.258   6.409  19.498  0.00  0.00    +0.000 A 
ATOM     19  C   UNL     1       2.623   6.738  18.180  0.00  0.00    +0.000 A 
ATOM     20  C   UNL     1       2.480   8.041  17.699  0.00  0.00    +0.000 A 
ATOM     21  C   UNL     1       1.953   9.035  18.516  0.00  0.00    +0.000 A 
ATOM     22  C   UNL     1       1.534   8.719  19.804  0.00  0.00    +0.000 A 
ATOM     23  C   UNL     1       1.668   7.414  20.282  0.00  0.00    +0.000 A 
ENDBRANCH   7  18
TORSDOF 2
ENDMDL
MODEL 3
REMARK VINA RESULT:      -7.7      1.998      2.323
REMARK  Name = 
REMARK  2 active torsions:
REMARK  status: ('A' for Active; 'I' for Inactive)
REMARK    1  A    between atoms: C_2  and  C_3
REMARK    2  A    between atoms: C_15  and  C_16
REMARK                            x       y       z     vdW  Elec       q    Type
REMARK                         _______ _______ _______ _____ _____    ______ ____
ROOT
ATOM      1  O   UNL     1       2.585   3.361  16.568  0.00  0.00    +0.000 OA
ATOM      2  C   UNL     1       3.303   3.529  17.554  0.00  0.00    +0.000 C 
ATOM      3  N   UNL     1       2.800   3.410  18.859  0.00  0.00    +0.000 N 
ATOM      4  C   UNL     1       1.478   2.846  19.098  0.00  0.00    +0.000 C 
ATOM      5  C   UNL     1       0.610   3.736  20.000  0.00  0.00    +0.000 C 
ATOM      6  O   UNL     1       1.304   4.247  21.153  0.00  0.00    +0.000 OA
ATOM      7  C   UNL     1       2.536   4.924  20.806  0.00  0.00    +0.000 C 
ATOM      8  C   UNL     1       3.451   3.915  20.078  0.00  0.00    +0.000 C 
ENDROOT
BRANCH   2   9
ATOM      9  C   UNL     1       4.737   3.867  17.392  0.00  0.00    +0.000 A 
ATOM     10  N   UNL     1       5.620   3.847  18.426  0.00  0.00    +0.000 NA
ATOM     11  N   UNL     1       6.801   4.238  17.904  0.00  0.00    +0.000 N 
ATOM     12  C   UNL     1       6.707   4.456  16.583  0.00  0.00    +0.000 A 
ATOM     13  C   UNL     1       5.420   4.219  16.210  0.00  0.00    +0.000 A 
ATOM     14  C   UNL     1       5.226   4.431  14.766  0.00  0.00    +0.000 C 
ATOM     15  C   UNL     1       6.665   4.869  14.287  0.00  0.00    +0.000 C 
ATOM     16  C   UNL     1       7.633   4.847  15.520  0.00  0.00    +0.000 C 
ATOM     17  H   UNL     1       7.603   4.324  18.521  0.00  0.00    +0.000 HD
ENDBRANCH   2   9
BRANCH   7  18
ATOM     18  C   UNL     1       2.283   6.252  20.088  0.00  0.00    +0.000 A 
ATOM     19  C   UNL     1       1.565   7.271  20.739  0.00  0.00    +0.000 A 
ATOM     20  C   UNL     1       1.266   8.469  20.088  0.00  0.00    +0.000 A 
ATOM     21  C   UNL     1       1.694   8.681  18.782  0.00  0.00    +0.000 A 
ATOM     22  C   UNL     1       2.452   7.710  18.138  0.00  0.00    +0.000 A 
ATOM     23  C   UNL     1       2.761   6.516  18.793  0.00  0.00    +0.000 A 
ENDBRANCH   7  18
TORSDOF 2
ENDMDL
MODEL 4
REMARK VINA RESULT:      -7.7      2.007      2.553
REMARK  Name = 
REMARK  2 active torsions:
REMARK  status: ('A' for Active; 'I' for Inactive)
REMARK    1  A    between atoms: C_2  and  C_3
REMARK    2  A    between atoms: C_15  and  C_16
REMARK                            x       y       z     vdW  Elec       q    Type
REMARK                         _______ _______ _______ _____ _____    ______ ____
ROOT
ATOM      1  O   UNL     1       2.585   3.285  16.591  0.00  0.00    +0.000 OA
ATOM      2  C   UNL     1       3.300   3.462  17.579  0.00  0.00    +0.000 C 
ATOM      3  N   UNL     1       2.799   3.326  18.883  0.00  0.00    +0.000 N 
ATOM      4  C   UNL     1       1.487   2.736  19.118  0.00  0.00    +0.000 C 
ATOM      5  C   UNL     1       0.603   3.605  20.025  0.00  0.00    +0.000 C 
ATOM      6  O   UNL     1       1.286   4.122  21.180  0.00  0.00    +0.000 OA
ATOM      7  C   UNL     1       2.506   4.825  20.838  0.00  0.00    +0.000 C 
ATOM      8  C   UNL     1       3.439   3.837  20.105  0.00  0.00    +0.000 C 
ENDROOT
BRANCH   2   9
ATOM      9  C   UNL     1       4.727   3.827  17.420  0.00  0.00    +0.000 A 
ATOM     10  N   UNL     1       5.607   3.829  18.455  0.00  0.00    +0.000 NA
ATOM     11  N   UNL     1       6.782   4.241  17.935  0.00  0.00    +0.000 N 
ATOM     12  C   UNL     1       6.687   4.453  16.613  0.00  0.00    +0.000 A 
ATOM     13  C   UNL     1       5.407   4.189  16.238  0.00  0.00    +0.000 A 
ATOM     14  C   UNL     1       5.212   4.392  14.792  0.00  0.00    +0.000 C 
ATOM     15  C   UNL     1       6.643   4.856  14.315  0.00  0.00    +0.000 C 
ATOM     16  C   UNL     1       7.608   4.858  15.552  0.00  0.00    +0.000 C 
ATOM     17  H   UNL     1       7.580   4.346  18.554  0.00  0.00    +0.000 HD
ENDBRANCH   2   9
BRANCH   7  18
ATOM     18  C   UNL     1       2.228   6.151  20.126  0.00  0.00    +0.000 A 
ATOM     19  C   UNL     1       2.690   6.347  18.812  0.00  0.00    +0.000 A 
ATOM     20  C   UNL     1       2.505   7.567  18.160  0.00  0.00    +0.000 A 
ATOM     21  C   UNL     1       1.839   8.608  18.797  0.00  0.00    +0.000 A 
ATOM     22  C   UNL     1       1.326   8.418  20.075  0.00  0.00    +0.000 A 
ATOM     23  C   UNL     1       1.501   7.195  20.724  0.00  0.00    +0.000 A 
ENDBRANCH   7  18
TORSDOF 2
ENDMDL
MODEL 5
REMARK VINA RESULT:      -7.6      2.451      6.201
REMARK  Name = 
REMARK  2 active torsions:
REMARK  status: ('A' for Active; 'I' for Inactive)
REMARK    1  A    between atoms: C_2  and  C_3
REMARK    2  A    between atoms: C_15  and  C_16
REMARK                            x       y       z     vdW  Elec       q    Type
REMARK                         _______ _______ _______ _____ _____    ______ ____
ROOT
ATOM      1  O   UNL     1       3.246   6.879  17.333  0.00  0.00    +0.000 OA
ATOM      2  C   UNL     1       3.828   5.895  17.793  0.00  0.00    +0.000 C 
ATOM      3  N   UNL     1       5.201   5.923  18.083  0.00  0.00    +0.000 N 
ATOM      4  C   UNL     1       5.936   7.181  18.083  0.00  0.00    +0.000 C 
ATOM      5  C   UNL     1       7.215   7.118  17.234  0.00  0.00    +0.000 C 
ATOM      6  O   UNL     1       7.992   5.925  17.441  0.00  0.00    +0.000 OA
ATOM      7  C   UNL     1       7.212   4.716  17.273  0.00  0.00    +0.000 C 
ATOM      8  C   UNL     1       6.056   4.745  18.297  0.00  0.00    +0.000 C 
ENDROOT
BRANCH   2   9
ATOM      9  C   UNL     1       3.090   4.639  18.056  0.00  0.00    +0.000 A 
ATOM     10  N   UNL     1       2.859   3.704  17.096  0.00  0.00    +0.000 NA
ATOM     11  N   UNL     1       2.140   2.733  17.697  0.00  0.00    +0.000 N 
ATOM     12  C   UNL     1       1.951   2.996  19.000  0.00  0.00    +0.000 A 
ATOM     13  C   UNL     1       2.548   4.186  19.277  0.00  0.00    +0.000 A 
ATOM     14  C   UNL     1       2.393   4.554  20.695  0.00  0.00    +0.000 C 
ATOM     15  C   UNL     1       1.555   3.347  21.272  0.00  0.00    +0.000 C 
ATOM     16  C   UNL     1       1.303   2.314  20.119  0.00  0.00    +0.000 C 
ATOM     17  H   UNL     1       1.829   1.941  17.142  0.00  0.00    +0.000 HD
ENDBRANCH   2   9
BRANCH   7  18
ATOM     18  C   UNL     1       6.820   4.480  15.813  0.00  0.00    +0.000 A 
ATOM     19  C   UNL     1       5.707   3.674  15.512  0.00  0.00    +0.000 A 
ATOM     20  C   UNL     1       5.361   3.391  14.189  0.00  0.00    +0.000 A 
ATOM     21  C   UNL     1       6.106   3.922  13.142  0.00  0.00    +0.000 A 
ATOM     22  C   UNL     1       7.177   4.766  13.415  0.00  0.00    +0.000 A 
ATOM     23  C   UNL     1       7.517   5.057  14.737  0.00  0.00    +0.000 A 
ENDBRANCH   7  18
TORSDOF 2
ENDMDL
MODEL 6
REMARK VINA RESULT:      -7.5      2.436      6.219
REMARK  Name = 
REMARK  2 active torsions:
REMARK  status: ('A' for Active; 'I' for Inactive)
REMARK    1  A    between atoms: C_2  and  C_3
REMARK    2  A    between atoms: C_15  and  C_16
REMARK                            x       y       z     vdW  Elec       q    Type
REMARK                         _______ _______ _______ _____ _____    ______ ____
ROOT
ATOM      1  O   UNL     1       3.183   6.864  17.309  0.00  0.00    +0.000 OA
ATOM      2  C   UNL     1       3.777   5.903  17.799  0.00  0.00    +0.000 C 
ATOM      3  N   UNL     1       5.149   5.956  18.090  0.00  0.00    +0.000 N 
ATOM      4  C   UNL     1       5.869   7.223  18.052  0.00  0.00    +0.000 C 
ATOM      5  C   UNL     1       7.150   7.149  17.207  0.00  0.00    +0.000 C 
ATOM      6  O   UNL     1       7.941   5.972  17.452  0.00  0.00    +0.000 OA
ATOM      7  C   UNL     1       7.176   4.750  17.321  0.00  0.00    +0.000 C 
ATOM      8  C   UNL     1       6.018   4.796  18.342  0.00  0.00    +0.000 C 
ENDROOT
BRANCH   2   9
ATOM      9  C   UNL     1       3.054   4.646  18.101  0.00  0.00    +0.000 A 
ATOM     10  N   UNL     1       2.809   3.692  17.163  0.00  0.00    +0.000 NA
ATOM     11  N   UNL     1       2.111   2.727  17.797  0.00  0.00    +0.000 N 
ATOM     12  C   UNL     1       1.947   3.012  19.098  0.00  0.00    +0.000 A 
ATOM     13  C   UNL     1       2.541   4.212  19.341  0.00  0.00    +0.000 A 
ATOM     14  C   UNL     1       2.414   4.604  20.755  0.00  0.00    +0.000 C 
ATOM     15  C   UNL     1       1.597   3.402  21.372  0.00  0.00    +0.000 C 
ATOM     16  C   UNL     1       1.329   2.346  20.244  0.00  0.00    +0.000 C 
ATOM     17  H   UNL     1       1.794   1.923  17.263  0.00  0.00    +0.000 HD
ENDBRANCH   2   9
BRANCH   7  18
ATOM     18  C   UNL     1       6.789   4.463  15.868  0.00  0.00    +0.000 A 
ATOM     19  C   UNL     1       7.564   4.997  14.823  0.00  0.00    +0.000 A 
ATOM     20  C   UNL     1       7.202   4.804  13.488  0.00  0.00    +0.000 A 
ATOM     21  C   UNL     1       6.071   4.059  13.171  0.00  0.00    +0.000 A 
ATOM     22  C   UNL     1       5.321   3.476  14.186  0.00  0.00    +0.000 A 
ATOM     23  C   UNL     1       5.689   3.660  15.520  0.00  0.00    +0.000 A 
ENDBRANCH   7  18
TORSDOF 2
ENDMDL
MODEL 7
REMARK VINA RESULT:      -7.1      1.868      4.982
REMARK  Name = 
REMARK  2 active torsions:
REMARK  status: ('A' for Active; 'I' for Inactive)
REMARK    1  A    between atoms: C_2  and  C_3
REMARK    2  A    between atoms: C_15  and  C_16
REMARK                            x       y       z     vdW  Elec       q    Type
REMARK                         _______ _______ _______ _____ _____    ______ ____
ROOT
ATOM      1  O   UNL     1       5.787   4.197  20.038  0.00  0.00    +0.000 OA
ATOM      2  C   UNL     1       5.219   4.098  18.949  0.00  0.00    +0.000 C 
ATOM      3  N   UNL     1       5.612   4.868  17.843  0.00  0.00    +0.000 N 
ATOM      4  C   UNL     1       6.854   5.629  17.871  0.00  0.00    +0.000 C 
ATOM      5  C   UNL     1       6.657   7.096  17.458  0.00  0.00    +0.000 C 
ATOM      6  O   UNL     1       5.830   7.266  16.294  0.00  0.00    +0.000 OA
ATOM      7  C   UNL     1       4.551   6.598  16.416  0.00  0.00    +0.000 C 
ATOM      8  C   UNL     1       4.815   5.091  16.627  0.00  0.00    +0.000 C 
ENDROOT
BRANCH   2   9
ATOM      9  C   UNL     1       4.092   3.154  18.770  0.00  0.00    +0.000 A 
ATOM     10  N   UNL     1       4.119   2.136  17.870  0.00  0.00    +0.000 NA
ATOM     11  N   UNL     1       2.920   1.525  17.974  0.00  0.00    +0.000 N 
ATOM     12  C   UNL     1       2.163   2.086  18.930  0.00  0.00    +0.000 A 
ATOM     13  C   UNL     1       2.870   3.114  19.473  0.00  0.00    +0.000 A 
ATOM     14  C   UNL     1       2.112   3.789  20.541  0.00  0.00    +0.000 C 
ATOM     15  C   UNL     1       0.756   2.981  20.563  0.00  0.00    +0.000 C 
ATOM     16  C   UNL     1       0.837   1.836  19.494  0.00  0.00    +0.000 C 
ATOM     17  H   UNL     1       2.715   0.745  17.358  0.00  0.00    +0.000 HD
ENDBRANCH   2   9
BRANCH   7  18
ATOM     18  C   UNL     1       3.640   7.278  17.442  0.00  0.00    +0.000 A 
ATOM     19  C   UNL     1       3.263   6.584  18.606  0.00  0.00    +0.000 A 
ATOM     20  C   UNL     1       2.385   7.154  19.530  0.00  0.00    +0.000 A 
ATOM     21  C   UNL     1       1.883   8.434  19.321  0.00  0.00    +0.000 A 
ATOM     22  C   UNL     1       2.286   9.159  18.205  0.00  0.00    +0.000 A 
ATOM     23  C   UNL     1       3.172   8.593  17.286  0.00  0.00    +0.000 A 
ENDBRANCH   7  18
TORSDOF 2
ENDMDL
MODEL 8
REMARK VINA RESULT:      -7.1      2.569      5.484
REMARK  Name = 
REMARK  2 active torsions:
REMARK  status: ('A' for Active; 'I' for Inactive)
REMARK    1  A    between atoms: C_2  and  C_3
REMARK    2  A    between atoms: C_15  and  C_16
REMARK                            x       y       z     vdW  Elec       q    Type
REMARK                         _______ _______ _______ _____ _____    ______ ____
ROOT
ATOM      1  O   UNL     1       2.585   5.158  21.332  0.00  0.00    +0.000 OA
ATOM      2  C   UNL     1       2.214   5.389  20.181  0.00  0.00    +0.000 C 
ATOM      3  N   UNL     1       1.955   4.353  19.270  0.00  0.00    +0.000 N 
ATOM      4  C   UNL     1       1.877   2.970  19.720  0.00  0.00    +0.000 C 
ATOM      5  C   UNL     1       2.758   2.027  18.885  0.00  0.00    +0.000 C 
ATOM      6  O   UNL     1       2.659   2.243  17.466  0.00  0.00    +0.000 OA
ATOM      7  C   UNL     1       2.899   3.623  17.095  0.00  0.00    +0.000 C 
ATOM      8  C   UNL     1       1.849   4.502  17.810  0.00  0.00    +0.000 C 
ENDROOT
BRANCH   2   9
ATOM      9  C   UNL     1       2.029   6.783  19.715  0.00  0.00    +0.000 A 
ATOM     10  N   UNL     1       2.510   7.234  18.526  0.00  0.00    +0.000 NA
ATOM     11  N   UNL     1       2.177   8.540  18.469  0.00  0.00    +0.000 N 
ATOM     12  C   UNL     1       1.471   8.916  19.547  0.00  0.00    +0.000 A 
ATOM     13  C   UNL     1       1.338   7.832  20.358  0.00  0.00    +0.000 A 
ATOM     14  C   UNL     1       0.567   8.153  21.571  0.00  0.00    +0.000 C 
ATOM     15  C   UNL     1       0.239   9.685  21.373  0.00  0.00    +0.000 C 
ATOM     16  C   UNL     1       0.833  10.152  19.999  0.00  0.00    +0.000 C 
ATOM     17  H   UNL     1       2.474   9.085  17.665  0.00  0.00    +0.000 HD
ENDBRANCH   2   9
BRANCH   7  18
ATOM     18  C   UNL     1       4.363   4.025  17.284  0.00  0.00    +0.000 A 
ATOM     19  C   UNL     1       5.241   3.995  16.185  0.00  0.00    +0.000 A 
ATOM     20  C   UNL     1       6.596   4.298  16.338  0.00  0.00    +0.000 A 
ATOM     21  C   UNL     1       7.096   4.655  17.585  0.00  0.00    +0.000 A 
ATOM     22  C   UNL     1       6.236   4.743  18.675  0.00  0.00    +0.000 A 
ATOM     23  C   UNL     1       4.880   4.451  18.519  0.00  0.00    +0.000 A 
ENDBRANCH   7  18
TORSDOF 2
ENDMDL
MODEL 9
REMARK VINA RESULT:      -7.1      1.864      4.997
REMARK  Name = 
REMARK  2 active torsions:
REMARK  status: ('A' for Active; 'I' for Inactive)
REMARK    1  A    between atoms: C_2  and  C_3
REMARK    2  A    between atoms: C_15  and  C_16
REMARK                            x       y       z     vdW  Elec       q    Type
REMARK                         _______ _______ _______ _____ _____    ______ ____
ROOT
ATOM      1  O   UNL     1       5.750   4.266  20.073  0.00  0.00    +0.000 OA
ATOM      2  C   UNL     1       5.188   4.149  18.983  0.00  0.00    +0.000 C 
ATOM      3  N   UNL     1       5.563   4.926  17.876  0.00  0.00    +0.000 N 
ATOM      4  C   UNL     1       6.784   5.722  17.905  0.00  0.00    +0.000 C 
ATOM      5  C   UNL     1       6.547   7.181  17.488  0.00  0.00    +0.000 C 
ATOM      6  O   UNL     1       5.719   7.326  16.321  0.00  0.00    +0.000 OA
ATOM      7  C   UNL     1       4.458   6.623  16.442  0.00  0.00    +0.000 C 
ATOM      8  C   UNL     1       4.763   5.124  16.657  0.00  0.00    +0.000 C 
ENDROOT
BRANCH   2   9
ATOM      9  C   UNL     1       4.087   3.174  18.804  0.00  0.00    +0.000 A 
ATOM     10  N   UNL     1       4.165   2.125  17.942  0.00  0.00    +0.000 NA
ATOM     11  N   UNL     1       2.976   1.491  18.031  0.00  0.00    +0.000 N 
ATOM     12  C   UNL     1       2.178   2.069  18.942  0.00  0.00    +0.000 A 
ATOM     13  C   UNL     1       2.845   3.131  19.469  0.00  0.00    +0.000 A 
ATOM     14  C   UNL     1       2.040   3.825  20.489  0.00  0.00    +0.000 C 
ATOM     15  C   UNL     1       0.701   2.989  20.497  0.00  0.00    +0.000 C 
ATOM     16  C   UNL     1       0.841   1.808  19.474  0.00  0.00    +0.000 C 
ATOM     17  H   UNL     1       2.808   0.685  17.437  0.00  0.00    +0.000 HD
ENDBRANCH   2   9
BRANCH   7  18
ATOM     18  C   UNL     1       3.527   7.280  17.463  0.00  0.00    +0.000 A 
ATOM     19  C   UNL     1       3.027   8.572  17.220  0.00  0.00    +0.000 A 
ATOM     20  C   UNL     1       2.225   9.221  18.161  0.00  0.00    +0.000 A 
ATOM     21  C   UNL     1       1.890   8.587  19.352  0.00  0.00    +0.000 A 
ATOM     22  C   UNL     1       2.328   7.289  19.589  0.00  0.00    +0.000 A 
ATOM     23  C   UNL     1       3.121   6.636  18.644  0.00  0.00    +0.000 A 
ENDBRANCH   7  18
TORSDOF 2
ENDMDL
