MODEL 1
REMARK VINA RESULT:      -9.4      0.000      0.000
REMARK  Name = 
REMARK  4 active torsions:
REMARK  status: ('A' for Active; 'I' for Inactive)
REMARK    1  A    between atoms: C_1  and  C_2
REMARK    2  A    between atoms: C_7  and  C_9
REMARK    3  A    between atoms: C_11  and  C_12
REMARK    4  A    between atoms: C_12  and  C_15
REMARK                            x       y       z     vdW  Elec       q    Type
REMARK                         _______ _______ _______ _____ _____    ______ ____
ROOT
ATOM      1  C   UNL     1       3.199   6.023  19.173  0.00  0.00    +0.000 A 
ATOM      2  C   UNL     1       4.452   6.121  18.523  0.00  0.00    +0.000 A 
ATOM      3  C   UNL     1       5.355   5.051  18.513  0.00  0.00    +0.000 A 
ATOM      4  C   UNL     1       4.968   3.866  19.150  0.00  0.00    +0.000 A 
ATOM      5  C   UNL     1       3.720   3.752  19.787  0.00  0.00    +0.000 A 
ATOM      6  C   UNL     1       3.368   2.558  20.431  0.00  0.00    +0.000 A 
ATOM      7  C   UNL     1       2.144   2.446  21.076  0.00  0.00    +0.000 A 
ATOM      8  C   UNL     1       1.304   3.535  21.046  0.00  0.00    +0.000 A 
ATOM      9  N   UNL     1       1.607   4.699  20.432  0.00  0.00    +0.000 NA
ATOM     10  C   UNL     1       2.808   4.832  19.807  0.00  0.00    +0.000 A 
ENDROOT
BRANCH   1  17
ATOM     11  C   UNL     1      -0.948  10.486  23.091  0.00  0.00    +0.000 C 
ATOM     12  C   UNL     1      -0.147  10.148  21.888  0.00  0.00    +0.000 A 
ATOM     13  C   UNL     1      -0.034  10.900  20.735  0.00  0.00    +0.000 A 
ATOM     14  S   UNL     1       0.926  10.066  19.589  0.00  0.00    +0.000 S 
ATOM     15  C   UNL     1       1.130   8.789  20.696  0.00  0.00    +0.000 A 
ATOM     16  N   UNL     1       1.874   7.675  20.412  0.00  0.00    +0.000 N 
ATOM     17  C   UNL     1       2.346   7.266  19.187  0.00  0.00    +0.000 C 
ATOM     18  O   UNL     1       2.122   7.813  18.111  0.00  0.00    +0.000 OA
ATOM     19  N   UNL     1       0.565   8.958  21.871  0.00  0.00    +0.000 NA
ATOM     20  H   UNL     1       2.036   7.073  21.217  0.00  0.00    +0.000 HD
ENDBRANCH   1  17
BRANCH   3  21
ATOM     21  C   UNL     1       6.730   5.172  17.860  0.00  0.00    +0.000 C 
ATOM     22  F   UNL     1       7.266   6.411  18.095  0.00  0.00    +0.000 F 
ATOM     23  F   UNL     1       7.612   4.318  18.472  0.00  0.00    +0.000 F 
BRANCH  21  24
ATOM     24  C   UNL     1       6.670   4.890  16.388  0.00  0.00    +0.000 A 
ATOM     25  C   UNL     1       5.859   3.913  15.851  0.00  0.00    +0.000 A 
ATOM     26  N   UNL     1       5.815   3.618  14.536  0.00  0.00    +0.000 NA
ATOM     27  C   UNL     1       6.616   4.346  13.744  0.00  0.00    +0.000 A 
ATOM     28  N   UNL     1       7.429   5.333  14.147  0.00  0.00    +0.000 NA
ATOM     29  C   UNL     1       7.429   5.588  15.470  0.00  0.00    +0.000 A 
ENDBRANCH  21  24
ENDBRANCH   3  21
TORSDOF 3
ENDMDL
MODEL 2
REMARK VINA RESULT:      -9.3      1.427      1.475
REMARK  Name = 
REMARK  4 active torsions:
REMARK  status: ('A' for Active; 'I' for Inactive)
REMARK    1  A    between atoms: C_1  and  C_2
REMARK    2  A    between atoms: C_7  and  C_9
REMARK    3  A    between atoms: C_11  and  C_12
REMARK    4  A    between atoms: C_12  and  C_15
REMARK                            x       y       z     vdW  Elec       q    Type
REMARK                         _______ _______ _______ _____ _____    ______ ____
ROOT
ATOM      1  C   UNL     1       3.282   5.879  17.932  0.00  0.00    +0.000 A 
ATOM      2  C   UNL     1       4.562   6.057  17.355  0.00  0.00    +0.000 A 
ATOM      3  C   UNL     1       5.371   4.964  17.021  0.00  0.00    +0.000 A 
ATOM      4  C   UNL     1       4.863   3.681  17.255  0.00  0.00    +0.000 A 
ATOM      5  C   UNL     1       3.587   3.491  17.815  0.00  0.00    +0.000 A 
ATOM      6  C   UNL     1       3.112   2.195  18.054  0.00  0.00    +0.000 A 
ATOM      7  C   UNL     1       1.860   2.002  18.621  0.00  0.00    +0.000 A 
ATOM      8  C   UNL     1       1.116   3.118  18.924  0.00  0.00    +0.000 A 
ATOM      9  N   UNL     1       1.540   4.382  18.704  0.00  0.00    +0.000 NA
ATOM     10  C   UNL     1       2.769   4.591  18.161  0.00  0.00    +0.000 A 
ENDROOT
BRANCH   1  17
ATOM     11  C   UNL     1      -0.107   9.517  23.199  0.00  0.00    +0.000 C 
ATOM     12  C   UNL     1       0.548   9.428  21.870  0.00  0.00    +0.000 A 
ATOM     13  C   UNL     1       0.613  10.423  20.915  0.00  0.00    +0.000 A 
ATOM     14  S   UNL     1       1.391   9.831  19.510  0.00  0.00    +0.000 S 
ATOM     15  C   UNL     1       1.594   8.318  20.266  0.00  0.00    +0.000 A 
ATOM     16  N   UNL     1       2.216   7.263  19.654  0.00  0.00    +0.000 N 
ATOM     17  C   UNL     1       2.537   7.129  18.323  0.00  0.00    +0.000 C 
ATOM     18  O   UNL     1       2.259   7.926  17.432  0.00  0.00    +0.000 OA
ATOM     19  N   UNL     1       1.157   8.237  21.503  0.00  0.00    +0.000 NA
ATOM     20  H   UNL     1       2.404   6.480  20.277  0.00  0.00    +0.000 HD
ENDBRANCH   1  17
BRANCH   3  21
ATOM     21  C   UNL     1       6.774   5.154  16.449  0.00  0.00    +0.000 C 
ATOM     22  F   UNL     1       7.226   6.424  16.699  0.00  0.00    +0.000 F 
ATOM     23  F   UNL     1       7.663   4.357  17.125  0.00  0.00    +0.000 F 
BRANCH  21  24
ATOM     24  C   UNL     1       6.819   4.852  14.981  0.00  0.00    +0.000 A 
ATOM     25  C   UNL     1       6.030   3.885  14.397  0.00  0.00    +0.000 A 
ATOM     26  N   UNL     1       6.079   3.572  13.085  0.00  0.00    +0.000 NA
ATOM     27  C   UNL     1       6.952   4.273  12.347  0.00  0.00    +0.000 A 
ATOM     28  N   UNL     1       7.753   5.249  12.798  0.00  0.00    +0.000 NA
ATOM     29  C   UNL     1       7.660   5.522  14.114  0.00  0.00    +0.000 A 
ENDBRANCH  21  24
ENDBRANCH   3  21
TORSDOF 3
ENDMDL
MODEL 3
REMARK VINA RESULT:      -8.9      2.084      2.571
REMARK  Name = 
REMARK  4 active torsions:
REMARK  status: ('A' for Active; 'I' for Inactive)
REMARK    1  A    between atoms: C_1  and  C_2
REMARK    2  A    between atoms: C_7  and  C_9
REMARK    3  A    between atoms: C_11  and  C_12
REMARK    4  A    between atoms: C_12  and  C_15
REMARK                            x       y       z     vdW  Elec       q    Type
REMARK                         _______ _______ _______ _____ _____    ______ ____
ROOT
ATOM      1  C   UNL     1       2.980   5.834  18.115  0.00  0.00    +0.000 A 
ATOM      2  C   UNL     1       4.247   6.028  17.513  0.00  0.00    +0.000 A 
ATOM      3  C   UNL     1       5.070   4.946  17.180  0.00  0.00    +0.000 A 
ATOM      4  C   UNL     1       4.591   3.657  17.440  0.00  0.00    +0.000 A 
ATOM      5  C   UNL     1       3.328   3.451  18.023  0.00  0.00    +0.000 A 
ATOM      6  C   UNL     1       2.881   2.149  18.286  0.00  0.00    +0.000 A 
ATOM      7  C   UNL     1       1.643   1.940  18.877  0.00  0.00    +0.000 A 
ATOM      8  C   UNL     1       0.883   3.047  19.178  0.00  0.00    +0.000 A 
ATOM      9  N   UNL     1       1.279   4.315  18.934  0.00  0.00    +0.000 NA
ATOM     10  C   UNL     1       2.496   4.540  18.369  0.00  0.00    +0.000 A 
ENDROOT
BRANCH   1  17
ATOM     11  C   UNL     1      -0.143   9.610  23.447  0.00  0.00    +0.000 C 
ATOM     12  C   UNL     1       0.413   9.477  22.078  0.00  0.00    +0.000 A 
ATOM     13  C   UNL     1       0.367  10.425  21.074  0.00  0.00    +0.000 A 
ATOM     14  S   UNL     1       1.060   9.791  19.643  0.00  0.00    +0.000 S 
ATOM     15  C   UNL     1       1.378   8.327  20.452  0.00  0.00    +0.000 A 
ATOM     16  N   UNL     1       1.993   7.264  19.845  0.00  0.00    +0.000 N 
ATOM     17  C   UNL     1       2.218   7.075  18.502  0.00  0.00    +0.000 C 
ATOM     18  O   UNL     1       1.843   7.816  17.598  0.00  0.00    +0.000 OA
ATOM     19  N   UNL     1       1.039   8.292  21.722  0.00  0.00    +0.000 NA
ATOM     20  H   UNL     1       2.258   6.521  20.489  0.00  0.00    +0.000 HD
ENDBRANCH   1  17
BRANCH   3  21
ATOM     21  C   UNL     1       6.460   5.155  16.583  0.00  0.00    +0.000 C 
ATOM     22  F   UNL     1       7.180   3.989  16.621  0.00  0.00    +0.000 F 
ATOM     23  F   UNL     1       6.354   5.425  15.242  0.00  0.00    +0.000 F 
BRANCH  21  24
ATOM     24  C   UNL     1       7.200   6.260  17.278  0.00  0.00    +0.000 A 
ATOM     25  C   UNL     1       7.823   6.086  18.495  0.00  0.00    +0.000 A 
ATOM     26  N   UNL     1       8.464   7.073  19.154  0.00  0.00    +0.000 NA
ATOM     27  C   UNL     1       8.477   8.271  18.550  0.00  0.00    +0.000 A 
ATOM     28  N   UNL     1       7.926   8.554  17.360  0.00  0.00    +0.000 NA
ATOM     29  C   UNL     1       7.303   7.529  16.745  0.00  0.00    +0.000 A 
ENDBRANCH  21  24
ENDBRANCH   3  21
TORSDOF 3
ENDMDL
MODEL 4
REMARK VINA RESULT:      -8.6      2.385      2.947
REMARK  Name = 
REMARK  4 active torsions:
REMARK  status: ('A' for Active; 'I' for Inactive)
REMARK    1  A    between atoms: C_1  and  C_2
REMARK    2  A    between atoms: C_7  and  C_9
REMARK    3  A    between atoms: C_11  and  C_12
REMARK    4  A    between atoms: C_12  and  C_15
REMARK                            x       y       z     vdW  Elec       q    Type
REMARK                         _______ _______ _______ _____ _____    ______ ____
ROOT
ATOM      1  C   UNL     1       2.676   5.839  18.661  0.00  0.00    +0.000 A 
ATOM      2  C   UNL     1       3.816   6.117  17.869  0.00  0.00    +0.000 A 
ATOM      3  C   UNL     1       4.476   5.107  17.160  0.00  0.00    +0.000 A 
ATOM      4  C   UNL     1       3.957   3.810  17.238  0.00  0.00    +0.000 A 
ATOM      5  C   UNL     1       2.816   3.524  18.009  0.00  0.00    +0.000 A 
ATOM      6  C   UNL     1       2.330   2.212  18.082  0.00  0.00    +0.000 A 
ATOM      7  C   UNL     1       1.214   1.921  18.855  0.00  0.00    +0.000 A 
ATOM      8  C   UNL     1       0.613   2.961  19.526  0.00  0.00    +0.000 A 
ATOM      9  N   UNL     1       1.051   4.237  19.476  0.00  0.00    +0.000 NA
ATOM     10  C   UNL     1       2.151   4.539  18.734  0.00  0.00    +0.000 A 
ENDROOT
BRANCH   1  17
ATOM     11  C   UNL     1       0.868  12.853  18.676  0.00  0.00    +0.000 C 
ATOM     12  C   UNL     1       0.817  11.478  19.233  0.00  0.00    +0.000 A 
ATOM     13  C   UNL     1       0.225  11.090  20.418  0.00  0.00    +0.000 A 
ATOM     14  S   UNL     1       0.497   9.422  20.686  0.00  0.00    +0.000 S 
ATOM     15  C   UNL     1       1.360   9.333  19.221  0.00  0.00    +0.000 A 
ATOM     16  N   UNL     1       1.911   8.168  18.757  0.00  0.00    +0.000 N 
ATOM     17  C   UNL     1       2.099   6.992  19.443  0.00  0.00    +0.000 C 
ATOM     18  O   UNL     1       1.855   6.805  20.632  0.00  0.00    +0.000 OA
ATOM     19  N   UNL     1       1.426  10.449  18.530  0.00  0.00    +0.000 NA
ATOM     20  H   UNL     1       2.257   8.230  17.801  0.00  0.00    +0.000 HD
ENDBRANCH   1  17
BRANCH   3  21
ATOM     21  C   UNL     1       5.739   5.394  16.350  0.00  0.00    +0.000 C 
ATOM     22  F   UNL     1       6.327   4.224  15.947  0.00  0.00    +0.000 F 
ATOM     23  F   UNL     1       5.404   6.010  15.171  0.00  0.00    +0.000 F 
BRANCH  21  24
ATOM     24  C   UNL     1       6.709   6.240  17.120  0.00  0.00    +0.000 A 
ATOM     25  C   UNL     1       7.396   5.769  18.219  0.00  0.00    +0.000 A 
ATOM     26  N   UNL     1       8.246   6.522  18.947  0.00  0.00    +0.000 NA
ATOM     27  C   UNL     1       8.407   7.789  18.538  0.00  0.00    +0.000 A 
ATOM     28  N   UNL     1       7.812   8.350  17.475  0.00  0.00    +0.000 NA
ATOM     29  C   UNL     1       6.977   7.551  16.782  0.00  0.00    +0.000 A 
ENDBRANCH  21  24
ENDBRANCH   3  21
TORSDOF 3
ENDMDL
MODEL 5
REMARK VINA RESULT:      -8.5      3.913      7.024
REMARK  Name = 
REMARK  4 active torsions:
REMARK  status: ('A' for Active; 'I' for Inactive)
REMARK    1  A    between atoms: C_1  and  C_2
REMARK    2  A    between atoms: C_7  and  C_9
REMARK    3  A    between atoms: C_11  and  C_12
REMARK    4  A    between atoms: C_12  and  C_15
REMARK                            x       y       z     vdW  Elec       q    Type
REMARK                         _______ _______ _______ _____ _____    ______ ____
ROOT
ATOM      1  C   UNL     1       6.257   6.249  17.305  0.00  0.00    +0.000 A 
ATOM      2  C   UNL     1       5.046   6.128  18.028  0.00  0.00    +0.000 A 
ATOM      3  C   UNL     1       3.974   5.377  17.534  0.00  0.00    +0.000 A 
ATOM      4  C   UNL     1       4.143   4.727  16.307  0.00  0.00    +0.000 A 
ATOM      5  C   UNL     1       5.347   4.828  15.586  0.00  0.00    +0.000 A 
ATOM      6  C   UNL     1       5.481   4.180  14.351  0.00  0.00    +0.000 A 
ATOM      7  C   UNL     1       6.660   4.290  13.628  0.00  0.00    +0.000 A 
ATOM      8  C   UNL     1       7.676   5.042  14.171  0.00  0.00    +0.000 A 
ATOM      9  N   UNL     1       7.583   5.677  15.360  0.00  0.00    +0.000 NA
ATOM     10  C   UNL     1       6.430   5.592  16.076  0.00  0.00    +0.000 A 
ENDROOT
BRANCH   1  17
ATOM     11  C   UNL     1       9.222  12.857  17.418  0.00  0.00    +0.000 C 
ATOM     12  C   UNL     1       8.991  11.506  17.989  0.00  0.00    +0.000 A 
ATOM     13  C   UNL     1       9.616  10.960  19.093  0.00  0.00    +0.000 A 
ATOM     14  S   UNL     1       9.092   9.347  19.319  0.00  0.00    +0.000 S 
ATOM     15  C   UNL     1       8.076   9.492  17.960  0.00  0.00    +0.000 A 
ATOM     16  N   UNL     1       7.271   8.472  17.526  0.00  0.00    +0.000 N 
ATOM     17  C   UNL     1       7.311   7.149  17.899  0.00  0.00    +0.000 C 
ATOM     18  O   UNL     1       8.133   6.639  18.654  0.00  0.00    +0.000 OA
ATOM     19  N   UNL     1       8.073  10.668  17.374  0.00  0.00    +0.000 NA
ATOM     20  H   UNL     1       6.609   8.751  16.805  0.00  0.00    +0.000 HD
ENDBRANCH   1  17
BRANCH   3  21
ATOM     21  C   UNL     1       2.647   5.290  18.286  0.00  0.00    +0.000 C 
ATOM     22  F   UNL     1       2.245   6.534  18.698  0.00  0.00    +0.000 F 
ATOM     23  F   UNL     1       1.651   4.898  17.427  0.00  0.00    +0.000 F 
BRANCH  21  24
ATOM     24  C   UNL     1       2.731   4.346  19.448  0.00  0.00    +0.000 A 
ATOM     25  C   UNL     1       3.490   3.196  19.418  0.00  0.00    +0.000 A 
ATOM     26  N   UNL     1       3.553   2.315  20.437  0.00  0.00    +0.000 NA
ATOM     27  C   UNL     1       2.826   2.620  21.523  0.00  0.00    +0.000 A 
ATOM     28  N   UNL     1       2.069   3.716  21.675  0.00  0.00    +0.000 NA
ATOM     29  C   UNL     1       2.047   4.563  20.628  0.00  0.00    +0.000 A 
ENDBRANCH  21  24
ENDBRANCH   3  21
TORSDOF 3
ENDMDL
MODEL 6
REMARK VINA RESULT:      -8.2      4.078      6.965
REMARK  Name = 
REMARK  4 active torsions:
REMARK  status: ('A' for Active; 'I' for Inactive)
REMARK    1  A    between atoms: C_1  and  C_2
REMARK    2  A    between atoms: C_7  and  C_9
REMARK    3  A    between atoms: C_11  and  C_12
REMARK    4  A    between atoms: C_12  and  C_15
REMARK                            x       y       z     vdW  Elec       q    Type
REMARK                         _______ _______ _______ _____ _____    ______ ____
ROOT
ATOM      1  C   UNL     1       6.337   6.570  17.426  0.00  0.00    +0.000 A 
ATOM      2  C   UNL     1       5.138   6.544  18.179  0.00  0.00    +0.000 A 
ATOM      3  C   UNL     1       4.027   5.805  17.756  0.00  0.00    +0.000 A 
ATOM      4  C   UNL     1       4.146   5.068  16.573  0.00  0.00    +0.000 A 
ATOM      5  C   UNL     1       5.336   5.073  15.824  0.00  0.00    +0.000 A 
ATOM      6  C   UNL     1       5.419   4.339  14.634  0.00  0.00    +0.000 A 
ATOM      7  C   UNL     1       6.586   4.354  13.883  0.00  0.00    +0.000 A 
ATOM      8  C   UNL     1       7.641   5.100  14.355  0.00  0.00    +0.000 A 
ATOM      9  N   UNL     1       7.598   5.817  15.499  0.00  0.00    +0.000 NA
ATOM     10  C   UNL     1       6.458   5.825  16.241  0.00  0.00    +0.000 A 
ENDROOT
BRANCH   1  17
ATOM     11  C   UNL     1       9.230  13.209  17.444  0.00  0.00    +0.000 C 
ATOM     12  C   UNL     1       9.073  11.839  17.993  0.00  0.00    +0.000 A 
ATOM     13  C   UNL     1       9.812  11.269  19.010  0.00  0.00    +0.000 A 
ATOM     14  S   UNL     1       9.330   9.642  19.238  0.00  0.00    +0.000 S 
ATOM     15  C   UNL     1       8.180   9.815  17.994  0.00  0.00    +0.000 A 
ATOM     16  N   UNL     1       7.346   8.798  17.612  0.00  0.00    +0.000 N 
ATOM     17  C   UNL     1       7.437   7.465  17.937  0.00  0.00    +0.000 C 
ATOM     18  O   UNL     1       8.337   6.943  18.589  0.00  0.00    +0.000 OA
ATOM     19  N   UNL     1       8.105  11.008  17.449  0.00  0.00    +0.000 NA
ATOM     20  H   UNL     1       6.610   9.089  16.971  0.00  0.00    +0.000 HD
ENDBRANCH   1  17
BRANCH   3  21
ATOM     21  C   UNL     1       2.715   5.820  18.537  0.00  0.00    +0.000 C 
ATOM     22  F   UNL     1       2.834   6.592  19.663  0.00  0.00    +0.000 F 
ATOM     23  F   UNL     1       1.747   6.463  17.807  0.00  0.00    +0.000 F 
BRANCH  21  24
ATOM     24  C   UNL     1       2.263   4.433  18.888  0.00  0.00    +0.000 A 
ATOM     25  C   UNL     1       2.804   3.719  19.936  0.00  0.00    +0.000 A 
ATOM     26  N   UNL     1       2.438   2.458  20.247  0.00  0.00    +0.000 NA
ATOM     27  C   UNL     1       1.488   1.914  19.473  0.00  0.00    +0.000 A 
ATOM     28  N   UNL     1       0.876   2.517  18.444  0.00  0.00    +0.000 NA
ATOM     29  C   UNL     1       1.277   3.776  18.180  0.00  0.00    +0.000 A 
ENDBRANCH  21  24
ENDBRANCH   3  21
TORSDOF 3
ENDMDL
MODEL 7
REMARK VINA RESULT:      -8.0      2.978      7.857
REMARK  Name = 
REMARK  4 active torsions:
REMARK  status: ('A' for Active; 'I' for Inactive)
REMARK    1  A    between atoms: C_1  and  C_2
REMARK    2  A    between atoms: C_7  and  C_9
REMARK    3  A    between atoms: C_11  and  C_12
REMARK    4  A    between atoms: C_12  and  C_15
REMARK                            x       y       z     vdW  Elec       q    Type
REMARK                         _______ _______ _______ _____ _____    ______ ____
ROOT
ATOM      1  C   UNL     1       3.925   5.940  18.292  0.00  0.00    +0.000 A 
ATOM      2  C   UNL     1       3.349   7.226  18.151  0.00  0.00    +0.000 A 
ATOM      3  C   UNL     1       2.251   7.622  18.923  0.00  0.00    +0.000 A 
ATOM      4  C   UNL     1       1.751   6.712  19.861  0.00  0.00    +0.000 A 
ATOM      5  C   UNL     1       2.323   5.437  20.021  0.00  0.00    +0.000 A 
ATOM      6  C   UNL     1       1.790   4.541  20.956  0.00  0.00    +0.000 A 
ATOM      7  C   UNL     1       2.341   3.276  21.106  0.00  0.00    +0.000 A 
ATOM      8  C   UNL     1       3.420   2.951  20.317  0.00  0.00    +0.000 A 
ATOM      9  N   UNL     1       3.963   3.790  19.408  0.00  0.00    +0.000 NA
ATOM     10  C   UNL     1       3.427   5.029  19.238  0.00  0.00    +0.000 A 
ENDROOT
BRANCH   1  17
ATOM     11  C   UNL     1       5.854   2.937  11.990  0.00  0.00    +0.000 C 
ATOM     12  C   UNL     1       6.112   3.792  13.175  0.00  0.00    +0.000 A 
ATOM     13  C   UNL     1       7.307   4.395  13.513  0.00  0.00    +0.000 A 
ATOM     14  S   UNL     1       7.147   5.208  15.010  0.00  0.00    +0.000 S 
ATOM     15  C   UNL     1       5.517   4.719  15.095  0.00  0.00    +0.000 A 
ATOM     16  N   UNL     1       4.695   5.063  16.135  0.00  0.00    +0.000 N 
ATOM     17  C   UNL     1       5.051   5.598  17.350  0.00  0.00    +0.000 C 
ATOM     18  O   UNL     1       6.197   5.804  17.738  0.00  0.00    +0.000 OA
ATOM     19  N   UNL     1       5.077   4.026  14.069  0.00  0.00    +0.000 NA
ATOM     20  H   UNL     1       3.715   4.836  15.975  0.00  0.00    +0.000 HD
ENDBRANCH   1  17
BRANCH   3  21
ATOM     21  C   UNL     1       1.593   8.987  18.734  0.00  0.00    +0.000 C 
ATOM     22  F   UNL     1       2.504   9.900  18.271  0.00  0.00    +0.000 F 
ATOM     23  F   UNL     1       0.664   8.919  17.727  0.00  0.00    +0.000 F 
BRANCH  21  24
ATOM     24  C   UNL     1       0.951   9.472  20.000  0.00  0.00    +0.000 A 
ATOM     25  C   UNL     1      -0.231  10.183  20.009  0.00  0.00    +0.000 A 
ATOM     26  N   UNL     1      -0.808  10.659  21.132  0.00  0.00    +0.000 NA
ATOM     27  C   UNL     1      -0.165  10.394  22.279  0.00  0.00    +0.000 A 
ATOM     28  N   UNL     1       0.974   9.697  22.397  0.00  0.00    +0.000 NA
ATOM     29  C   UNL     1       1.504   9.242  21.244  0.00  0.00    +0.000 A 
ENDBRANCH  21  24
ENDBRANCH   3  21
TORSDOF 3
ENDMDL
MODEL 8
REMARK VINA RESULT:      -8.0      3.855      7.084
REMARK  Name = 
REMARK  4 active torsions:
REMARK  status: ('A' for Active; 'I' for Inactive)
REMARK    1  A    between atoms: C_1  and  C_2
REMARK    2  A    between atoms: C_7  and  C_9
REMARK    3  A    between atoms: C_11  and  C_12
REMARK    4  A    between atoms: C_12  and  C_15
REMARK                            x       y       z     vdW  Elec       q    Type
REMARK                         _______ _______ _______ _____ _____    ______ ____
ROOT
ATOM      1  C   UNL     1       6.378   6.159  17.371  0.00  0.00    +0.000 A 
ATOM      2  C   UNL     1       5.226   5.933  18.163  0.00  0.00    +0.000 A 
ATOM      3  C   UNL     1       4.171   5.136  17.705  0.00  0.00    +0.000 A 
ATOM      4  C   UNL     1       4.298   4.547  16.442  0.00  0.00    +0.000 A 
ATOM      5  C   UNL     1       5.443   4.752  15.652  0.00  0.00    +0.000 A 
ATOM      6  C   UNL     1       5.535   4.163  14.384  0.00  0.00    +0.000 A 
ATOM      7  C   UNL     1       6.656   4.376  13.594  0.00  0.00    +0.000 A 
ATOM      8  C   UNL     1       7.658   5.168  14.105  0.00  0.00    +0.000 A 
ATOM      9  N   UNL     1       7.606   5.748  15.323  0.00  0.00    +0.000 NA
ATOM     10  C   UNL     1       6.509   5.562  16.106  0.00  0.00    +0.000 A 
ENDROOT
BRANCH   1  17
ATOM     11  C   UNL     1       9.115  12.864  17.376  0.00  0.00    +0.000 C 
ATOM     12  C   UNL     1       8.943  11.511  17.960  0.00  0.00    +0.000 A 
ATOM     13  C   UNL     1       9.609  10.995  19.055  0.00  0.00    +0.000 A 
ATOM     14  S   UNL     1       9.146   9.367  19.304  0.00  0.00    +0.000 S 
ATOM     15  C   UNL     1       8.097   9.466  17.965  0.00  0.00    +0.000 A 
ATOM     16  N   UNL     1       7.319   8.416  17.555  0.00  0.00    +0.000 N 
ATOM     17  C   UNL     1       7.412   7.098  17.936  0.00  0.00    +0.000 C 
ATOM     18  O   UNL     1       8.267   6.622  18.677  0.00  0.00    +0.000 OA
ATOM     19  N   UNL     1       8.041  10.637  17.372  0.00  0.00    +0.000 NA
ATOM     20  H   UNL     1       6.632   8.667  16.847  0.00  0.00    +0.000 HD
ENDBRANCH   1  17
BRANCH   3  21
ATOM     21  C   UNL     1       2.904   4.936  18.534  0.00  0.00    +0.000 C 
ATOM     22  F   UNL     1       1.946   4.287  17.799  0.00  0.00    +0.000 F 
ATOM     23  F   UNL     1       3.157   4.072  19.569  0.00  0.00    +0.000 F 
BRANCH  21  24
ATOM     24  C   UNL     1       2.377   6.238  19.063  0.00  0.00    +0.000 A 
ATOM     25  C   UNL     1       2.311   7.380  18.294  0.00  0.00    +0.000 A 
ATOM     26  N   UNL     1       1.875   8.569  18.758  0.00  0.00    +0.000 NA
ATOM     27  C   UNL     1       1.487   8.591  20.041  0.00  0.00    +0.000 A 
ATOM     28  N   UNL     1       1.485   7.543  20.878  0.00  0.00    +0.000 NA
ATOM     29  C   UNL     1       1.926   6.380  20.360  0.00  0.00    +0.000 A 
ENDBRANCH  21  24
ENDBRANCH   3  21
TORSDOF 3
ENDMDL
MODEL 9
REMARK VINA RESULT:      -7.9      1.970      2.306
REMARK  Name = 
REMARK  4 active torsions:
REMARK  status: ('A' for Active; 'I' for Inactive)
REMARK    1  A    between atoms: C_1  and  C_2
REMARK    2  A    between atoms: C_7  and  C_9
REMARK    3  A    between atoms: C_11  and  C_12
REMARK    4  A    between atoms: C_12  and  C_15
REMARK                            x       y       z     vdW  Elec       q    Type
REMARK                         _______ _______ _______ _____ _____    ______ ____
ROOT
ATOM      1  C   UNL     1       3.187   5.785  18.306  0.00  0.00    +0.000 A 
ATOM      2  C   UNL     1       4.415   6.025  17.643  0.00  0.00    +0.000 A 
ATOM      3  C   UNL     1       5.136   4.985  17.044  0.00  0.00    +0.000 A 
ATOM      4  C   UNL     1       4.592   3.697  17.100  0.00  0.00    +0.000 A 
ATOM      5  C   UNL     1       3.366   3.448  17.743  0.00  0.00    +0.000 A 
ATOM      6  C   UNL     1       2.854   2.145  17.797  0.00  0.00    +0.000 A 
ATOM      7  C   UNL     1       1.653   1.892  18.445  0.00  0.00    +0.000 A 
ATOM      8  C   UNL     1       0.995   2.958  19.011  0.00  0.00    +0.000 A 
ATOM      9  N   UNL     1       1.455   4.228  18.975  0.00  0.00    +0.000 NA
ATOM     10  C   UNL     1       2.638   4.493  18.357  0.00  0.00    +0.000 A 
ENDROOT
BRANCH   1  17
ATOM     11  C   UNL     1       1.762  12.881  18.048  0.00  0.00    +0.000 C 
ATOM     12  C   UNL     1       1.546  11.512  18.579  0.00  0.00    +0.000 A 
ATOM     13  C   UNL     1       0.737  11.159  19.641  0.00  0.00    +0.000 A 
ATOM     14  S   UNL     1       0.873   9.479  19.943  0.00  0.00    +0.000 S 
ATOM     15  C   UNL     1       1.973   9.342  18.649  0.00  0.00    +0.000 A 
ATOM     16  N   UNL     1       2.536   8.149  18.281  0.00  0.00    +0.000 N 
ATOM     17  C   UNL     1       2.542   6.967  18.983  0.00  0.00    +0.000 C 
ATOM     18  O   UNL     1       2.085   6.797  20.110  0.00  0.00    +0.000 OA
ATOM     19  N   UNL     1       2.215  10.451  17.987  0.00  0.00    +0.000 NA
ATOM     20  H   UNL     1       3.047   8.191  17.401  0.00  0.00    +0.000 HD
ENDBRANCH   1  17
BRANCH   3  21
ATOM     21  C   UNL     1       6.487   5.232  16.377  0.00  0.00    +0.000 C 
ATOM     22  F   UNL     1       6.848   6.549  16.496  0.00  0.00    +0.000 F 
ATOM     23  F   UNL     1       7.472   4.565  17.061  0.00  0.00    +0.000 F 
BRANCH  21  24
ATOM     24  C   UNL     1       6.479   4.811  14.937  0.00  0.00    +0.000 A 
ATOM     25  C   UNL     1       5.466   4.053  14.391  0.00  0.00    +0.000 A 
ATOM     26  N   UNL     1       5.455   3.633  13.109  0.00  0.00    +0.000 NA
ATOM     27  C   UNL     1       6.504   4.005  12.361  0.00  0.00    +0.000 A 
ATOM     28  N   UNL     1       7.534   4.757  12.774  0.00  0.00    +0.000 NA
ATOM     29  C   UNL     1       7.491   5.151  14.062  0.00  0.00    +0.000 A 
ENDBRANCH  21  24
ENDBRANCH   3  21
TORSDOF 3
ENDMDL
