MODEL 1
REMARK VINA RESULT:      -6.9      0.000      0.000
REMARK  Name = 
REMARK  13 active torsions:
REMARK  status: ('A' for Active; 'I' for Inactive)
REMARK    1  A    between atoms: C_1  and  C_2
REMARK    2  A    between atoms: C_2  and  C_3
REMARK    3  A    between atoms: C_3  and  C_4
REMARK    4  A    between atoms: C_4  and  C_5
REMARK    5  A    between atoms: C_5  and  C_6
REMARK    6  A    between atoms: C_6  and  N_7
REMARK    7  A    between atoms: C_10  and  N_11
REMARK    8  A    between atoms: N_11  and  C_12
REMARK    9  A    between atoms: N_15  and  C_16
REMARK   10  A    between atoms: C_21  and  O_22
REMARK   11  A    between atoms: O_22  and  C_23
REMARK   12  A    between atoms: C_24  and  O_25
REMARK   13  A    between atoms: O_25  and  C_26
REMARK                            x       y       z     vdW  Elec       q    Type
REMARK                         _______ _______ _______ _____ _____    ______ ____
ROOT
ATOM      1  N   UNL     1       1.011   3.702  18.096  0.00  0.00    +0.000 N 
ATOM      2  C   UNL     1       2.100   4.543  17.835  0.00  0.00    +0.000 A 
ATOM      3  C   UNL     1       1.979   5.859  18.262  0.00  0.00    +0.000 A 
ATOM      4  C   UNL     1       3.011   6.752  18.133  0.00  0.00    +0.000 A 
ATOM      5  C   UNL     1       4.201   6.288  17.483  0.00  0.00    +0.000 A 
ATOM      6  C   UNL     1       5.358   7.051  17.263  0.00  0.00    +0.000 A 
ATOM      7  C   UNL     1       6.541   6.642  16.581  0.00  0.00    +0.000 A 
ATOM      8  C   UNL     1       6.543   5.359  16.052  0.00  0.00    +0.000 A 
ATOM      9  C   UNL     1       5.393   4.553  16.282  0.00  0.00    +0.000 A 
ATOM     10  C   UNL     1       4.231   4.958  16.993  0.00  0.00    +0.000 A 
ATOM     11  N   UNL     1       3.210   4.105  17.184  0.00  0.00    +0.000 NA
ATOM     12  H   UNL     1       0.280   3.870  17.410  0.00  0.00    +0.000 HD
ENDROOT
BRANCH   4  13
ATOM     13  N   UNL     1       2.864   8.030  18.689  0.00  0.00    +0.000 N 
ATOM     14  H   UNL     1       3.630   8.656  18.595  0.00  0.00    +0.000 HD
BRANCH  13  15
ATOM     15  C   UNL     1       1.573   8.668  19.039  0.00  0.00    +0.000 C 
ATOM     16  C   UNL     1       1.486  10.058  18.392  0.00  0.00    +0.000 C 
ATOM     17  C   UNL     1       0.500  11.013  19.084  0.00  0.00    +0.000 C 
ATOM     18  N   UNL     1       0.616  10.998  20.543  0.00  0.00    +0.000 NA
ATOM     19  C   UNL     1      -0.294  11.988  21.137  0.00  0.00    +0.000 C 
ATOM     20  C   UNL     1       0.365   9.668  21.103  0.00  0.00    +0.000 C 
ATOM     21  C   UNL     1       1.348   8.615  20.573  0.00  0.00    +0.000 C 
ENDBRANCH  13  15
ENDBRANCH   4  13
BRANCH   7  22
ATOM     22  O   UNL     1       7.441   7.642  16.765  0.00  0.00    +0.000 OA
ATOM     23  C   UNL     1       7.852   8.322  17.925  0.00  0.00    +0.000 C 
ENDBRANCH   7  22
BRANCH   8  24
ATOM     24  O   UNL     1       7.502   4.657  15.371  0.00  0.00    +0.000 OA
ATOM     25  C   UNL     1       7.384   4.513  13.974  0.00  0.00    +0.000 C 
ENDBRANCH   8  24
BRANCH   1  26
ATOM     26  C   UNL     1       1.353   2.303  18.283  0.00  0.00    +0.000 C 
BRANCH  26  27
ATOM     27  C   UNL     1       0.917   1.878  19.693  0.00  0.00    +0.000 C 
BRANCH  27  28
ATOM     28  C   UNL     1       1.157   3.000  20.702  0.00  0.00    +0.000 C 
BRANCH  28  29
ATOM     29  C   UNL     1       2.449   2.775  21.487  0.00  0.00    +0.000 C 
BRANCH  29  31
ATOM     30  C   UNL     1       4.499   2.199  20.149  0.00  0.00    +0.000 C 
ATOM     31  C   UNL     1       3.659   3.324  20.731  0.00  0.00    +0.000 C 
ENDBRANCH  29  31
ENDBRANCH  28  29
ENDBRANCH  27  28
ENDBRANCH  26  27
ENDBRANCH   1  26
TORSDOF 9
ENDMDL
MODEL 2
REMARK VINA RESULT:      -6.6      2.701      5.749
REMARK  Name = 
REMARK  13 active torsions:
REMARK  status: ('A' for Active; 'I' for Inactive)
REMARK    1  A    between atoms: C_1  and  C_2
REMARK    2  A    between atoms: C_2  and  C_3
REMARK    3  A    between atoms: C_3  and  C_4
REMARK    4  A    between atoms: C_4  and  C_5
REMARK    5  A    between atoms: C_5  and  C_6
REMARK    6  A    between atoms: C_6  and  N_7
REMARK    7  A    between atoms: C_10  and  N_11
REMARK    8  A    between atoms: N_11  and  C_12
REMARK    9  A    between atoms: N_15  and  C_16
REMARK   10  A    between atoms: C_21  and  O_22
REMARK   11  A    between atoms: O_22  and  C_23
REMARK   12  A    between atoms: C_24  and  O_25
REMARK   13  A    between atoms: O_25  and  C_26
REMARK                            x       y       z     vdW  Elec       q    Type
REMARK                         _______ _______ _______ _____ _____    ______ ____
ROOT
ATOM      1  N   UNL     1       6.595   6.174  15.787  0.00  0.00    +0.000 N 
ATOM      2  C   UNL     1       5.663   5.845  16.781  0.00  0.00    +0.000 A 
ATOM      3  C   UNL     1       4.574   6.696  16.910  0.00  0.00    +0.000 A 
ATOM      4  C   UNL     1       3.558   6.431  17.791  0.00  0.00    +0.000 A 
ATOM      5  C   UNL     1       3.696   5.269  18.620  0.00  0.00    +0.000 A 
ATOM      6  C   UNL     1       2.764   4.836  19.575  0.00  0.00    +0.000 A 
ATOM      7  C   UNL     1       2.885   3.716  20.448  0.00  0.00    +0.000 A 
ATOM      8  C   UNL     1       4.064   2.988  20.367  0.00  0.00    +0.000 A 
ATOM      9  C   UNL     1       5.017   3.390  19.390  0.00  0.00    +0.000 A 
ATOM     10  C   UNL     1       4.872   4.487  18.500  0.00  0.00    +0.000 A 
ATOM     11  N   UNL     1       5.820   4.763  17.587  0.00  0.00    +0.000 NA
ATOM     12  H   UNL     1       7.201   6.918  16.125  0.00  0.00    +0.000 HD
ENDROOT
BRANCH   4  13
ATOM     13  N   UNL     1       2.434   7.268  17.789  0.00  0.00    +0.000 N 
ATOM     14  H   UNL     1       1.600   6.905  17.388  0.00  0.00    +0.000 HD
BRANCH  13  15
ATOM     15  C   UNL     1       2.247   8.454  18.658  0.00  0.00    +0.000 C 
ATOM     16  C   UNL     1       1.649   8.024  20.005  0.00  0.00    +0.000 C 
ATOM     17  C   UNL     1       0.920   9.150  20.757  0.00  0.00    +0.000 C 
ATOM     18  N   UNL     1       0.041   9.941  19.894  0.00  0.00    +0.000 NA
ATOM     19  C   UNL     1      -0.684  10.944  20.687  0.00  0.00    +0.000 C 
ATOM     20  C   UNL     1       0.772  10.580  18.799  0.00  0.00    +0.000 C 
ATOM     21  C   UNL     1       1.479   9.563  17.892  0.00  0.00    +0.000 C 
ENDBRANCH  13  15
ENDBRANCH   4  13
BRANCH   7  22
ATOM     22  O   UNL     1       1.681   3.591  21.062  0.00  0.00    +0.000 OA
ATOM     23  C   UNL     1       0.476   3.003  20.638  0.00  0.00    +0.000 C 
ENDBRANCH   7  22
BRANCH   8  24
ATOM     24  O   UNL     1       4.489   1.868  21.032  0.00  0.00    +0.000 OA
ATOM     25  C   UNL     1       5.180   0.868  20.319  0.00  0.00    +0.000 C 
ENDBRANCH   8  24
BRANCH   1  26
ATOM     26  C   UNL     1       7.295   5.040  15.210  0.00  0.00    +0.000 C 
BRANCH  26  27
ATOM     27  C   UNL     1       6.969   4.978  13.710  0.00  0.00    +0.000 C 
BRANCH  27  28
ATOM     28  C   UNL     1       6.049   3.799  13.397  0.00  0.00    +0.000 C 
BRANCH  28  29
ATOM     29  C   UNL     1       6.499   3.061  12.137  0.00  0.00    +0.000 C 
BRANCH  29  31
ATOM     30  C   UNL     1       4.105   3.286  11.403  0.00  0.00    +0.000 C 
ATOM     31  C   UNL     1       5.321   2.377  11.446  0.00  0.00    +0.000 C 
ENDBRANCH  29  31
ENDBRANCH  28  29
ENDBRANCH  27  28
ENDBRANCH  26  27
ENDBRANCH   1  26
TORSDOF 9
ENDMDL
MODEL 3
REMARK VINA RESULT:      -6.4      2.778      7.761
REMARK  Name = 
REMARK  13 active torsions:
REMARK  status: ('A' for Active; 'I' for Inactive)
REMARK    1  A    between atoms: C_1  and  C_2
REMARK    2  A    between atoms: C_2  and  C_3
REMARK    3  A    between atoms: C_3  and  C_4
REMARK    4  A    between atoms: C_4  and  C_5
REMARK    5  A    between atoms: C_5  and  C_6
REMARK    6  A    between atoms: C_6  and  N_7
REMARK    7  A    between atoms: C_10  and  N_11
REMARK    8  A    between atoms: N_11  and  C_12
REMARK    9  A    between atoms: N_15  and  C_16
REMARK   10  A    between atoms: C_21  and  O_22
REMARK   11  A    between atoms: O_22  and  C_23
REMARK   12  A    between atoms: C_24  and  O_25
REMARK   13  A    between atoms: O_25  and  C_26
REMARK                            x       y       z     vdW  Elec       q    Type
REMARK                         _______ _______ _______ _____ _____    ______ ____
ROOT
ATOM      1  N   UNL     1       2.153   8.294  18.035  0.00  0.00    +0.000 N 
ATOM      2  C   UNL     1       2.758   7.063  18.323  0.00  0.00    +0.000 A 
ATOM      3  C   UNL     1       3.839   6.706  17.529  0.00  0.00    +0.000 A 
ATOM      4  C   UNL     1       4.559   5.565  17.769  0.00  0.00    +0.000 A 
ATOM      5  C   UNL     1       4.112   4.721  18.838  0.00  0.00    +0.000 A 
ATOM      6  C   UNL     1       4.719   3.520  19.234  0.00  0.00    +0.000 A 
ATOM      7  C   UNL     1       4.279   2.631  20.258  0.00  0.00    +0.000 A 
ATOM      8  C   UNL     1       3.109   2.975  20.921  0.00  0.00    +0.000 A 
ATOM      9  C   UNL     1       2.486   4.201  20.557  0.00  0.00    +0.000 A 
ATOM     10  C   UNL     1       2.951   5.098  19.558  0.00  0.00    +0.000 A 
ATOM     11  N   UNL     1       2.304   6.251  19.315  0.00  0.00    +0.000 NA
ATOM     12  H   UNL     1       1.542   8.190  17.229  0.00  0.00    +0.000 HD
ENDROOT
BRANCH   4  13
ATOM     13  N   UNL     1       5.707   5.324  17.003  0.00  0.00    +0.000 N 
ATOM     14  H   UNL     1       6.437   4.803  17.431  0.00  0.00    +0.000 HD
BRANCH  13  15
ATOM     15  C   UNL     1       5.785   5.413  15.525  0.00  0.00    +0.000 C 
ATOM     16  C   UNL     1       4.837   4.386  14.890  0.00  0.00    +0.000 C 
ATOM     17  C   UNL     1       5.205   4.000  13.448  0.00  0.00    +0.000 C 
ATOM     18  N   UNL     1       6.634   3.740  13.270  0.00  0.00    +0.000 NA
ATOM     19  C   UNL     1       6.905   3.299  11.894  0.00  0.00    +0.000 C 
ATOM     20  C   UNL     1       7.452   4.906  13.607  0.00  0.00    +0.000 C 
ATOM     21  C   UNL     1       7.265   5.354  15.063  0.00  0.00    +0.000 C 
ENDBRANCH  13  15
ENDBRANCH   4  13
BRANCH   7  22
ATOM     22  O   UNL     1       5.262   1.706  20.395  0.00  0.00    +0.000 OA
ATOM     23  C   UNL     1       5.562   0.813  21.440  0.00  0.00    +0.000 C 
ENDBRANCH   7  22
BRANCH   8  24
ATOM     24  O   UNL     1       2.433   2.370  21.947  0.00  0.00    +0.000 OA
ATOM     25  C   UNL     1       1.033   2.513  22.025  0.00  0.00    +0.000 C 
ENDBRANCH   8  24
BRANCH   1  26
ATOM     26  C   UNL     1       1.542   8.954  19.175  0.00  0.00    +0.000 C 
BRANCH  26  27
ATOM     27  C   UNL     1       0.960  10.296  18.707  0.00  0.00    +0.000 C 
BRANCH  27  28
ATOM     28  C   UNL     1      -0.398  10.561  19.356  0.00  0.00    +0.000 C 
BRANCH  28  29
ATOM     29  C   UNL     1      -1.458  10.896  18.307  0.00  0.00    +0.000 C 
BRANCH  29  31
ATOM     30  C   UNL     1      -2.795   9.999  16.376  0.00  0.00    +0.000 C 
ATOM     31  C   UNL     1      -1.596   9.773  17.281  0.00  0.00    +0.000 C 
ENDBRANCH  29  31
ENDBRANCH  28  29
ENDBRANCH  27  28
ENDBRANCH  26  27
ENDBRANCH   1  26
TORSDOF 9
ENDMDL
MODEL 4
REMARK VINA RESULT:      -6.2      3.740      7.281
REMARK  Name = 
REMARK  13 active torsions:
REMARK  status: ('A' for Active; 'I' for Inactive)
REMARK    1  A    between atoms: C_1  and  C_2
REMARK    2  A    between atoms: C_2  and  C_3
REMARK    3  A    between atoms: C_3  and  C_4
REMARK    4  A    between atoms: C_4  and  C_5
REMARK    5  A    between atoms: C_5  and  C_6
REMARK    6  A    between atoms: C_6  and  N_7
REMARK    7  A    between atoms: C_10  and  N_11
REMARK    8  A    between atoms: N_11  and  C_12
REMARK    9  A    between atoms: N_15  and  C_16
REMARK   10  A    between atoms: C_21  and  O_22
REMARK   11  A    between atoms: O_22  and  C_23
REMARK   12  A    between atoms: C_24  and  O_25
REMARK   13  A    between atoms: O_25  and  C_26
REMARK                            x       y       z     vdW  Elec       q    Type
REMARK                         _______ _______ _______ _____ _____    ______ ____
ROOT
ATOM      1  N   UNL     1       7.857   7.379  18.451  0.00  0.00    +0.000 N 
ATOM      2  C   UNL     1       7.332   6.471  17.522  0.00  0.00    +0.000 A 
ATOM      3  C   UNL     1       6.392   5.570  18.004  0.00  0.00    +0.000 A 
ATOM      4  C   UNL     1       5.751   4.689  17.172  0.00  0.00    +0.000 A 
ATOM      5  C   UNL     1       6.137   4.694  15.791  0.00  0.00    +0.000 A 
ATOM      6  C   UNL     1       5.594   3.871  14.792  0.00  0.00    +0.000 A 
ATOM      7  C   UNL     1       5.982   3.814  13.422  0.00  0.00    +0.000 A 
ATOM      8  C   UNL     1       7.027   4.640  13.035  0.00  0.00    +0.000 A 
ATOM      9  C   UNL     1       7.580   5.504  14.021  0.00  0.00    +0.000 A 
ATOM     10  C   UNL     1       7.164   5.579  15.377  0.00  0.00    +0.000 A 
ATOM     11  N   UNL     1       7.731   6.458  16.223  0.00  0.00    +0.000 NA
ATOM     12  H   UNL     1       8.569   6.917  19.011  0.00  0.00    +0.000 HD
ENDROOT
BRANCH   4  13
ATOM     13  N   UNL     1       4.731   3.889  17.702  0.00  0.00    +0.000 N 
ATOM     14  H   UNL     1       4.529   3.039  17.227  0.00  0.00    +0.000 HD
BRANCH  13  15
ATOM     15  C   UNL     1       4.208   3.973  19.087  0.00  0.00    +0.000 C 
ATOM     16  C   UNL     1       4.370   2.617  19.788  0.00  0.00    +0.000 C 
ATOM     17  C   UNL     1       3.417   2.406  20.976  0.00  0.00    +0.000 C 
ATOM     18  N   UNL     1       2.041   2.811  20.686  0.00  0.00    +0.000 NA
ATOM     19  C   UNL     1       1.168   2.510  21.830  0.00  0.00    +0.000 C 
ATOM     20  C   UNL     1       1.947   4.228  20.326  0.00  0.00    +0.000 C 
ATOM     21  C   UNL     1       2.778   4.573  19.083  0.00  0.00    +0.000 C 
ENDBRANCH  13  15
ENDBRANCH   4  13
BRANCH   7  22
ATOM     22  O   UNL     1       5.075   3.009  12.813  0.00  0.00    +0.000 OA
ATOM     23  C   UNL     1       4.574   2.998  11.498  0.00  0.00    +0.000 C 
ENDBRANCH   7  22
BRANCH   8  24
ATOM     24  O   UNL     1       7.623   4.844  11.818  0.00  0.00    +0.000 OA
ATOM     25  C   UNL     1       7.833   6.164  11.369  0.00  0.00    +0.000 C 
ENDBRANCH   8  24
BRANCH   1  26
ATOM     26  C   UNL     1       8.264   8.656  17.891  0.00  0.00    +0.000 C 
BRANCH  26  27
ATOM     27  C   UNL     1       8.968   9.468  18.990  0.00  0.00    +0.000 C 
BRANCH  27  28
ATOM     28  C   UNL     1       9.323  10.869  18.493  0.00  0.00    +0.000 C 
BRANCH  28  29
ATOM     29  C   UNL     1      10.627  11.366  19.117  0.00  0.00    +0.000 C 
BRANCH  29  31
ATOM     30  C   UNL     1       9.218  12.919  20.506  0.00  0.00    +0.000 C 
ATOM     31  C   UNL     1      10.387  11.949  20.509  0.00  0.00    +0.000 C 
ENDBRANCH  29  31
ENDBRANCH  28  29
ENDBRANCH  27  28
ENDBRANCH  26  27
ENDBRANCH   1  26
TORSDOF 9
ENDMDL
MODEL 5
REMARK VINA RESULT:      -6.1      5.183      8.426
REMARK  Name = 
REMARK  13 active torsions:
REMARK  status: ('A' for Active; 'I' for Inactive)
REMARK    1  A    between atoms: C_1  and  C_2
REMARK    2  A    between atoms: C_2  and  C_3
REMARK    3  A    between atoms: C_3  and  C_4
REMARK    4  A    between atoms: C_4  and  C_5
REMARK    5  A    between atoms: C_5  and  C_6
REMARK    6  A    between atoms: C_6  and  N_7
REMARK    7  A    between atoms: C_10  and  N_11
REMARK    8  A    between atoms: N_11  and  C_12
REMARK    9  A    between atoms: N_15  and  C_16
REMARK   10  A    between atoms: C_21  and  O_22
REMARK   11  A    between atoms: O_22  and  C_23
REMARK   12  A    between atoms: C_24  and  O_25
REMARK   13  A    between atoms: O_25  and  C_26
REMARK                            x       y       z     vdW  Elec       q    Type
REMARK                         _______ _______ _______ _____ _____    ______ ____
ROOT
ATOM      1  N   UNL     1       1.316   9.562  19.115  0.00  0.00    +0.000 N 
ATOM      2  C   UNL     1       0.052  10.088  18.816  0.00  0.00    +0.000 A 
ATOM      3  C   UNL     1      -0.470  10.994  19.729  0.00  0.00    +0.000 A 
ATOM      4  C   UNL     1      -1.661  11.635  19.503  0.00  0.00    +0.000 A 
ATOM      5  C   UNL     1      -2.377  11.284  18.311  0.00  0.00    +0.000 A 
ATOM      6  C   UNL     1      -3.604  11.832  17.909  0.00  0.00    +0.000 A 
ATOM      7  C   UNL     1      -4.368  11.477  16.759  0.00  0.00    +0.000 A 
ATOM      8  C   UNL     1      -3.859  10.462  15.962  0.00  0.00    +0.000 A 
ATOM      9  C   UNL     1      -2.603   9.905  16.332  0.00  0.00    +0.000 A 
ATOM     10  C   UNL     1      -1.832  10.289  17.461  0.00  0.00    +0.000 A 
ATOM     11  N   UNL     1      -0.637   9.722  17.703  0.00  0.00    +0.000 NA
ATOM     12  H   UNL     1       1.221   8.826  19.809  0.00  0.00    +0.000 HD
ENDROOT
BRANCH   4  13
ATOM     13  N   UNL     1      -2.073  12.622  20.408  0.00  0.00    +0.000 N 
ATOM     14  H   UNL     1      -1.600  13.495  20.371  0.00  0.00    +0.000 HD
BRANCH  13  15
ATOM     15  C   UNL     1      -3.371  12.641  21.122  0.00  0.00    +0.000 C 
ATOM     16  C   UNL     1      -4.225  13.814  20.621  0.00  0.00    +0.000 C 
ATOM     17  C   UNL     1      -5.310  14.269  21.610  0.00  0.00    +0.000 C 
ATOM     18  N   UNL     1      -4.823  14.381  22.986  0.00  0.00    +0.000 NA
ATOM     19  C   UNL     1      -5.884  14.896  23.863  0.00  0.00    +0.000 C 
ATOM     20  C   UNL     1      -4.308  13.107  23.493  0.00  0.00    +0.000 C 
ATOM     21  C   UNL     1      -3.140  12.571  22.654  0.00  0.00    +0.000 C 
ENDBRANCH  13  15
ENDBRANCH   4  13
BRANCH   7  22
ATOM     22  O   UNL     1      -5.380  12.380  16.692  0.00  0.00    +0.000 OA
ATOM     23  C   UNL     1      -6.643  12.410  17.309  0.00  0.00    +0.000 C 
ENDBRANCH   7  22
BRANCH   8  24
ATOM     24  O   UNL     1      -4.318   9.901  14.799  0.00  0.00    +0.000 OA
ATOM     25  C   UNL     1      -3.607  10.124  13.603  0.00  0.00    +0.000 C 
ENDBRANCH   8  24
BRANCH   1  26
ATOM     26  C   UNL     1       2.114   9.200  17.956  0.00  0.00    +0.000 C 
BRANCH  26  27
ATOM     27  C   UNL     1       2.564   7.739  18.112  0.00  0.00    +0.000 C 
BRANCH  27  28
ATOM     28  C   UNL     1       2.417   7.272  19.559  0.00  0.00    +0.000 C 
BRANCH  28  29
ATOM     29  C   UNL     1       2.378   5.747  19.650  0.00  0.00    +0.000 C 
BRANCH  29  31
ATOM     30  C   UNL     1       1.498   4.051  18.014  0.00  0.00    +0.000 C 
ATOM     31  C   UNL     1       2.560   5.106  18.274  0.00  0.00    +0.000 C 
ENDBRANCH  29  31
ENDBRANCH  28  29
ENDBRANCH  27  28
ENDBRANCH  26  27
ENDBRANCH   1  26
TORSDOF 9
ENDMDL
MODEL 6
REMARK VINA RESULT:      -6.0      4.542      9.655
REMARK  Name = 
REMARK  13 active torsions:
REMARK  status: ('A' for Active; 'I' for Inactive)
REMARK    1  A    between atoms: C_1  and  C_2
REMARK    2  A    between atoms: C_2  and  C_3
REMARK    3  A    between atoms: C_3  and  C_4
REMARK    4  A    between atoms: C_4  and  C_5
REMARK    5  A    between atoms: C_5  and  C_6
REMARK    6  A    between atoms: C_6  and  N_7
REMARK    7  A    between atoms: C_10  and  N_11
REMARK    8  A    between atoms: N_11  and  C_12
REMARK    9  A    between atoms: N_15  and  C_16
REMARK   10  A    between atoms: C_21  and  O_22
REMARK   11  A    between atoms: O_22  and  C_23
REMARK   12  A    between atoms: C_24  and  O_25
REMARK   13  A    between atoms: O_25  and  C_26
REMARK                            x       y       z     vdW  Elec       q    Type
REMARK                         _______ _______ _______ _____ _____    ______ ____
ROOT
ATOM      1  N   UNL     1      -0.014  11.473  21.915  0.00  0.00    +0.000 N 
ATOM      2  C   UNL     1      -0.436  11.150  20.618  0.00  0.00    +0.000 A 
ATOM      3  C   UNL     1       0.462  10.432  19.839  0.00  0.00    +0.000 A 
ATOM      4  C   UNL     1       0.129   9.991  18.585  0.00  0.00    +0.000 A 
ATOM      5  C   UNL     1      -1.165  10.354  18.085  0.00  0.00    +0.000 A 
ATOM      6  C   UNL     1      -1.682   9.994  16.831  0.00  0.00    +0.000 A 
ATOM      7  C   UNL     1      -2.941  10.373  16.280  0.00  0.00    +0.000 A 
ATOM      8  C   UNL     1      -3.733  11.210  17.053  0.00  0.00    +0.000 A 
ATOM      9  C   UNL     1      -3.244  11.571  18.341  0.00  0.00    +0.000 A 
ATOM     10  C   UNL     1      -2.003  11.160  18.895  0.00  0.00    +0.000 A 
ATOM     11  N   UNL     1      -1.649  11.530  20.139  0.00  0.00    +0.000 NA
ATOM     12  H   UNL     1       0.611  12.273  21.878  0.00  0.00    +0.000 HD
ENDROOT
BRANCH   4  13
ATOM     13  N   UNL     1       1.038   9.174  17.899  0.00  0.00    +0.000 N 
ATOM     14  H   UNL     1       1.094   9.288  16.913  0.00  0.00    +0.000 HD
BRANCH  13  15
ATOM     15  C   UNL     1       2.183   8.462  18.515  0.00  0.00    +0.000 C 
ATOM     16  C   UNL     1       3.107   7.916  17.418  0.00  0.00    +0.000 C 
ATOM     17  C   UNL     1       3.990   6.741  17.868  0.00  0.00    +0.000 C 
ATOM     18  N   UNL     1       3.258   5.736  18.640  0.00  0.00    +0.000 NA
ATOM     19  C   UNL     1       4.137   4.605  18.969  0.00  0.00    +0.000 C 
ATOM     20  C   UNL     1       2.666   6.298  19.856  0.00  0.00    +0.000 C 
ATOM     21  C   UNL     1       1.674   7.431  19.556  0.00  0.00    +0.000 C 
ENDBRANCH  13  15
ENDBRANCH   4  13
BRANCH   7  22
ATOM     22  O   UNL     1      -3.076   9.657  15.135  0.00  0.00    +0.000 OA
ATOM     23  C   UNL     1      -3.682   9.973  13.906  0.00  0.00    +0.000 C 
ENDBRANCH   7  22
BRANCH   8  24
ATOM     24  O   UNL     1      -4.980  11.737  16.840  0.00  0.00    +0.000 OA
ATOM     25  C   UNL     1      -5.926  11.706  17.885  0.00  0.00    +0.000 C 
ENDBRANCH   8  24
BRANCH   1  26
ATOM     26  C   UNL     1      -1.084  11.587  22.892  0.00  0.00    +0.000 C 
BRANCH  26  27
ATOM     27  C   UNL     1      -1.312  13.076  23.193  0.00  0.00    +0.000 C 
BRANCH  27  28
ATOM     28  C   UNL     1      -2.760  13.475  22.916  0.00  0.00    +0.000 C 
BRANCH  28  29
ATOM     29  C   UNL     1      -3.735  12.639  23.744  0.00  0.00    +0.000 C 
BRANCH  29  31
ATOM     30  C   UNL     1      -5.087  14.759  23.768  0.00  0.00    +0.000 C 
ATOM     31  C   UNL     1      -5.140  13.241  23.721  0.00  0.00    +0.000 C 
ENDBRANCH  29  31
ENDBRANCH  28  29
ENDBRANCH  27  28
ENDBRANCH  26  27
ENDBRANCH   1  26
TORSDOF 9
ENDMDL
MODEL 7
REMARK VINA RESULT:      -6.0      5.683      8.696
REMARK  Name = 
REMARK  13 active torsions:
REMARK  status: ('A' for Active; 'I' for Inactive)
REMARK    1  A    between atoms: C_1  and  C_2
REMARK    2  A    between atoms: C_2  and  C_3
REMARK    3  A    between atoms: C_3  and  C_4
REMARK    4  A    between atoms: C_4  and  C_5
REMARK    5  A    between atoms: C_5  and  C_6
REMARK    6  A    between atoms: C_6  and  N_7
REMARK    7  A    between atoms: C_10  and  N_11
REMARK    8  A    between atoms: N_11  and  C_12
REMARK    9  A    between atoms: N_15  and  C_16
REMARK   10  A    between atoms: C_21  and  O_22
REMARK   11  A    between atoms: O_22  and  C_23
REMARK   12  A    between atoms: C_24  and  O_25
REMARK   13  A    between atoms: O_25  and  C_26
REMARK                            x       y       z     vdW  Elec       q    Type
REMARK                         _______ _______ _______ _____ _____    ______ ____
ROOT
ATOM      1  N   UNL     1       0.963   8.909  18.916  0.00  0.00    +0.000 N 
ATOM      2  C   UNL     1       0.627  10.267  18.834  0.00  0.00    +0.000 A 
ATOM      3  C   UNL     1      -0.577  10.567  18.211  0.00  0.00    +0.000 A 
ATOM      4  C   UNL     1      -1.048  11.853  18.144  0.00  0.00    +0.000 A 
ATOM      5  C   UNL     1      -0.215  12.884  18.690  0.00  0.00    +0.000 A 
ATOM      6  C   UNL     1      -0.527  14.252  18.716  0.00  0.00    +0.000 A 
ATOM      7  C   UNL     1       0.291  15.311  19.207  0.00  0.00    +0.000 A 
ATOM      8  C   UNL     1       1.544  14.959  19.687  0.00  0.00    +0.000 A 
ATOM      9  C   UNL     1       1.878  13.575  19.695  0.00  0.00    +0.000 A 
ATOM     10  C   UNL     1       1.041  12.523  19.236  0.00  0.00    +0.000 A 
ATOM     11  N   UNL     1       1.440  11.241  19.321  0.00  0.00    +0.000 NA
ATOM     12  H   UNL     1       1.334   8.597  18.022  0.00  0.00    +0.000 HD
ENDROOT
BRANCH   4  13
ATOM     13  N   UNL     1      -2.322  12.071  17.605  0.00  0.00    +0.000 N 
ATOM     14  H   UNL     1      -2.372  12.313  16.642  0.00  0.00    +0.000 HD
BRANCH  13  15
ATOM     15  C   UNL     1      -3.596  11.600  18.199  0.00  0.00    +0.000 C 
ATOM     16  C   UNL     1      -4.720  11.686  17.157  0.00  0.00    +0.000 C 
ATOM     17  C   UNL     1      -6.133  11.754  17.761  0.00  0.00    +0.000 C 
ATOM     18  N   UNL     1      -6.233  12.690  18.882  0.00  0.00    +0.000 NA
ATOM     19  C   UNL     1      -7.621  12.767  19.359  0.00  0.00    +0.000 C 
ATOM     20  C   UNL     1      -5.330  12.334  19.979  0.00  0.00    +0.000 C 
ATOM     21  C   UNL     1      -3.857  12.322  19.547  0.00  0.00    +0.000 C 
ENDBRANCH  13  15
ENDBRANCH   4  13
BRANCH   7  22
ATOM     22  O   UNL     1      -0.487  16.423  19.184  0.00  0.00    +0.000 OA
ATOM     23  C   UNL     1      -0.643  17.430  18.215  0.00  0.00    +0.000 C 
ENDBRANCH   7  22
BRANCH   8  24
ATOM     24  O   UNL     1       2.552  15.707  20.236  0.00  0.00    +0.000 OA
ATOM     25  C   UNL     1       3.307  16.558  19.404  0.00  0.00    +0.000 C 
ENDBRANCH   8  24
BRANCH   1  26
ATOM     26  C   UNL     1       1.777   8.552  20.065  0.00  0.00    +0.000 C 
BRANCH  26  27
ATOM     27  C   UNL     1       0.845   8.275  21.255  0.00  0.00    +0.000 C 
BRANCH  27  28
ATOM     28  C   UNL     1       1.188   9.177  22.440  0.00  0.00    +0.000 C 
BRANCH  28  29
ATOM     29  C   UNL     1      -0.070   9.792  23.052  0.00  0.00    +0.000 C 
BRANCH  29  31
ATOM     30  C   UNL     1      -0.939  12.073  22.446  0.00  0.00    +0.000 C 
ATOM     31  C   UNL     1      -0.840  10.617  22.022  0.00  0.00    +0.000 C 
ENDBRANCH  29  31
ENDBRANCH  28  29
ENDBRANCH  27  28
ENDBRANCH  26  27
ENDBRANCH   1  26
TORSDOF 9
ENDMDL
MODEL 8
REMARK VINA RESULT:      -6.0      3.001      6.643
REMARK  Name = 
REMARK  13 active torsions:
REMARK  status: ('A' for Active; 'I' for Inactive)
REMARK    1  A    between atoms: C_1  and  C_2
REMARK    2  A    between atoms: C_2  and  C_3
REMARK    3  A    between atoms: C_3  and  C_4
REMARK    4  A    between atoms: C_4  and  C_5
REMARK    5  A    between atoms: C_5  and  C_6
REMARK    6  A    between atoms: C_6  and  N_7
REMARK    7  A    between atoms: C_10  and  N_11
REMARK    8  A    between atoms: N_11  and  C_12
REMARK    9  A    between atoms: N_15  and  C_16
REMARK   10  A    between atoms: C_21  and  O_22
REMARK   11  A    between atoms: O_22  and  C_23
REMARK   12  A    between atoms: C_24  and  O_25
REMARK   13  A    between atoms: O_25  and  C_26
REMARK                            x       y       z     vdW  Elec       q    Type
REMARK                         _______ _______ _______ _____ _____    ______ ____
ROOT
ATOM      1  N   UNL     1       2.933   4.568  20.790  0.00  0.00    +0.000 N 
ATOM      2  C   UNL     1       2.597   5.841  20.311  0.00  0.00    +0.000 A 
ATOM      3  C   UNL     1       3.208   6.236  19.129  0.00  0.00    +0.000 A 
ATOM      4  C   UNL     1       2.895   7.426  18.523  0.00  0.00    +0.000 A 
ATOM      5  C   UNL     1       1.956   8.275  19.194  0.00  0.00    +0.000 A 
ATOM      6  C   UNL     1       1.512   9.523  18.730  0.00  0.00    +0.000 A 
ATOM      7  C   UNL     1       0.617  10.416  19.388  0.00  0.00    +0.000 A 
ATOM      8  C   UNL     1       0.152  10.025  20.635  0.00  0.00    +0.000 A 
ATOM      9  C   UNL     1       0.566   8.752  21.120  0.00  0.00    +0.000 A 
ATOM     10  C   UNL     1       1.431   7.853  20.441  0.00  0.00    +0.000 A 
ATOM     11  N   UNL     1       1.733   6.656  20.973  0.00  0.00    +0.000 NA
ATOM     12  H   UNL     1       3.835   4.609  21.256  0.00  0.00    +0.000 HD
ENDROOT
BRANCH   4  13
ATOM     13  N   UNL     1       3.462   7.709  17.273  0.00  0.00    +0.000 N 
ATOM     14  H   UNL     1       3.192   8.560  16.836  0.00  0.00    +0.000 HD
BRANCH  13  15
ATOM     15  C   UNL     1       4.695   7.090  16.731  0.00  0.00    +0.000 C 
ATOM     16  C   UNL     1       4.513   5.569  16.629  0.00  0.00    +0.000 C 
ATOM     17  C   UNL     1       5.832   4.779  16.610  0.00  0.00    +0.000 C 
ATOM     18  N   UNL     1       6.791   5.238  17.615  0.00  0.00    +0.000 NA
ATOM     19  C   UNL     1       7.993   4.392  17.598  0.00  0.00    +0.000 C 
ATOM     20  C   UNL     1       7.150   6.646  17.432  0.00  0.00    +0.000 C 
ATOM     21  C   UNL     1       5.933   7.578  17.526  0.00  0.00    +0.000 C 
ENDBRANCH  13  15
ENDBRANCH   4  13
BRANCH   7  22
ATOM     22  O   UNL     1       0.352  11.403  18.494  0.00  0.00    +0.000 OA
ATOM     23  C   UNL     1       0.595  12.787  18.537  0.00  0.00    +0.000 C 
ENDBRANCH   7  22
BRANCH   8  24
ATOM     24  O   UNL     1      -0.716  10.622  21.511  0.00  0.00    +0.000 OA
ATOM     25  C   UNL     1      -0.592  10.354  22.889  0.00  0.00    +0.000 C 
ENDBRANCH   8  24
BRANCH   1  26
ATOM     26  C   UNL     1       1.888   3.910  21.555  0.00  0.00    +0.000 C 
BRANCH  26  27
ATOM     27  C   UNL     1       1.609   2.539  20.920  0.00  0.00    +0.000 C 
BRANCH  27  28
ATOM     28  C   UNL     1       2.674   2.191  19.880  0.00  0.00    +0.000 C 
BRANCH  28  29
ATOM     29  C   UNL     1       2.042   1.857  18.529  0.00  0.00    +0.000 C 
BRANCH  29  31
ATOM     30  C   UNL     1       1.274   4.012  17.486  0.00  0.00    +0.000 C 
ATOM     31  C   UNL     1       2.348   2.938  17.493  0.00  0.00    +0.000 C 
ENDBRANCH  29  31
ENDBRANCH  28  29
ENDBRANCH  27  28
ENDBRANCH  26  27
ENDBRANCH   1  26
TORSDOF 9
ENDMDL
MODEL 9
REMARK VINA RESULT:      -5.9      3.942      7.199
REMARK  Name = 
REMARK  13 active torsions:
REMARK  status: ('A' for Active; 'I' for Inactive)
REMARK    1  A    between atoms: C_1  and  C_2
REMARK    2  A    between atoms: C_2  and  C_3
REMARK    3  A    between atoms: C_3  and  C_4
REMARK    4  A    between atoms: C_4  and  C_5
REMARK    5  A    between atoms: C_5  and  C_6
REMARK    6  A    between atoms: C_6  and  N_7
REMARK    7  A    between atoms: C_10  and  N_11
REMARK    8  A    between atoms: N_11  and  C_12
REMARK    9  A    between atoms: N_15  and  C_16
REMARK   10  A    between atoms: C_21  and  O_22
REMARK   11  A    between atoms: O_22  and  C_23
REMARK   12  A    between atoms: C_24  and  O_25
REMARK   13  A    between atoms: O_25  and  C_26
REMARK                            x       y       z     vdW  Elec       q    Type
REMARK                         _______ _______ _______ _____ _____    ______ ____
ROOT
ATOM      1  N   UNL     1       1.413   8.505  17.833  0.00  0.00    +0.000 N 
ATOM      2  C   UNL     1       1.186   9.855  18.131  0.00  0.00    +0.000 A 
ATOM      3  C   UNL     1      -0.095  10.186  18.552  0.00  0.00    +0.000 A 
ATOM      4  C   UNL     1      -0.413  11.459  18.948  0.00  0.00    +0.000 A 
ATOM      5  C   UNL     1       0.617  12.451  18.850  0.00  0.00    +0.000 A 
ATOM      6  C   UNL     1       0.482  13.801  19.210  0.00  0.00    +0.000 A 
ATOM      7  C   UNL     1       1.465  14.826  19.085  0.00  0.00    +0.000 A 
ATOM      8  C   UNL     1       2.680  14.459  18.523  0.00  0.00    +0.000 A 
ATOM      9  C   UNL     1       2.853  13.091  18.172  0.00  0.00    +0.000 A 
ATOM     10  C   UNL     1       1.880  12.069  18.333  0.00  0.00    +0.000 A 
ATOM     11  N   UNL     1       2.158  10.796  18.000  0.00  0.00    +0.000 NA
ATOM     12  H   UNL     1       1.043   8.295  16.910  0.00  0.00    +0.000 HD
ENDROOT
BRANCH   4  13
ATOM     13  N   UNL     1      -1.691  11.698  19.471  0.00  0.00    +0.000 N 
ATOM     14  H   UNL     1      -2.424  11.101  19.165  0.00  0.00    +0.000 HD
BRANCH  13  15
ATOM     15  C   UNL     1      -1.982  12.468  20.704  0.00  0.00    +0.000 C 
ATOM     16  C   UNL     1      -1.441  11.715  21.928  0.00  0.00    +0.000 C 
ATOM     17  C   UNL     1      -2.123  12.098  23.252  0.00  0.00    +0.000 C 
ATOM     18  N   UNL     1      -3.581  12.173  23.146  0.00  0.00    +0.000 NA
ATOM     19  C   UNL     1      -4.174  12.462  24.459  0.00  0.00    +0.000 C 
ATOM     20  C   UNL     1      -4.011  13.165  22.157  0.00  0.00    +0.000 C 
ATOM     21  C   UNL     1      -3.483  12.857  20.749  0.00  0.00    +0.000 C 
ENDBRANCH  13  15
ENDBRANCH   4  13
BRANCH   7  22
ATOM     22  O   UNL     1       0.949  15.914  19.711  0.00  0.00    +0.000 OA
ATOM     23  C   UNL     1       1.389  16.639  20.833  0.00  0.00    +0.000 C 
ENDBRANCH   7  22
BRANCH   8  24
ATOM     24  O   UNL     1       3.823  15.173  18.281  0.00  0.00    +0.000 OA
ATOM     25  C   UNL     1       4.794  15.279  19.297  0.00  0.00    +0.000 C 
ENDBRANCH   8  24
BRANCH   1  26
ATOM     26  C   UNL     1       2.777   8.054  18.053  0.00  0.00    +0.000 C 
BRANCH  26  27
ATOM     27  C   UNL     1       2.732   6.703  18.783  0.00  0.00    +0.000 C 
BRANCH  27  28
ATOM     28  C   UNL     1       2.018   5.648  17.938  0.00  0.00    +0.000 C 
BRANCH  28  29
ATOM     29  C   UNL     1       2.516   4.242  18.269  0.00  0.00    +0.000 C 
BRANCH  29  31
ATOM     30  C   UNL     1       0.930   3.645  20.128  0.00  0.00    +0.000 C 
ATOM     31  C   UNL     1       1.365   3.336  18.705  0.00  0.00    +0.000 C 
ENDBRANCH  29  31
ENDBRANCH  28  29
ENDBRANCH  27  28
ENDBRANCH  26  27
ENDBRANCH   1  26
TORSDOF 9
ENDMDL
