MODEL 1
REMARK VINA RESULT:      -7.5      0.000      0.000
REMARK  Name = 
REMARK  4 active torsions:
REMARK  status: ('A' for Active; 'I' for Inactive)
REMARK    1  A    between atoms: N_1  and  S_2
REMARK    2  A    between atoms: S_2  and  C_5
REMARK    3  A    between atoms: C_8  and  N_9
REMARK    4  A    between atoms: C_12  and  C_13
REMARK                            x       y       z     vdW  Elec       q    Type
REMARK                         _______ _______ _______ _____ _____    ______ ____
ROOT
ATOM      1  N   UNL     1       1.679   8.171  20.881  0.00  0.00    +0.000 N 
ATOM      2  C   UNL     1       0.829   9.177  20.551  0.00  0.00    +0.000 A 
ATOM      3  N   UNL     1      -0.059   9.176  19.584  0.00  0.00    +0.000 NA
ATOM      4  C   UNL     1      -0.704  10.392  19.476  0.00  0.00    +0.000 A 
ATOM      5  C   UNL     1      -0.273  11.343  20.376  0.00  0.00    +0.000 A 
ATOM      6  S   UNL     1       0.902  10.667  21.426  0.00  0.00    +0.000 S 
ATOM      7  H   UNL     1       2.326   8.365  21.634  0.00  0.00    +0.000 HD
ENDROOT
BRANCH   4   8
ATOM      8  C   UNL     1      -1.731  10.595  18.461  0.00  0.00    +0.000 A 
ATOM      9  C   UNL     1      -2.813  11.467  18.665  0.00  0.00    +0.000 A 
ATOM     10  C   UNL     1      -3.800  11.612  17.687  0.00  0.00    +0.000 A 
ATOM     11  C   UNL     1      -3.711  10.886  16.504  0.00  0.00    +0.000 A 
ATOM     12  F   UNL     1      -4.665  11.021  15.575  0.00  0.00    +0.000 F 
ATOM     13  C   UNL     1      -2.650  10.019  16.278  0.00  0.00    +0.000 A 
ATOM     14  C   UNL     1      -1.663   9.873  17.256  0.00  0.00    +0.000 A 
ENDBRANCH   4   8
BRANCH   1  18
ATOM     15  C   UNL     1       2.879   4.882  18.524  0.00  0.00    +0.000 A 
ATOM     16  C   UNL     1       2.284   4.674  19.767  0.00  0.00    +0.000 A 
ATOM     17  C   UNL     1       1.868   5.780  20.520  0.00  0.00    +0.000 A 
ATOM     18  C   UNL     1       2.058   7.094  20.054  0.00  0.00    +0.000 A 
ATOM     19  C   UNL     1       2.646   7.263  18.794  0.00  0.00    +0.000 A 
ATOM     20  C   UNL     1       3.070   6.172  18.036  0.00  0.00    +0.000 A 
BRANCH  15  21
ATOM     21  S   UNL     1       3.400   3.525  17.523  0.00  0.00    +0.000 S 
ATOM     22  O   UNL     1       4.328   3.999  16.520  0.00  0.00    +0.000 OA
ATOM     23  O   UNL     1       2.259   2.705  17.197  0.00  0.00    +0.000 OA
BRANCH  21  24
ATOM     24  N   UNL     1       4.303   2.643  18.625  0.00  0.00    +0.000 NA
ATOM     25  H   UNL     1       3.707   1.969  19.102  0.00  0.00    +0.000 HD
ATOM     26  H   UNL     1       4.819   3.265  19.245  0.00  0.00    +0.000 HD
ENDBRANCH  21  24
ENDBRANCH  15  21
ENDBRANCH   1  18
TORSDOF 4
ENDMDL
MODEL 2
REMARK VINA RESULT:      -7.5      4.833      8.369
REMARK  Name = 
REMARK  4 active torsions:
REMARK  status: ('A' for Active; 'I' for Inactive)
REMARK    1  A    between atoms: N_1  and  S_2
REMARK    2  A    between atoms: S_2  and  C_5
REMARK    3  A    between atoms: C_8  and  N_9
REMARK    4  A    between atoms: C_12  and  C_13
REMARK                            x       y       z     vdW  Elec       q    Type
REMARK                         _______ _______ _______ _____ _____    ______ ____
ROOT
ATOM      1  N   UNL     1       2.450   5.950  20.519  0.00  0.00    +0.000 N 
ATOM      2  C   UNL     1       3.197   5.118  19.750  0.00  0.00    +0.000 A 
ATOM      3  N   UNL     1       3.929   5.448  18.710  0.00  0.00    +0.000 NA
ATOM      4  C   UNL     1       4.498   4.343  18.111  0.00  0.00    +0.000 A 
ATOM      5  C   UNL     1       4.168   3.143  18.704  0.00  0.00    +0.000 A 
ATOM      6  S   UNL     1       3.194   3.423  20.088  0.00  0.00    +0.000 S 
ATOM      7  H   UNL     1       1.917   5.513  21.258  0.00  0.00    +0.000 HD
ENDROOT
BRANCH   4   8
ATOM      8  C   UNL     1       5.351   4.496  16.938  0.00  0.00    +0.000 A 
ATOM      9  C   UNL     1       6.681   4.935  17.040  0.00  0.00    +0.000 A 
ATOM     10  C   UNL     1       7.461   5.107  15.892  0.00  0.00    +0.000 A 
ATOM     11  C   UNL     1       6.914   4.841  14.642  0.00  0.00    +0.000 A 
ATOM     12  F   UNL     1       7.663   5.017  13.546  0.00  0.00    +0.000 F 
ATOM     13  C   UNL     1       5.603   4.404  14.514  0.00  0.00    +0.000 A 
ATOM     14  C   UNL     1       4.822   4.233  15.661  0.00  0.00    +0.000 A 
ENDBRANCH   4   8
BRANCH   1  18
ATOM     15  C   UNL     1       0.960   9.767  19.508  0.00  0.00    +0.000 A 
ATOM     16  C   UNL     1       0.758   9.252  20.787  0.00  0.00    +0.000 A 
ATOM     17  C   UNL     1       1.285   7.995  21.109  0.00  0.00    +0.000 A 
ATOM     18  C   UNL     1       1.997   7.236  20.161  0.00  0.00    +0.000 A 
ATOM     19  C   UNL     1       2.192   7.794  18.890  0.00  0.00    +0.000 A 
ATOM     20  C   UNL     1       1.668   9.041  18.554  0.00  0.00    +0.000 A 
BRANCH  15  21
ATOM     21  S   UNL     1       0.338  11.355  19.055  0.00  0.00    +0.000 S 
ATOM     22  O   UNL     1       1.409  12.145  18.485  0.00  0.00    +0.000 OA
ATOM     23  O   UNL     1      -0.516  11.854  20.105  0.00  0.00    +0.000 OA
BRANCH  21  24
ATOM     24  N   UNL     1      -0.679  10.951  17.786  0.00  0.00    +0.000 NA
ATOM     25  H   UNL     1      -1.558  10.587  18.148  0.00  0.00    +0.000 HD
ATOM     26  H   UNL     1      -0.204  10.334  17.129  0.00  0.00    +0.000 HD
ENDBRANCH  21  24
ENDBRANCH  15  21
ENDBRANCH   1  18
TORSDOF 4
ENDMDL
MODEL 3
REMARK VINA RESULT:      -7.4      0.180      1.021
REMARK  Name = 
REMARK  4 active torsions:
REMARK  status: ('A' for Active; 'I' for Inactive)
REMARK    1  A    between atoms: N_1  and  S_2
REMARK    2  A    between atoms: S_2  and  C_5
REMARK    3  A    between atoms: C_8  and  N_9
REMARK    4  A    between atoms: C_12  and  C_13
REMARK                            x       y       z     vdW  Elec       q    Type
REMARK                         _______ _______ _______ _____ _____    ______ ____
ROOT
ATOM      1  N   UNL     1       1.603   8.259  20.964  0.00  0.00    +0.000 N 
ATOM      2  C   UNL     1       0.745   9.239  20.584  0.00  0.00    +0.000 A 
ATOM      3  N   UNL     1      -0.106   9.201  19.583  0.00  0.00    +0.000 NA
ATOM      4  C   UNL     1      -0.772  10.400  19.429  0.00  0.00    +0.000 A 
ATOM      5  C   UNL     1      -0.398  11.376  20.327  0.00  0.00    +0.000 A 
ATOM      6  S   UNL     1       0.751  10.745  21.433  0.00  0.00    +0.000 S 
ATOM      7  H   UNL     1       2.216   8.480  21.737  0.00  0.00    +0.000 HD
ENDROOT
BRANCH   4   8
ATOM      8  C   UNL     1      -1.764  10.562  18.372  0.00  0.00    +0.000 A 
ATOM      9  C   UNL     1      -2.874  11.409  18.520  0.00  0.00    +0.000 A 
ATOM     10  C   UNL     1      -3.826  11.514  17.502  0.00  0.00    +0.000 A 
ATOM     11  C   UNL     1      -3.672  10.774  16.336  0.00  0.00    +0.000 A 
ATOM     12  F   UNL     1      -4.593  10.872  15.368  0.00  0.00    +0.000 F 
ATOM     13  C   UNL     1      -2.582   9.931  16.164  0.00  0.00    +0.000 A 
ATOM     14  C   UNL     1      -1.631   9.824  17.181  0.00  0.00    +0.000 A 
ENDBRANCH   4   8
BRANCH   1  18
ATOM     15  C   UNL     1       2.842   5.084  18.473  0.00  0.00    +0.000 A 
ATOM     16  C   UNL     1       3.046   6.406  18.079  0.00  0.00    +0.000 A 
ATOM     17  C   UNL     1       2.652   7.443  18.934  0.00  0.00    +0.000 A 
ATOM     18  C   UNL     1       2.038   7.177  20.171  0.00  0.00    +0.000 A 
ATOM     19  C   UNL     1       1.863   5.836  20.540  0.00  0.00    +0.000 A 
ATOM     20  C   UNL     1       2.245   4.794  19.697  0.00  0.00    +0.000 A 
BRANCH  15  21
ATOM     21  S   UNL     1       3.340   3.738  17.447  0.00  0.00    +0.000 S 
ATOM     22  O   UNL     1       4.285   4.213  16.458  0.00  0.00    +0.000 OA
ATOM     23  O   UNL     1       2.185   2.950  17.096  0.00  0.00    +0.000 OA
BRANCH  21  24
ATOM     24  N   UNL     1       4.218   2.814  18.535  0.00  0.00    +0.000 NA
ATOM     25  H   UNL     1       5.211   3.012  18.436  0.00  0.00    +0.000 HD
ATOM     26  H   UNL     1       3.971   1.830  18.450  0.00  0.00    +0.000 HD
ENDBRANCH  21  24
ENDBRANCH  15  21
ENDBRANCH   1  18
TORSDOF 4
ENDMDL
MODEL 4
REMARK VINA RESULT:      -7.4      4.820      8.075
REMARK  Name = 
REMARK  4 active torsions:
REMARK  status: ('A' for Active; 'I' for Inactive)
REMARK    1  A    between atoms: N_1  and  S_2
REMARK    2  A    between atoms: S_2  and  C_5
REMARK    3  A    between atoms: C_8  and  N_9
REMARK    4  A    between atoms: C_12  and  C_13
REMARK                            x       y       z     vdW  Elec       q    Type
REMARK                         _______ _______ _______ _____ _____    ______ ____
ROOT
ATOM      1  N   UNL     1       1.515   7.493  20.863  0.00  0.00    +0.000 N 
ATOM      2  C   UNL     1       2.149   6.504  20.182  0.00  0.00    +0.000 A 
ATOM      3  N   UNL     1       2.866   6.632  19.088  0.00  0.00    +0.000 NA
ATOM      4  C   UNL     1       3.304   5.412  18.615  0.00  0.00    +0.000 A 
ATOM      5  C   UNL     1       2.887   4.331  19.364  0.00  0.00    +0.000 A 
ATOM      6  S   UNL     1       2.001   4.872  20.729  0.00  0.00    +0.000 S 
ATOM      7  H   UNL     1       0.974   7.203  21.665  0.00  0.00    +0.000 HD
ENDROOT
BRANCH   4   8
ATOM      8  C   UNL     1       4.119   5.337  17.408  0.00  0.00    +0.000 A 
ATOM      9  C   UNL     1       4.497   4.109  16.843  0.00  0.00    +0.000 A 
ATOM     10  C   UNL     1       5.310   4.072  15.706  0.00  0.00    +0.000 A 
ATOM     11  C   UNL     1       5.747   5.261  15.133  0.00  0.00    +0.000 A 
ATOM     12  F   UNL     1       6.534   5.218  14.051  0.00  0.00    +0.000 F 
ATOM     13  C   UNL     1       5.386   6.488  15.672  0.00  0.00    +0.000 A 
ATOM     14  C   UNL     1       4.574   6.526  16.809  0.00  0.00    +0.000 A 
ENDBRANCH   4   8
BRANCH   1  18
ATOM     15  C   UNL     1       0.347  11.285  19.424  0.00  0.00    +0.000 A 
ATOM     16  C   UNL     1       0.135  10.946  20.759  0.00  0.00    +0.000 A 
ATOM     17  C   UNL     1       0.556   9.692  21.221  0.00  0.00    +0.000 A 
ATOM     18  C   UNL     1       1.170   8.764  20.360  0.00  0.00    +0.000 A 
ATOM     19  C   UNL     1       1.380   9.147  19.028  0.00  0.00    +0.000 A 
ATOM     20  C   UNL     1       0.961  10.388  18.553  0.00  0.00    +0.000 A 
BRANCH  15  21
ATOM     21  S   UNL     1      -0.141  12.859  18.793  0.00  0.00    +0.000 S 
ATOM     22  O   UNL     1       0.992  13.493  18.157  0.00  0.00    +0.000 OA
ATOM     23  O   UNL     1      -0.957  13.536  19.772  0.00  0.00    +0.000 OA
BRANCH  21  24
ATOM     24  N   UNL     1      -1.181  12.402  17.562  0.00  0.00    +0.000 NA
ATOM     25  H   UNL     1      -2.098  12.180  17.946  0.00  0.00    +0.000 HD
ATOM     26  H   UNL     1      -0.767  11.660  17.000  0.00  0.00    +0.000 HD
ENDBRANCH  21  24
ENDBRANCH  15  21
ENDBRANCH   1  18
TORSDOF 4
ENDMDL
MODEL 5
REMARK VINA RESULT:      -7.4      0.073      1.011
REMARK  Name = 
REMARK  4 active torsions:
REMARK  status: ('A' for Active; 'I' for Inactive)
REMARK    1  A    between atoms: N_1  and  S_2
REMARK    2  A    between atoms: S_2  and  C_5
REMARK    3  A    between atoms: C_8  and  N_9
REMARK    4  A    between atoms: C_12  and  C_13
REMARK                            x       y       z     vdW  Elec       q    Type
REMARK                         _______ _______ _______ _____ _____    ______ ____
ROOT
ATOM      1  N   UNL     1       1.700   8.156  20.873  0.00  0.00    +0.000 N 
ATOM      2  C   UNL     1       0.844   9.156  20.542  0.00  0.00    +0.000 A 
ATOM      3  N   UNL     1      -0.054   9.142  19.584  0.00  0.00    +0.000 NA
ATOM      4  C   UNL     1      -0.704  10.355  19.471  0.00  0.00    +0.000 A 
ATOM      5  C   UNL     1      -0.267  11.316  20.357  0.00  0.00    +0.000 A 
ATOM      6  S   UNL     1       0.921  10.654  21.402  0.00  0.00    +0.000 S 
ATOM      7  H   UNL     1       2.354   8.359  21.617  0.00  0.00    +0.000 HD
ENDROOT
BRANCH   4   8
ATOM      8  C   UNL     1      -1.742  10.545  18.465  0.00  0.00    +0.000 A 
ATOM      9  C   UNL     1      -1.707   9.882  17.228  0.00  0.00    +0.000 A 
ATOM     10  C   UNL     1      -2.699  10.116  16.271  0.00  0.00    +0.000 A 
ATOM     11  C   UNL     1      -3.726  11.011  16.547  0.00  0.00    +0.000 A 
ATOM     12  F   UNL     1      -4.667  11.237  15.622  0.00  0.00    +0.000 F 
ATOM     13  C   UNL     1      -3.784  11.678  17.763  0.00  0.00    +0.000 A 
ATOM     14  C   UNL     1      -2.793  11.446  18.720  0.00  0.00    +0.000 A 
ENDBRANCH   4   8
BRANCH   1  18
ATOM     15  C   UNL     1       2.885   4.846  18.537  0.00  0.00    +0.000 A 
ATOM     16  C   UNL     1       2.269   4.649  19.771  0.00  0.00    +0.000 A 
ATOM     17  C   UNL     1       1.860   5.761  20.517  0.00  0.00    +0.000 A 
ATOM     18  C   UNL     1       2.075   7.072  20.053  0.00  0.00    +0.000 A 
ATOM     19  C   UNL     1       2.683   7.231  18.800  0.00  0.00    +0.000 A 
ATOM     20  C   UNL     1       3.101   6.133  18.050  0.00  0.00    +0.000 A 
BRANCH  15  21
ATOM     21  S   UNL     1       3.399   3.481  17.544  0.00  0.00    +0.000 S 
ATOM     22  O   UNL     1       4.315   3.947  16.525  0.00  0.00    +0.000 OA
ATOM     23  O   UNL     1       2.258   2.653  17.239  0.00  0.00    +0.000 OA
BRANCH  21  24
ATOM     24  N   UNL     1       4.318   2.614  18.646  0.00  0.00    +0.000 NA
ATOM     25  H   UNL     1       3.711   2.187  19.343  0.00  0.00    +0.000 HD
ATOM     26  H   UNL     1       5.061   3.195  19.028  0.00  0.00    +0.000 HD
ENDBRANCH  21  24
ENDBRANCH  15  21
ENDBRANCH   1  18
TORSDOF 4
ENDMDL
MODEL 6
REMARK VINA RESULT:      -7.4      4.853      8.064
REMARK  Name = 
REMARK  4 active torsions:
REMARK  status: ('A' for Active; 'I' for Inactive)
REMARK    1  A    between atoms: N_1  and  S_2
REMARK    2  A    between atoms: S_2  and  C_5
REMARK    3  A    between atoms: C_8  and  N_9
REMARK    4  A    between atoms: C_12  and  C_13
REMARK                            x       y       z     vdW  Elec       q    Type
REMARK                         _______ _______ _______ _____ _____    ______ ____
ROOT
ATOM      1  N   UNL     1       1.506   7.540  20.876  0.00  0.00    +0.000 N 
ATOM      2  C   UNL     1       2.135   6.545  20.201  0.00  0.00    +0.000 A 
ATOM      3  N   UNL     1       2.888   6.669  19.132  0.00  0.00    +0.000 NA
ATOM      4  C   UNL     1       3.309   5.443  18.655  0.00  0.00    +0.000 A 
ATOM      5  C   UNL     1       2.841   4.364  19.375  0.00  0.00    +0.000 A 
ATOM      6  S   UNL     1       1.927   4.909  20.720  0.00  0.00    +0.000 S 
ATOM      7  H   UNL     1       0.932   7.254  21.657  0.00  0.00    +0.000 HD
ENDROOT
BRANCH   4   8
ATOM      8  C   UNL     1       4.159   5.363  17.473  0.00  0.00    +0.000 A 
ATOM      9  C   UNL     1       4.555   6.509  16.765  0.00  0.00    +0.000 A 
ATOM     10  C   UNL     1       5.340   6.395  15.614  0.00  0.00    +0.000 A 
ATOM     11  C   UNL     1       5.731   5.137  15.169  0.00  0.00    +0.000 A 
ATOM     12  F   UNL     1       6.475   5.034  14.060  0.00  0.00    +0.000 F 
ATOM     13  C   UNL     1       5.354   3.989  15.852  0.00  0.00    +0.000 A 
ATOM     14  C   UNL     1       4.569   4.102  17.002  0.00  0.00    +0.000 A 
ENDBRANCH   4   8
BRANCH   1  18
ATOM     15  C   UNL     1       0.488  11.387  19.468  0.00  0.00    +0.000 A 
ATOM     16  C   UNL     1       0.333  11.070  20.816  0.00  0.00    +0.000 A 
ATOM     17  C   UNL     1       0.703   9.796  21.266  0.00  0.00    +0.000 A 
ATOM     18  C   UNL     1       1.210   8.827  20.381  0.00  0.00    +0.000 A 
ATOM     19  C   UNL     1       1.366   9.188  19.036  0.00  0.00    +0.000 A 
ATOM     20  C   UNL     1       0.997  10.449  18.573  0.00  0.00    +0.000 A 
BRANCH  15  21
ATOM     21  S   UNL     1       0.061  12.984  18.851  0.00  0.00    +0.000 S 
ATOM     22  O   UNL     1       1.196  13.548  18.153  0.00  0.00    +0.000 OA
ATOM     23  O   UNL     1      -0.664  13.712  19.864  0.00  0.00    +0.000 OA
BRANCH  21  24
ATOM     24  N   UNL     1      -1.065  12.582  17.677  0.00  0.00    +0.000 NA
ATOM     25  H   UNL     1      -1.874  13.196  17.747  0.00  0.00    +0.000 HD
ATOM     26  H   UNL     1      -1.283  11.588  17.714  0.00  0.00    +0.000 HD
ENDBRANCH  21  24
ENDBRANCH  15  21
ENDBRANCH   1  18
TORSDOF 4
ENDMDL
MODEL 7
REMARK VINA RESULT:      -7.4      4.848      8.387
REMARK  Name = 
REMARK  4 active torsions:
REMARK  status: ('A' for Active; 'I' for Inactive)
REMARK    1  A    between atoms: N_1  and  S_2
REMARK    2  A    between atoms: S_2  and  C_5
REMARK    3  A    between atoms: C_8  and  N_9
REMARK    4  A    between atoms: C_12  and  C_13
REMARK                            x       y       z     vdW  Elec       q    Type
REMARK                         _______ _______ _______ _____ _____    ______ ____
ROOT
ATOM      1  N   UNL     1       2.261   5.879  20.737  0.00  0.00    +0.000 N 
ATOM      2  C   UNL     1       3.030   5.042  19.995  0.00  0.00    +0.000 A 
ATOM      3  N   UNL     1       3.794   5.366  18.977  0.00  0.00    +0.000 NA
ATOM      4  C   UNL     1       4.380   4.257  18.401  0.00  0.00    +0.000 A 
ATOM      5  C   UNL     1       4.029   3.061  18.990  0.00  0.00    +0.000 A 
ATOM      6  S   UNL     1       3.013   3.349  20.341  0.00  0.00    +0.000 S 
ATOM      7  H   UNL     1       1.703   5.446  21.460  0.00  0.00    +0.000 HD
ENDROOT
BRANCH   4   8
ATOM      8  C   UNL     1       5.270   4.403  17.255  0.00  0.00    +0.000 A 
ATOM      9  C   UNL     1       6.639   4.673  17.408  0.00  0.00    +0.000 A 
ATOM     10  C   UNL     1       7.457   4.844  16.288  0.00  0.00    +0.000 A 
ATOM     11  C   UNL     1       6.910   4.746  15.014  0.00  0.00    +0.000 A 
ATOM     12  F   UNL     1       7.698   4.921  13.945  0.00  0.00    +0.000 F 
ATOM     13  C   UNL     1       5.560   4.479  14.835  0.00  0.00    +0.000 A 
ATOM     14  C   UNL     1       4.741   4.308  15.954  0.00  0.00    +0.000 A 
ENDBRANCH   4   8
BRANCH   1  18
ATOM     15  C   UNL     1       1.079   9.753  19.546  0.00  0.00    +0.000 A 
ATOM     16  C   UNL     1       1.754   8.920  18.655  0.00  0.00    +0.000 A 
ATOM     17  C   UNL     1       2.111   7.629  19.063  0.00  0.00    +0.000 A 
ATOM     18  C   UNL     1       1.821   7.165  20.358  0.00  0.00    +0.000 A 
ATOM     19  C   UNL     1       1.128   8.025  21.222  0.00  0.00    +0.000 A 
ATOM     20  C   UNL     1       0.771   9.314  20.832  0.00  0.00    +0.000 A 
BRANCH  15  21
ATOM     21  S   UNL     1       0.583  11.380  19.079  0.00  0.00    +0.000 S 
ATOM     22  O   UNL     1       1.694  12.057  18.445  0.00  0.00    +0.000 OA
ATOM     23  O   UNL     1      -0.175  11.977  20.151  0.00  0.00    +0.000 OA
BRANCH  21  24
ATOM     24  N   UNL     1      -0.521  11.042  17.864  0.00  0.00    +0.000 NA
ATOM     25  H   UNL     1      -1.102  10.250  18.134  0.00  0.00    +0.000 HD
ATOM     26  H   UNL     1      -0.047  10.934  16.969  0.00  0.00    +0.000 HD
ENDBRANCH  21  24
ENDBRANCH  15  21
ENDBRANCH   1  18
TORSDOF 4
ENDMDL
MODEL 8
REMARK VINA RESULT:      -7.4      4.841      8.365
REMARK  Name = 
REMARK  4 active torsions:
REMARK  status: ('A' for Active; 'I' for Inactive)
REMARK    1  A    between atoms: N_1  and  S_2
REMARK    2  A    between atoms: S_2  and  C_5
REMARK    3  A    between atoms: C_8  and  N_9
REMARK    4  A    between atoms: C_12  and  C_13
REMARK                            x       y       z     vdW  Elec       q    Type
REMARK                         _______ _______ _______ _____ _____    ______ ____
ROOT
ATOM      1  N   UNL     1       2.417   6.067  20.538  0.00  0.00    +0.000 N 
ATOM      2  C   UNL     1       3.154   5.235  19.759  0.00  0.00    +0.000 A 
ATOM      3  N   UNL     1       3.856   5.563  18.698  0.00  0.00    +0.000 NA
ATOM      4  C   UNL     1       4.424   4.458  18.096  0.00  0.00    +0.000 A 
ATOM      5  C   UNL     1       4.122   3.261  18.710  0.00  0.00    +0.000 A 
ATOM      6  S   UNL     1       3.180   3.544  20.114  0.00  0.00    +0.000 S 
ATOM      7  H   UNL     1       1.906   5.631  21.294  0.00  0.00    +0.000 HD
ENDROOT
BRANCH   4   8
ATOM      8  C   UNL     1       5.246   4.609  16.901  0.00  0.00    +0.000 A 
ATOM      9  C   UNL     1       4.763   4.287  15.622  0.00  0.00    +0.000 A 
ATOM     10  C   UNL     1       5.590   4.408  14.502  0.00  0.00    +0.000 A 
ATOM     11  C   UNL     1       6.899   4.849  14.655  0.00  0.00    +0.000 A 
ATOM     12  F   UNL     1       7.689   4.953  13.579  0.00  0.00    +0.000 F 
ATOM     13  C   UNL     1       7.400   5.175  15.909  0.00  0.00    +0.000 A 
ATOM     14  C   UNL     1       6.575   5.053  17.030  0.00  0.00    +0.000 A 
ENDBRANCH   4   8
BRANCH   1  18
ATOM     15  C   UNL     1       0.855   9.854  19.520  0.00  0.00    +0.000 A 
ATOM     16  C   UNL     1       0.656   9.334  20.798  0.00  0.00    +0.000 A 
ATOM     17  C   UNL     1       1.207   8.087  21.122  0.00  0.00    +0.000 A 
ATOM     18  C   UNL     1       1.939   7.344  20.178  0.00  0.00    +0.000 A 
ATOM     19  C   UNL     1       2.130   7.906  18.908  0.00  0.00    +0.000 A 
ATOM     20  C   UNL     1       1.583   9.142  18.570  0.00  0.00    +0.000 A 
BRANCH  15  21
ATOM     21  S   UNL     1       0.204  11.429  19.064  0.00  0.00    +0.000 S 
ATOM     22  O   UNL     1       1.269  12.255  18.540  0.00  0.00    +0.000 OA
ATOM     23  O   UNL     1      -0.698  11.890  20.091  0.00  0.00    +0.000 OA
BRANCH  21  24
ATOM     24  N   UNL     1      -0.759  11.011  17.758  0.00  0.00    +0.000 NA
ATOM     25  H   UNL     1      -1.000  10.023  17.806  0.00  0.00    +0.000 HD
ATOM     26  H   UNL     1      -0.322  11.299  16.884  0.00  0.00    +0.000 HD
ENDBRANCH  21  24
ENDBRANCH  15  21
ENDBRANCH   1  18
TORSDOF 4
ENDMDL
MODEL 9
REMARK VINA RESULT:      -7.3      4.987      8.317
REMARK  Name = 
REMARK  4 active torsions:
REMARK  status: ('A' for Active; 'I' for Inactive)
REMARK    1  A    between atoms: N_1  and  S_2
REMARK    2  A    between atoms: S_2  and  C_5
REMARK    3  A    between atoms: C_8  and  N_9
REMARK    4  A    between atoms: C_12  and  C_13
REMARK                            x       y       z     vdW  Elec       q    Type
REMARK                         _______ _______ _______ _____ _____    ______ ____
ROOT
ATOM      1  N   UNL     1       1.698   6.741  20.997  0.00  0.00    +0.000 N 
ATOM      2  C   UNL     1       2.407   5.752  20.397  0.00  0.00    +0.000 A 
ATOM      3  N   UNL     1       3.319   5.888  19.462  0.00  0.00    +0.000 NA
ATOM      4  C   UNL     1       3.789   4.668  19.020  0.00  0.00    +0.000 A 
ATOM      5  C   UNL     1       3.198   3.580  19.625  0.00  0.00    +0.000 A 
ATOM      6  S   UNL     1       2.095   4.107  20.829  0.00  0.00    +0.000 S 
ATOM      7  H   UNL     1       1.005   6.446  21.671  0.00  0.00    +0.000 HD
ENDROOT
BRANCH   4   8
ATOM      8  C   UNL     1       4.811   4.602  17.981  0.00  0.00    +0.000 A 
ATOM      9  C   UNL     1       6.171   4.807  18.265  0.00  0.00    +0.000 A 
ATOM     10  C   UNL     1       7.121   4.773  17.240  0.00  0.00    +0.000 A 
ATOM     11  C   UNL     1       6.715   4.537  15.932  0.00  0.00    +0.000 A 
ATOM     12  F   UNL     1       7.629   4.517  14.953  0.00  0.00    +0.000 F 
ATOM     13  C   UNL     1       5.377   4.331  15.625  0.00  0.00    +0.000 A 
ATOM     14  C   UNL     1       4.426   4.364  16.649  0.00  0.00    +0.000 A 
ENDBRANCH   4   8
BRANCH   1  18
ATOM     15  C   UNL     1       0.984  10.655  19.585  0.00  0.00    +0.000 A 
ATOM     16  C   UNL     1       0.799  10.351  20.933  0.00  0.00    +0.000 A 
ATOM     17  C   UNL     1       1.069   9.052  21.384  0.00  0.00    +0.000 A 
ATOM     18  C   UNL     1       1.503   8.047  20.501  0.00  0.00    +0.000 A 
ATOM     19  C   UNL     1       1.692   8.394  19.156  0.00  0.00    +0.000 A 
ATOM     20  C   UNL     1       1.422   9.680  18.692  0.00  0.00    +0.000 A 
BRANCH  15  21
ATOM     21  S   UNL     1       0.682  12.279  18.966  0.00  0.00    +0.000 S 
ATOM     22  O   UNL     1       1.004  13.250  19.990  0.00  0.00    +0.000 OA
ATOM     23  O   UNL     1      -0.571  12.295  18.252  0.00  0.00    +0.000 OA
BRANCH  21  24
ATOM     24  N   UNL     1       1.880  12.405  17.801  0.00  0.00    +0.000 NA
ATOM     25  H   UNL     1       2.184  13.373  17.719  0.00  0.00    +0.000 HD
ATOM     26  H   UNL     1       1.575  11.981  16.927  0.00  0.00    +0.000 HD
ENDBRANCH  21  24
ENDBRANCH  15  21
ENDBRANCH   1  18
TORSDOF 4
ENDMDL
