MODEL 1
REMARK VINA RESULT:      -7.8      0.000      0.000
REMARK  Name = 
REMARK  6 active torsions:
REMARK  status: ('A' for Active; 'I' for Inactive)
REMARK    1  A    between atoms: P_2  and  O_3
REMARK    2  A    between atoms: P_2  and  O_4
REMARK    3  A    between atoms: P_2  and  C_5
REMARK    4  A    between atoms: C_5  and  C_8
REMARK    5  A    between atoms: C_12  and  C_13
REMARK    6  A    between atoms: C_14  and  C_15
REMARK                            x       y       z     vdW  Elec       q    Type
REMARK                         _______ _______ _______ _____ _____    ______ ____
ROOT
ATOM      1  C   UNL     1       4.156   5.346  17.640  0.00  0.00    +0.000 A 
ATOM      2  C   UNL     1       4.002   4.053  18.161  0.00  0.00    +0.000 A 
ATOM      3  C   UNL     1       3.197   3.836  19.282  0.00  0.00    +0.000 A 
ATOM      4  C   UNL     1       2.544   4.907  19.897  0.00  0.00    +0.000 A 
ATOM      5  C   UNL     1       2.667   6.194  19.376  0.00  0.00    +0.000 A 
ATOM      6  C   UNL     1       3.455   6.408  18.242  0.00  0.00    +0.000 A 
ENDROOT
BRANCH   1   7
ATOM      7  C   UNL     1       5.180   5.631  16.553  0.00  0.00    +0.000 C 
ATOM      8  F   UNL     1       5.390   6.953  16.318  0.00  0.00    +0.000 F 
ATOM      9  F   UNL     1       4.883   5.046  15.357  0.00  0.00    +0.000 F 
BRANCH   7  11
ATOM     10  O   UNL     1       8.195   4.265  17.229  0.00  0.00    +0.000 OA
ATOM     11  P   UNL     1       6.813   4.891  16.919  0.00  0.00    +0.000 P 
BRANCH  11  12
ATOM     12  O   UNL     1       7.190   6.140  17.936  0.00  0.00    +0.000 OA
ATOM     13  H   UNL     1       8.080   6.451  17.675  0.00  0.00    +0.000 HD
ENDBRANCH  11  12
BRANCH  11  14
ATOM     14  O   UNL     1       7.452   5.552  15.545  0.00  0.00    +0.000 OA
ATOM     15  H   UNL     1       7.009   6.413  15.405  0.00  0.00    +0.000 HD
ENDBRANCH  11  14
ENDBRANCH   7  11
ENDBRANCH   1   7
BRANCH   5  16
ATOM     16  C   UNL     1       2.013   7.291  20.027  0.00  0.00    +0.000 C 
ATOM     17  C   UNL     1       1.439   8.190  20.577  0.00  0.00    +0.000 C 
BRANCH  17  18
ATOM     18  C   UNL     1       0.713   9.247  21.213  0.00  0.00    +0.000 A 
ATOM     19  C   UNL     1       0.689  10.521  20.637  0.00  0.00    +0.000 A 
ATOM     20  C   UNL     1       0.021  11.567  21.278  0.00  0.00    +0.000 A 
ATOM     21  C   UNL     1      -0.626  11.340  22.492  0.00  0.00    +0.000 A 
ATOM     22  C   UNL     1      -0.615  10.066  23.061  0.00  0.00    +0.000 A 
ATOM     23  C   UNL     1       0.051   9.020  22.422  0.00  0.00    +0.000 A 
ENDBRANCH  17  18
ENDBRANCH   5  16
TORSDOF 6
ENDMDL
MODEL 2
REMARK VINA RESULT:      -7.7      1.267      1.561
REMARK  Name = 
REMARK  6 active torsions:
REMARK  status: ('A' for Active; 'I' for Inactive)
REMARK    1  A    between atoms: P_2  and  O_3
REMARK    2  A    between atoms: P_2  and  O_4
REMARK    3  A    between atoms: P_2  and  C_5
REMARK    4  A    between atoms: C_5  and  C_8
REMARK    5  A    between atoms: C_12  and  C_13
REMARK    6  A    between atoms: C_14  and  C_15
REMARK                            x       y       z     vdW  Elec       q    Type
REMARK                         _______ _______ _______ _____ _____    ______ ____
ROOT
ATOM      1  C   UNL     1       4.514   4.987  17.054  0.00  0.00    +0.000 A 
ATOM      2  C   UNL     1       3.753   3.823  16.867  0.00  0.00    +0.000 A 
ATOM      3  C   UNL     1       2.471   3.724  17.414  0.00  0.00    +0.000 A 
ATOM      4  C   UNL     1       1.939   4.780  18.156  0.00  0.00    +0.000 A 
ATOM      5  C   UNL     1       2.673   5.953  18.330  0.00  0.00    +0.000 A 
ATOM      6  C   UNL     1       3.947   6.061  17.766  0.00  0.00    +0.000 A 
ENDROOT
BRANCH   1   7
ATOM      7  C   UNL     1       5.976   5.035  16.644  0.00  0.00    +0.000 C 
ATOM      8  F   UNL     1       6.294   6.079  15.833  0.00  0.00    +0.000 F 
ATOM      9  F   UNL     1       6.409   3.896  16.030  0.00  0.00    +0.000 F 
BRANCH   7  11
ATOM     10  O   UNL     1       8.061   5.189  19.299  0.00  0.00    +0.000 OA
ATOM     11  P   UNL     1       7.105   5.118  18.082  0.00  0.00    +0.000 P 
BRANCH  11  12
ATOM     12  O   UNL     1       8.193   4.124  17.329  0.00  0.00    +0.000 OA
ATOM     13  H   UNL     1       7.710   3.300  17.112  0.00  0.00    +0.000 HD
ENDBRANCH  11  12
BRANCH  11  14
ATOM     14  O   UNL     1       6.252   3.932  18.856  0.00  0.00    +0.000 OA
ATOM     15  H   UNL     1       5.923   3.318  18.170  0.00  0.00    +0.000 HD
ENDBRANCH  11  14
ENDBRANCH   7  11
ENDBRANCH   1   7
BRANCH   5  16
ATOM     16  C   UNL     1       2.130   7.023  19.114  0.00  0.00    +0.000 C 
ATOM     17  C   UNL     1       1.651   7.899  19.780  0.00  0.00    +0.000 C 
BRANCH  17  18
ATOM     18  C   UNL     1       1.034   8.929  20.559  0.00  0.00    +0.000 A 
ATOM     19  C   UNL     1       0.785  10.181  19.988  0.00  0.00    +0.000 A 
ATOM     20  C   UNL     1       0.227  11.204  20.759  0.00  0.00    +0.000 A 
ATOM     21  C   UNL     1      -0.086  10.975  22.098  0.00  0.00    +0.000 A 
ATOM     22  C   UNL     1       0.148   9.722  22.666  0.00  0.00    +0.000 A 
ATOM     23  C   UNL     1       0.705   8.699  21.898  0.00  0.00    +0.000 A 
ENDBRANCH  17  18
ENDBRANCH   5  16
TORSDOF 6
ENDMDL
MODEL 3
REMARK VINA RESULT:      -7.7      0.190      1.071
REMARK  Name = 
REMARK  6 active torsions:
REMARK  status: ('A' for Active; 'I' for Inactive)
REMARK    1  A    between atoms: P_2  and  O_3
REMARK    2  A    between atoms: P_2  and  O_4
REMARK    3  A    between atoms: P_2  and  C_5
REMARK    4  A    between atoms: C_5  and  C_8
REMARK    5  A    between atoms: C_12  and  C_13
REMARK    6  A    between atoms: C_14  and  C_15
REMARK                            x       y       z     vdW  Elec       q    Type
REMARK                         _______ _______ _______ _____ _____    ______ ____
ROOT
ATOM      1  C   UNL     1       4.207   5.433  17.789  0.00  0.00    +0.000 A 
ATOM      2  C   UNL     1       4.090   4.127  18.287  0.00  0.00    +0.000 A 
ATOM      3  C   UNL     1       3.258   3.860  19.377  0.00  0.00    +0.000 A 
ATOM      4  C   UNL     1       2.542   4.894  19.985  0.00  0.00    +0.000 A 
ATOM      5  C   UNL     1       2.629   6.193  19.487  0.00  0.00    +0.000 A 
ATOM      6  C   UNL     1       3.444   6.456  18.383  0.00  0.00    +0.000 A 
ENDROOT
BRANCH   1   7
ATOM      7  C   UNL     1       5.253   5.776  16.741  0.00  0.00    +0.000 C 
ATOM      8  F   UNL     1       5.519   7.105  16.633  0.00  0.00    +0.000 F 
ATOM      9  F   UNL     1       4.946   5.319  15.493  0.00  0.00    +0.000 F 
BRANCH   7  11
ATOM     10  O   UNL     1       8.204   4.230  17.306  0.00  0.00    +0.000 OA
ATOM     11  P   UNL     1       6.851   4.939  17.047  0.00  0.00    +0.000 P 
BRANCH  11  12
ATOM     12  O   UNL     1       7.240   6.035  18.224  0.00  0.00    +0.000 OA
ATOM     13  H   UNL     1       6.904   5.667  19.066  0.00  0.00    +0.000 HD
ENDBRANCH  11  12
BRANCH  11  14
ATOM     14  O   UNL     1       7.549   5.746  15.784  0.00  0.00    +0.000 OA
ATOM     15  H   UNL     1       6.910   6.425  15.486  0.00  0.00    +0.000 HD
ENDBRANCH  11  14
ENDBRANCH   7  11
ENDBRANCH   1   7
BRANCH   5  16
ATOM     16  C   UNL     1       1.910   7.252  20.132  0.00  0.00    +0.000 C 
ATOM     17  C   UNL     1       1.333   8.161  20.662  0.00  0.00    +0.000 C 
BRANCH  17  18
ATOM     18  C   UNL     1       0.687   9.263  21.309  0.00  0.00    +0.000 A 
ATOM     19  C   UNL     1      -0.040   9.053  22.484  0.00  0.00    +0.000 A 
ATOM     20  C   UNL     1      -0.712  10.116  23.092  0.00  0.00    +0.000 A 
ATOM     21  C   UNL     1      -0.652  11.391  22.529  0.00  0.00    +0.000 A 
ATOM     22  C   UNL     1       0.086  11.605  21.364  0.00  0.00    +0.000 A 
ATOM     23  C   UNL     1       0.757  10.544  20.755  0.00  0.00    +0.000 A 
ENDBRANCH  17  18
ENDBRANCH   5  16
TORSDOF 6
ENDMDL
MODEL 4
REMARK VINA RESULT:      -7.6      5.116      6.860
REMARK  Name = 
REMARK  6 active torsions:
REMARK  status: ('A' for Active; 'I' for Inactive)
REMARK    1  A    between atoms: P_2  and  O_3
REMARK    2  A    between atoms: P_2  and  O_4
REMARK    3  A    between atoms: P_2  and  C_5
REMARK    4  A    between atoms: C_5  and  C_8
REMARK    5  A    between atoms: C_12  and  C_13
REMARK    6  A    between atoms: C_14  and  C_15
REMARK                            x       y       z     vdW  Elec       q    Type
REMARK                         _______ _______ _______ _____ _____    ______ ____
ROOT
ATOM      1  C   UNL     1       5.270   5.169  17.764  0.00  0.00    +0.000 A 
ATOM      2  C   UNL     1       5.611   4.550  16.552  0.00  0.00    +0.000 A 
ATOM      3  C   UNL     1       6.652   5.057  15.770  0.00  0.00    +0.000 A 
ATOM      4  C   UNL     1       7.357   6.189  16.186  0.00  0.00    +0.000 A 
ATOM      5  C   UNL     1       7.046   6.801  17.399  0.00  0.00    +0.000 A 
ATOM      6  C   UNL     1       6.019   6.281  18.192  0.00  0.00    +0.000 A 
ENDROOT
BRANCH   1   7
ATOM      7  C   UNL     1       4.019   4.758  18.523  0.00  0.00    +0.000 C 
ATOM      8  F   UNL     1       2.871   5.307  18.046  0.00  0.00    +0.000 F 
ATOM      9  F   UNL     1       4.078   5.029  19.858  0.00  0.00    +0.000 F 
BRANCH   7  11
ATOM     10  O   UNL     1       3.564   1.409  18.546  0.00  0.00    +0.000 OA
ATOM     11  P   UNL     1       3.773   2.944  18.535  0.00  0.00    +0.000 P 
BRANCH  11  12
ATOM     12  O   UNL     1       2.649   3.071  19.744  0.00  0.00    +0.000 OA
ATOM     13  H   UNL     1       3.130   3.383  20.537  0.00  0.00    +0.000 HD
ENDBRANCH  11  12
BRANCH  11  14
ATOM     14  O   UNL     1       5.093   2.743  19.510  0.00  0.00    +0.000 OA
ATOM     15  H   UNL     1       4.896   1.998  20.113  0.00  0.00    +0.000 HD
ENDBRANCH  11  14
ENDBRANCH   7  11
ENDBRANCH   1   7
BRANCH   5  16
ATOM     16  C   UNL     1       7.758   7.977  17.807  0.00  0.00    +0.000 C 
ATOM     17  C   UNL     1       8.370   8.942  18.171  0.00  0.00    +0.000 C 
BRANCH  17  18
ATOM     18  C   UNL     1       9.098  10.077  18.652  0.00  0.00    +0.000 A 
ATOM     19  C   UNL     1       9.224  10.293  20.028  0.00  0.00    +0.000 A 
ATOM     20  C   UNL     1       9.892  11.425  20.501  0.00  0.00    +0.000 A 
ATOM     21  C   UNL     1      10.437  12.339  19.600  0.00  0.00    +0.000 A 
ATOM     22  C   UNL     1      10.325  12.118  18.227  0.00  0.00    +0.000 A 
ATOM     23  C   UNL     1       9.658  10.988  17.753  0.00  0.00    +0.000 A 
ENDBRANCH  17  18
ENDBRANCH   5  16
TORSDOF 6
ENDMDL
MODEL 5
REMARK VINA RESULT:      -7.6      5.041      6.728
REMARK  Name = 
REMARK  6 active torsions:
REMARK  status: ('A' for Active; 'I' for Inactive)
REMARK    1  A    between atoms: P_2  and  O_3
REMARK    2  A    between atoms: P_2  and  O_4
REMARK    3  A    between atoms: P_2  and  C_5
REMARK    4  A    between atoms: C_5  and  C_8
REMARK    5  A    between atoms: C_12  and  C_13
REMARK    6  A    between atoms: C_14  and  C_15
REMARK                            x       y       z     vdW  Elec       q    Type
REMARK                         _______ _______ _______ _____ _____    ______ ____
ROOT
ATOM      1  C   UNL     1       5.204   5.077  17.708  0.00  0.00    +0.000 A 
ATOM      2  C   UNL     1       5.528   4.469  16.485  0.00  0.00    +0.000 A 
ATOM      3  C   UNL     1       6.556   4.985  15.692  0.00  0.00    +0.000 A 
ATOM      4  C   UNL     1       7.264   6.115  16.106  0.00  0.00    +0.000 A 
ATOM      5  C   UNL     1       6.971   6.716  17.330  0.00  0.00    +0.000 A 
ATOM      6  C   UNL     1       5.958   6.187  18.133  0.00  0.00    +0.000 A 
ENDROOT
BRANCH   1   7
ATOM      7  C   UNL     1       3.966   4.657  18.483  0.00  0.00    +0.000 C 
ATOM      8  F   UNL     1       2.807   5.188  18.014  0.00  0.00    +0.000 F 
ATOM      9  F   UNL     1       4.035   4.939  19.815  0.00  0.00    +0.000 F 
BRANCH   7  11
ATOM     10  O   UNL     1       3.552   1.303  18.536  0.00  0.00    +0.000 OA
ATOM     11  P   UNL     1       3.742   2.840  18.512  0.00  0.00    +0.000 P 
BRANCH  11  12
ATOM     12  O   UNL     1       2.641   2.962  19.741  0.00  0.00    +0.000 OA
ATOM     13  H   UNL     1       3.061   2.563  20.530  0.00  0.00    +0.000 HD
ENDBRANCH  11  12
BRANCH  11  14
ATOM     14  O   UNL     1       5.083   2.661  19.462  0.00  0.00    +0.000 OA
ATOM     15  H   UNL     1       5.199   1.703  19.622  0.00  0.00    +0.000 HD
ENDBRANCH  11  14
ENDBRANCH   7  11
ENDBRANCH   1   7
BRANCH   5  16
ATOM     16  C   UNL     1       7.687   7.890  17.736  0.00  0.00    +0.000 C 
ATOM     17  C   UNL     1       8.257   8.884  18.091  0.00  0.00    +0.000 C 
BRANCH  17  18
ATOM     18  C   UNL     1       8.897  10.097  18.503  0.00  0.00    +0.000 A 
ATOM     19  C   UNL     1       8.990  11.172  17.614  0.00  0.00    +0.000 A 
ATOM     20  C   UNL     1       9.656  12.340  17.995  0.00  0.00    +0.000 A 
ATOM     21  C   UNL     1      10.225  12.435  19.264  0.00  0.00    +0.000 A 
ATOM     22  C   UNL     1      10.120  11.368  20.158  0.00  0.00    +0.000 A 
ATOM     23  C   UNL     1       9.456  10.201  19.779  0.00  0.00    +0.000 A 
ENDBRANCH  17  18
ENDBRANCH   5  16
TORSDOF 6
ENDMDL
MODEL 6
REMARK VINA RESULT:      -7.6      0.795      1.109
REMARK  Name = 
REMARK  6 active torsions:
REMARK  status: ('A' for Active; 'I' for Inactive)
REMARK    1  A    between atoms: P_2  and  O_3
REMARK    2  A    between atoms: P_2  and  O_4
REMARK    3  A    between atoms: P_2  and  C_5
REMARK    4  A    between atoms: C_5  and  C_8
REMARK    5  A    between atoms: C_12  and  C_13
REMARK    6  A    between atoms: C_14  and  C_15
REMARK                            x       y       z     vdW  Elec       q    Type
REMARK                         _______ _______ _______ _____ _____    ______ ____
ROOT
ATOM      1  C   UNL     1       4.052   5.010  18.199  0.00  0.00    +0.000 A 
ATOM      2  C   UNL     1       3.810   3.731  18.722  0.00  0.00    +0.000 A 
ATOM      3  C   UNL     1       2.925   3.562  19.789  0.00  0.00    +0.000 A 
ATOM      4  C   UNL     1       2.279   4.666  20.349  0.00  0.00    +0.000 A 
ATOM      5  C   UNL     1       2.489   5.940  19.825  0.00  0.00    +0.000 A 
ATOM      6  C   UNL     1       3.358   6.108  18.744  0.00  0.00    +0.000 A 
ENDROOT
BRANCH   1   7
ATOM      7  C   UNL     1       5.156   5.239  17.180  0.00  0.00    +0.000 C 
ATOM      8  F   UNL     1       4.834   6.123  16.198  0.00  0.00    +0.000 F 
ATOM      9  F   UNL     1       5.585   4.095  16.574  0.00  0.00    +0.000 F 
BRANCH   7  11
ATOM     10  O   UNL     1       8.015   6.351  18.597  0.00  0.00    +0.000 OA
ATOM     11  P   UNL     1       6.704   5.841  17.948  0.00  0.00    +0.000 P 
BRANCH  11  12
ATOM     12  O   UNL     1       7.355   6.166  16.461  0.00  0.00    +0.000 OA
ATOM     13  H   UNL     1       7.409   7.141  16.390  0.00  0.00    +0.000 HD
ENDBRANCH  11  12
BRANCH  11  14
ATOM     14  O   UNL     1       7.273   4.294  18.081  0.00  0.00    +0.000 OA
ATOM     15  H   UNL     1       8.007   4.310  18.728  0.00  0.00    +0.000 HD
ENDBRANCH  11  14
ENDBRANCH   7  11
ENDBRANCH   1   7
BRANCH   5  16
ATOM     16  C   UNL     1       1.841   7.072  20.421  0.00  0.00    +0.000 C 
ATOM     17  C   UNL     1       1.274   8.017  20.895  0.00  0.00    +0.000 C 
BRANCH  17  18
ATOM     18  C   UNL     1       0.588   9.160  21.416  0.00  0.00    +0.000 A 
ATOM     19  C   UNL     1       0.695  10.393  20.766  0.00  0.00    +0.000 A 
ATOM     20  C   UNL     1       0.067  11.522  21.297  0.00  0.00    +0.000 A 
ATOM     21  C   UNL     1      -0.672  11.418  22.476  0.00  0.00    +0.000 A 
ATOM     22  C   UNL     1      -0.792  10.185  23.118  0.00  0.00    +0.000 A 
ATOM     23  C   UNL     1      -0.165   9.057  22.589  0.00  0.00    +0.000 A 
ENDBRANCH  17  18
ENDBRANCH   5  16
TORSDOF 6
ENDMDL
MODEL 7
REMARK VINA RESULT:      -7.6      5.446      6.936
REMARK  Name = 
REMARK  6 active torsions:
REMARK  status: ('A' for Active; 'I' for Inactive)
REMARK    1  A    between atoms: P_2  and  O_3
REMARK    2  A    between atoms: P_2  and  O_4
REMARK    3  A    between atoms: P_2  and  C_5
REMARK    4  A    between atoms: C_5  and  C_8
REMARK    5  A    between atoms: C_12  and  C_13
REMARK    6  A    between atoms: C_14  and  C_15
REMARK                            x       y       z     vdW  Elec       q    Type
REMARK                         _______ _______ _______ _____ _____    ______ ____
ROOT
ATOM      1  C   UNL     1       6.207   6.137  17.171  0.00  0.00    +0.000 A 
ATOM      2  C   UNL     1       6.664   5.157  18.065  0.00  0.00    +0.000 A 
ATOM      3  C   UNL     1       7.690   5.450  18.967  0.00  0.00    +0.000 A 
ATOM      4  C   UNL     1       8.273   6.718  18.982  0.00  0.00    +0.000 A 
ATOM      5  C   UNL     1       7.813   7.710  18.118  0.00  0.00    +0.000 A 
ATOM      6  C   UNL     1       6.773   7.425  17.229  0.00  0.00    +0.000 A 
ENDROOT
BRANCH   1   7
ATOM      7  C   UNL     1       5.241   5.782  16.053  0.00  0.00    +0.000 C 
ATOM      8  F   UNL     1       4.725   6.855  15.399  0.00  0.00    +0.000 F 
ATOM      9  F   UNL     1       4.192   5.012  16.463  0.00  0.00    +0.000 F 
BRANCH   7  11
ATOM     10  O   UNL     1       6.647   3.792  13.712  0.00  0.00    +0.000 OA
ATOM     11  P   UNL     1       6.002   4.704  14.785  0.00  0.00    +0.000 P 
BRANCH  11  12
ATOM     12  O   UNL     1       6.030   3.427  15.837  0.00  0.00    +0.000 OA
ATOM     13  H   UNL     1       6.972   3.249  16.032  0.00  0.00    +0.000 HD
ENDBRANCH  11  12
BRANCH  11  14
ATOM     14  O   UNL     1       7.505   5.293  15.146  0.00  0.00    +0.000 OA
ATOM     15  H   UNL     1       8.098   4.523  15.256  0.00  0.00    +0.000 HD
ENDBRANCH  11  14
ENDBRANCH   7  11
ENDBRANCH   1   7
BRANCH   5  16
ATOM     16  C   UNL     1       8.433   9.003  18.122  0.00  0.00    +0.000 C 
ATOM     17  C   UNL     1       8.926  10.097  18.108  0.00  0.00    +0.000 C 
BRANCH  17  18
ATOM     18  C   UNL     1       9.499  11.407  18.045  0.00  0.00    +0.000 A 
ATOM     19  C   UNL     1      10.886  11.567  18.122  0.00  0.00    +0.000 A 
ATOM     20  C   UNL     1      11.445  12.847  18.109  0.00  0.00    +0.000 A 
ATOM     21  C   UNL     1      10.620  13.967  18.015  0.00  0.00    +0.000 A 
ATOM     22  C   UNL     1       9.236  13.809  17.923  0.00  0.00    +0.000 A 
ATOM     23  C   UNL     1       8.676  12.531  17.936  0.00  0.00    +0.000 A 
ENDBRANCH  17  18
ENDBRANCH   5  16
TORSDOF 6
ENDMDL
MODEL 8
REMARK VINA RESULT:      -7.6      5.469      6.888
REMARK  Name = 
REMARK  6 active torsions:
REMARK  status: ('A' for Active; 'I' for Inactive)
REMARK    1  A    between atoms: P_2  and  O_3
REMARK    2  A    between atoms: P_2  and  O_4
REMARK    3  A    between atoms: P_2  and  C_5
REMARK    4  A    between atoms: C_5  and  C_8
REMARK    5  A    between atoms: C_12  and  C_13
REMARK    6  A    between atoms: C_14  and  C_15
REMARK                            x       y       z     vdW  Elec       q    Type
REMARK                         _______ _______ _______ _____ _____    ______ ____
ROOT
ATOM      1  C   UNL     1       6.198   6.093  17.099  0.00  0.00    +0.000 A 
ATOM      2  C   UNL     1       6.665   5.081  17.951  0.00  0.00    +0.000 A 
ATOM      3  C   UNL     1       7.685   5.346  18.868  0.00  0.00    +0.000 A 
ATOM      4  C   UNL     1       8.252   6.620  18.940  0.00  0.00    +0.000 A 
ATOM      5  C   UNL     1       7.782   7.643  18.118  0.00  0.00    +0.000 A 
ATOM      6  C   UNL     1       6.748   7.384  17.215  0.00  0.00    +0.000 A 
ENDROOT
BRANCH   1   7
ATOM      7  C   UNL     1       5.238   5.775  15.965  0.00  0.00    +0.000 C 
ATOM      8  F   UNL     1       4.766   6.868  15.310  0.00  0.00    +0.000 F 
ATOM      9  F   UNL     1       4.160   5.035  16.353  0.00  0.00    +0.000 F 
BRANCH   7  11
ATOM     10  O   UNL     1       6.619   3.758  13.631  0.00  0.00    +0.000 OA
ATOM     11  P   UNL     1       5.986   4.683  14.701  0.00  0.00    +0.000 P 
BRANCH  11  12
ATOM     12  O   UNL     1       6.041   3.423  15.772  0.00  0.00    +0.000 OA
ATOM     13  H   UNL     1       6.188   3.817  16.655  0.00  0.00    +0.000 HD
ENDBRANCH  11  12
BRANCH  11  14
ATOM     14  O   UNL     1       7.490   5.287  15.027  0.00  0.00    +0.000 OA
ATOM     15  H   UNL     1       8.002   4.573  15.457  0.00  0.00    +0.000 HD
ENDBRANCH  11  14
ENDBRANCH   7  11
ENDBRANCH   1   7
BRANCH   5  16
ATOM     16  C   UNL     1       8.386   8.942  18.181  0.00  0.00    +0.000 C 
ATOM     17  C   UNL     1       8.917  10.016  18.251  0.00  0.00    +0.000 C 
BRANCH  17  18
ATOM     18  C   UNL     1       9.563  11.286  18.382  0.00  0.00    +0.000 A 
ATOM     19  C   UNL     1       9.019  12.412  17.756  0.00  0.00    +0.000 A 
ATOM     20  C   UNL     1       9.672  13.644  17.841  0.00  0.00    +0.000 A 
ATOM     21  C   UNL     1      10.866  13.753  18.554  0.00  0.00    +0.000 A 
ATOM     22  C   UNL     1      11.402  12.633  19.192  0.00  0.00    +0.000 A 
ATOM     23  C   UNL     1      10.751  11.402  19.108  0.00  0.00    +0.000 A 
ENDBRANCH  17  18
ENDBRANCH   5  16
TORSDOF 6
ENDMDL
MODEL 9
REMARK VINA RESULT:      -7.6      0.750      1.511
REMARK  Name = 
REMARK  6 active torsions:
REMARK  status: ('A' for Active; 'I' for Inactive)
REMARK    1  A    between atoms: P_2  and  O_3
REMARK    2  A    between atoms: P_2  and  O_4
REMARK    3  A    between atoms: P_2  and  C_5
REMARK    4  A    between atoms: C_5  and  C_8
REMARK    5  A    between atoms: C_12  and  C_13
REMARK    6  A    between atoms: C_14  and  C_15
REMARK                            x       y       z     vdW  Elec       q    Type
REMARK                         _______ _______ _______ _____ _____    ______ ____
ROOT
ATOM      1  C   UNL     1       4.113   5.095  18.049  0.00  0.00    +0.000 A 
ATOM      2  C   UNL     1       3.794   3.821  18.540  0.00  0.00    +0.000 A 
ATOM      3  C   UNL     1       2.847   3.674  19.556  0.00  0.00    +0.000 A 
ATOM      4  C   UNL     1       2.215   4.796  20.096  0.00  0.00    +0.000 A 
ATOM      5  C   UNL     1       2.502   6.067  19.602  0.00  0.00    +0.000 A 
ATOM      6  C   UNL     1       3.434   6.213  18.571  0.00  0.00    +0.000 A 
ENDROOT
BRANCH   1   7
ATOM      7  C   UNL     1       5.278   5.293  17.093  0.00  0.00    +0.000 C 
ATOM      8  F   UNL     1       5.018   6.142  16.064  0.00  0.00    +0.000 F 
ATOM      9  F   UNL     1       5.744   4.130  16.554  0.00  0.00    +0.000 F 
BRANCH   7  11
ATOM     10  O   UNL     1       8.043   6.457  18.647  0.00  0.00    +0.000 OA
ATOM     11  P   UNL     1       6.775   5.923  17.935  0.00  0.00    +0.000 P 
BRANCH  11  12
ATOM     12  O   UNL     1       7.490   6.264  16.482  0.00  0.00    +0.000 OA
ATOM     13  H   UNL     1       6.978   5.782  15.802  0.00  0.00    +0.000 HD
ENDBRANCH  11  12
BRANCH  11  14
ATOM     14  O   UNL     1       7.368   4.388  18.094  0.00  0.00    +0.000 OA
ATOM     15  H   UNL     1       7.706   4.116  17.217  0.00  0.00    +0.000 HD
ENDBRANCH  11  14
ENDBRANCH   7  11
ENDBRANCH   1   7
BRANCH   5  16
ATOM     16  C   UNL     1       1.867   7.216  20.178  0.00  0.00    +0.000 C 
ATOM     17  C   UNL     1       1.339   8.164  20.691  0.00  0.00    +0.000 C 
BRANCH  17  18
ATOM     18  C   UNL     1       0.686   9.264  21.334  0.00  0.00    +0.000 A 
ATOM     19  C   UNL     1      -0.029   9.055  22.517  0.00  0.00    +0.000 A 
ATOM     20  C   UNL     1      -0.708  10.115  23.121  0.00  0.00    +0.000 A 
ATOM     21  C   UNL     1      -0.668  11.386  22.547  0.00  0.00    +0.000 A 
ATOM     22  C   UNL     1       0.057  11.599  21.374  0.00  0.00    +0.000 A 
ATOM     23  C   UNL     1       0.736  10.540  20.769  0.00  0.00    +0.000 A 
ENDBRANCH  17  18
ENDBRANCH   5  16
TORSDOF 6
ENDMDL
