MODEL 1
REMARK VINA RESULT:      -8.2      0.000      0.000
REMARK  Name = 
REMARK  8 active torsions:
REMARK  status: ('A' for Active; 'I' for Inactive)
REMARK    1  A    between atoms: C_1  and  O_2
REMARK    2  A    between atoms: O_2  and  C_3
REMARK    3  A    between atoms: C_6  and  N_7
REMARK    4  A    between atoms: C_8  and  C_10
REMARK    5  A    between atoms: C_11  and  C_12
REMARK    6  A    between atoms: N_19  and  C_20
REMARK    7  A    between atoms: C_20  and  C_21
REMARK    8  A    between atoms: C_20  and  C_22
REMARK                            x       y       z     vdW  Elec       q    Type
REMARK                         _______ _______ _______ _____ _____    ______ ____
ROOT
ATOM      1  C   UNL     1       2.796   4.423  19.826  0.00  0.00    +0.000 C 
ATOM      2  C   UNL     1       2.963   3.431  20.716  0.00  0.00    +0.000 C 
ATOM      3  C   UNL     1       2.286   3.088  21.995  0.00  0.00    +0.000 C 
ATOM      4  C   UNL     1       4.110   2.638  20.259  0.00  0.00    +0.000 C 
ATOM      5  O   UNL     1       4.549   1.649  20.811  0.00  0.00    +0.000 OA
ATOM      6  O   UNL     1       4.611   3.204  19.128  0.00  0.00    +0.000 OA
ATOM      7  C   UNL     1       3.819   4.347  18.745  0.00  0.00    +0.000 C 
ATOM      8  C   UNL     1       4.738   5.568  18.717  0.00  0.00    +0.000 C 
ATOM      9  C   UNL     1       5.779   5.458  17.601  0.00  0.00    +0.000 C 
ATOM     10  N   UNL     1       5.149   5.230  16.284  0.00  0.00    +0.000 NA
ATOM     11  C   UNL     1       4.374   3.973  16.319  0.00  0.00    +0.000 C 
ATOM     12  C   UNL     1       3.260   4.043  17.357  0.00  0.00    +0.000 C 
ENDROOT
BRANCH   1  14
ATOM     13  N   UNL     1       2.389   6.822  19.933  0.00  0.00    +0.000 N 
ATOM     14  C   UNL     1       1.885   5.553  20.083  0.00  0.00    +0.000 C 
ATOM     15  O   UNL     1       0.735   5.300  20.430  0.00  0.00    +0.000 OA
ATOM     16  H   UNL     1       3.306   6.954  19.542  0.00  0.00    +0.000 HD
BRANCH  13  20
ATOM     17  C   UNL     1       0.262  10.367  20.889  0.00  0.00    +0.000 A 
ATOM     18  C   UNL     1       0.685  10.128  19.577  0.00  0.00    +0.000 A 
ATOM     19  C   UNL     1       1.389   8.971  19.246  0.00  0.00    +0.000 A 
ATOM     20  C   UNL     1       1.692   8.019  20.214  0.00  0.00    +0.000 A 
ATOM     21  C   UNL     1       1.253   8.237  21.524  0.00  0.00    +0.000 A 
ATOM     22  C   UNL     1       0.539   9.398  21.864  0.00  0.00    +0.000 A 
ATOM     23 CL   UNL     1      -0.008   9.464  23.502  0.00  0.00    +0.000 Cl
BRANCH  17  25
ATOM     24  C   UNL     1      -1.375  11.833  19.962  0.00  0.00    +0.000 C 
ATOM     25  O   UNL     1      -0.465  11.521  21.007  0.00  0.00    +0.000 OA
ENDBRANCH  17  25
ENDBRANCH  13  20
ENDBRANCH   1  14
BRANCH  10  26
ATOM     26  C   UNL     1       6.162   5.199  15.191  0.00  0.00    +0.000 C 
ATOM     27  C   UNL     1       7.567   4.848  15.713  0.00  0.00    +0.000 C 
ATOM     28  C   UNL     1       5.825   4.167  14.100  0.00  0.00    +0.000 C 
ENDBRANCH  10  26
TORSDOF 4
ENDMDL
MODEL 2
REMARK VINA RESULT:      -8.2      1.162      1.511
REMARK  Name = 
REMARK  8 active torsions:
REMARK  status: ('A' for Active; 'I' for Inactive)
REMARK    1  A    between atoms: C_1  and  O_2
REMARK    2  A    between atoms: O_2  and  C_3
REMARK    3  A    between atoms: C_6  and  N_7
REMARK    4  A    between atoms: C_8  and  C_10
REMARK    5  A    between atoms: C_11  and  C_12
REMARK    6  A    between atoms: N_19  and  C_20
REMARK    7  A    between atoms: C_20  and  C_21
REMARK    8  A    between atoms: C_20  and  C_22
REMARK                            x       y       z     vdW  Elec       q    Type
REMARK                         _______ _______ _______ _____ _____    ______ ____
ROOT
ATOM      1  C   UNL     1       2.870   4.240  19.776  0.00  0.00    +0.000 C 
ATOM      2  C   UNL     1       3.099   3.245  20.648  0.00  0.00    +0.000 C 
ATOM      3  C   UNL     1       2.458   2.849  21.930  0.00  0.00    +0.000 C 
ATOM      4  C   UNL     1       4.279   2.519  20.164  0.00  0.00    +0.000 C 
ATOM      5  O   UNL     1       4.775   1.546  20.695  0.00  0.00    +0.000 OA
ATOM      6  O   UNL     1       4.735   3.127  19.036  0.00  0.00    +0.000 OA
ATOM      7  C   UNL     1       3.880   4.233  18.681  0.00  0.00    +0.000 C 
ATOM      8  C   UNL     1       4.735   5.499  18.660  0.00  0.00    +0.000 C 
ATOM      9  C   UNL     1       5.765   5.460  17.529  0.00  0.00    +0.000 C 
ATOM     10  N   UNL     1       5.129   5.220  16.217  0.00  0.00    +0.000 NA
ATOM     11  C   UNL     1       4.420   3.925  16.242  0.00  0.00    +0.000 C 
ATOM     12  C   UNL     1       3.319   3.922  17.295  0.00  0.00    +0.000 C 
ENDROOT
BRANCH   1  14
ATOM     13  N   UNL     1       2.387   6.604  20.113  0.00  0.00    +0.000 N 
ATOM     14  C   UNL     1       1.905   5.318  20.063  0.00  0.00    +0.000 C 
ATOM     15  O   UNL     1       0.734   5.008  20.254  0.00  0.00    +0.000 OA
ATOM     16  H   UNL     1       3.336   6.795  19.840  0.00  0.00    +0.000 HD
BRANCH  13  20
ATOM     17  C   UNL     1       0.168  10.100  21.039  0.00  0.00    +0.000 A 
ATOM     18  C   UNL     1       0.299   9.075  21.982  0.00  0.00    +0.000 A 
ATOM     19  C   UNL     1       1.021   7.917  21.693  0.00  0.00    +0.000 A 
ATOM     20  C   UNL     1       1.632   7.748  20.455  0.00  0.00    +0.000 A 
ATOM     21  C   UNL     1       1.527   8.778  19.514  0.00  0.00    +0.000 A 
ATOM     22  C   UNL     1       0.805   9.949  19.799  0.00  0.00    +0.000 A 
ATOM     23 CL   UNL     1       0.856  11.155  18.564  0.00  0.00    +0.000 Cl
BRANCH  17  25
ATOM     24  C   UNL     1      -1.017  11.098  22.853  0.00  0.00    +0.000 C 
ATOM     25  O   UNL     1      -0.521  11.179  21.525  0.00  0.00    +0.000 OA
ENDBRANCH  17  25
ENDBRANCH  13  20
ENDBRANCH   1  14
BRANCH  10  26
ATOM     26  C   UNL     1       6.128   5.258  15.111  0.00  0.00    +0.000 C 
ATOM     27  C   UNL     1       7.559   4.994  15.613  0.00  0.00    +0.000 C 
ATOM     28  C   UNL     1       5.842   4.210  14.020  0.00  0.00    +0.000 C 
ENDBRANCH  10  26
TORSDOF 4
ENDMDL
MODEL 3
REMARK VINA RESULT:      -7.9      0.917      1.138
REMARK  Name = 
REMARK  8 active torsions:
REMARK  status: ('A' for Active; 'I' for Inactive)
REMARK    1  A    between atoms: C_1  and  O_2
REMARK    2  A    between atoms: O_2  and  C_3
REMARK    3  A    between atoms: C_6  and  N_7
REMARK    4  A    between atoms: C_8  and  C_10
REMARK    5  A    between atoms: C_11  and  C_12
REMARK    6  A    between atoms: N_19  and  C_20
REMARK    7  A    between atoms: C_20  and  C_21
REMARK    8  A    between atoms: C_20  and  C_22
REMARK                            x       y       z     vdW  Elec       q    Type
REMARK                         _______ _______ _______ _____ _____    ______ ____
ROOT
ATOM      1  C   UNL     1       3.185   4.579  19.004  0.00  0.00    +0.000 C 
ATOM      2  C   UNL     1       3.270   3.790  20.087  0.00  0.00    +0.000 C 
ATOM      3  C   UNL     1       2.522   3.742  21.372  0.00  0.00    +0.000 C 
ATOM      4  C   UNL     1       4.404   2.885  19.865  0.00  0.00    +0.000 C 
ATOM      5  O   UNL     1       4.776   2.020  20.632  0.00  0.00    +0.000 OA
ATOM      6  O   UNL     1       4.978   3.187  18.670  0.00  0.00    +0.000 OA
ATOM      7  C   UNL     1       4.252   4.249  18.018  0.00  0.00    +0.000 C 
ATOM      8  C   UNL     1       5.220   5.408  17.787  0.00  0.00    +0.000 C 
ATOM      9  C   UNL     1       6.305   5.037  16.774  0.00  0.00    +0.000 C 
ATOM     10  N   UNL     1       5.727   4.560  15.501  0.00  0.00    +0.000 NA
ATOM     11  C   UNL     1       4.901   3.362  15.754  0.00  0.00    +0.000 C 
ATOM     12  C   UNL     1       3.745   3.680  16.694  0.00  0.00    +0.000 C 
ENDROOT
BRANCH   1  14
ATOM     13  N   UNL     1       2.600   6.792  19.839  0.00  0.00    +0.000 N 
ATOM     14  C   UNL     1       2.309   5.765  18.973  0.00  0.00    +0.000 C 
ATOM     15  O   UNL     1       1.364   5.765  18.191  0.00  0.00    +0.000 OA
ATOM     16  H   UNL     1       3.452   6.770  20.375  0.00  0.00    +0.000 HD
BRANCH  13  20
ATOM     17  C   UNL     1       0.236  10.261  20.456  0.00  0.00    +0.000 A 
ATOM     18  C   UNL     1       0.845  10.030  19.217  0.00  0.00    +0.000 A 
ATOM     19  C   UNL     1       1.629   8.898  18.999  0.00  0.00    +0.000 A 
ATOM     20  C   UNL     1       1.829   7.963  20.009  0.00  0.00    +0.000 A 
ATOM     21  C   UNL     1       1.206   8.173  21.244  0.00  0.00    +0.000 A 
ATOM     22  C   UNL     1       0.411   9.309  21.470  0.00  0.00    +0.000 A 
ATOM     23 CL   UNL     1      -0.359   9.364  23.015  0.00  0.00    +0.000 Cl
BRANCH  17  25
ATOM     24  C   UNL     1      -0.976  11.890  19.204  0.00  0.00    +0.000 C 
ATOM     25  O   UNL     1      -0.541  11.388  20.459  0.00  0.00    +0.000 OA
ENDBRANCH  17  25
ENDBRANCH  13  20
ENDBRANCH   1  14
BRANCH  10  26
ATOM     26  C   UNL     1       6.787   4.271  14.494  0.00  0.00    +0.000 C 
ATOM     27  C   UNL     1       6.208   3.680  13.195  0.00  0.00    +0.000 C 
ATOM     28  C   UNL     1       7.580   5.528  14.092  0.00  0.00    +0.000 C 
ENDBRANCH  10  26
TORSDOF 4
ENDMDL
MODEL 4
REMARK VINA RESULT:      -7.5      4.658      7.053
REMARK  Name = 
REMARK  8 active torsions:
REMARK  status: ('A' for Active; 'I' for Inactive)
REMARK    1  A    between atoms: C_1  and  O_2
REMARK    2  A    between atoms: O_2  and  C_3
REMARK    3  A    between atoms: C_6  and  N_7
REMARK    4  A    between atoms: C_8  and  C_10
REMARK    5  A    between atoms: C_11  and  C_12
REMARK    6  A    between atoms: N_19  and  C_20
REMARK    7  A    between atoms: C_20  and  C_21
REMARK    8  A    between atoms: C_20  and  C_22
REMARK                            x       y       z     vdW  Elec       q    Type
REMARK                         _______ _______ _______ _____ _____    ______ ____
ROOT
ATOM      1  C   UNL     1       6.354   5.560  17.062  0.00  0.00    +0.000 C 
ATOM      2  C   UNL     1       6.634   5.230  15.791  0.00  0.00    +0.000 C 
ATOM      3  C   UNL     1       7.746   5.584  14.869  0.00  0.00    +0.000 C 
ATOM      4  C   UNL     1       5.513   4.416  15.307  0.00  0.00    +0.000 C 
ATOM      5  O   UNL     1       5.423   3.926  14.199  0.00  0.00    +0.000 OA
ATOM      6  O   UNL     1       4.586   4.314  16.298  0.00  0.00    +0.000 OA
ATOM      7  C   UNL     1       5.043   4.994  17.484  0.00  0.00    +0.000 C 
ATOM      8  C   UNL     1       4.019   6.074  17.831  0.00  0.00    +0.000 C 
ATOM      9  C   UNL     1       2.682   5.461  18.256  0.00  0.00    +0.000 C 
ATOM     10  N   UNL     1       2.847   4.502  19.368  0.00  0.00    +0.000 NA
ATOM     11  C   UNL     1       3.745   3.408  18.945  0.00  0.00    +0.000 C 
ATOM     12  C   UNL     1       5.127   3.938  18.585  0.00  0.00    +0.000 C 
ENDROOT
BRANCH   1  14
ATOM     13  N   UNL     1       7.092   7.864  17.344  0.00  0.00    +0.000 N 
ATOM     14  C   UNL     1       7.143   6.568  17.795  0.00  0.00    +0.000 C 
ATOM     15  O   UNL     1       7.811   6.193  18.754  0.00  0.00    +0.000 OA
ATOM     16  H   UNL     1       6.441   8.119  16.620  0.00  0.00    +0.000 HD
BRANCH  13  20
ATOM     17  C   UNL     1       9.301  11.176  18.815  0.00  0.00    +0.000 A 
ATOM     18  C   UNL     1       9.566   9.884  19.283  0.00  0.00    +0.000 A 
ATOM     19  C   UNL     1       8.847   8.785  18.813  0.00  0.00    +0.000 A 
ATOM     20  C   UNL     1       7.842   8.943  17.865  0.00  0.00    +0.000 A 
ATOM     21  C   UNL     1       7.585  10.227  17.373  0.00  0.00    +0.000 A 
ATOM     22  C   UNL     1       8.309  11.338  17.838  0.00  0.00    +0.000 A 
ATOM     23 CL   UNL     1       7.929  12.833  17.058  0.00  0.00    +0.000 Cl
BRANCH  17  25
ATOM     24  C   UNL     1      10.203  12.225  20.758  0.00  0.00    +0.000 C 
ATOM     25  O   UNL     1      10.148  12.112  19.343  0.00  0.00    +0.000 OA
ENDBRANCH  17  25
ENDBRANCH  13  20
ENDBRANCH   1  14
BRANCH  10  26
ATOM     26  C   UNL     1       1.535   3.966  19.827  0.00  0.00    +0.000 C 
ATOM     27  C   UNL     1       0.989   2.880  18.881  0.00  0.00    +0.000 C 
ATOM     28  C   UNL     1       1.610   3.334  21.228  0.00  0.00    +0.000 C 
ENDBRANCH  10  26
TORSDOF 4
ENDMDL
MODEL 5
REMARK VINA RESULT:      -7.4      1.382      1.761
REMARK  Name = 
REMARK  8 active torsions:
REMARK  status: ('A' for Active; 'I' for Inactive)
REMARK    1  A    between atoms: C_1  and  O_2
REMARK    2  A    between atoms: O_2  and  C_3
REMARK    3  A    between atoms: C_6  and  N_7
REMARK    4  A    between atoms: C_8  and  C_10
REMARK    5  A    between atoms: C_11  and  C_12
REMARK    6  A    between atoms: N_19  and  C_20
REMARK    7  A    between atoms: C_20  and  C_21
REMARK    8  A    between atoms: C_20  and  C_22
REMARK                            x       y       z     vdW  Elec       q    Type
REMARK                         _______ _______ _______ _____ _____    ______ ____
ROOT
ATOM      1  C   UNL     1       3.152   4.515  19.123  0.00  0.00    +0.000 C 
ATOM      2  C   UNL     1       3.235   3.703  20.190  0.00  0.00    +0.000 C 
ATOM      3  C   UNL     1       2.484   3.628  21.472  0.00  0.00    +0.000 C 
ATOM      4  C   UNL     1       4.370   2.804  19.952  0.00  0.00    +0.000 C 
ATOM      5  O   UNL     1       4.742   1.924  20.702  0.00  0.00    +0.000 OA
ATOM      6  O   UNL     1       4.947   3.131  18.765  0.00  0.00    +0.000 OA
ATOM      7  C   UNL     1       4.221   4.205  18.133  0.00  0.00    +0.000 C 
ATOM      8  C   UNL     1       5.188   5.370  17.928  0.00  0.00    +0.000 C 
ATOM      9  C   UNL     1       6.277   5.021  16.910  0.00  0.00    +0.000 C 
ATOM     10  N   UNL     1       5.702   4.569  15.626  0.00  0.00    +0.000 NA
ATOM     11  C   UNL     1       4.876   3.365  15.853  0.00  0.00    +0.000 C 
ATOM     12  C   UNL     1       3.717   3.663  16.797  0.00  0.00    +0.000 C 
ENDROOT
BRANCH   1  14
ATOM     13  N   UNL     1       2.501   6.664  20.067  0.00  0.00    +0.000 N 
ATOM     14  C   UNL     1       2.275   5.700  19.115  0.00  0.00    +0.000 C 
ATOM     15  O   UNL     1       1.385   5.755  18.271  0.00  0.00    +0.000 OA
ATOM     16  H   UNL     1       3.314   6.604  20.658  0.00  0.00    +0.000 HD
BRANCH  13  20
ATOM     17  C   UNL     1       0.212  10.200  20.577  0.00  0.00    +0.000 A 
ATOM     18  C   UNL     1       0.096   9.145  21.488  0.00  0.00    +0.000 A 
ATOM     19  C   UNL     1       0.838   7.974  21.333  0.00  0.00    +0.000 A 
ATOM     20  C   UNL     1       1.715   7.821  20.265  0.00  0.00    +0.000 A 
ATOM     21  C   UNL     1       1.856   8.880  19.362  0.00  0.00    +0.000 A 
ATOM     22  C   UNL     1       1.117  10.064  19.514  0.00  0.00    +0.000 A 
ATOM     23 CL   UNL     1       1.481  11.304  18.367  0.00  0.00    +0.000 Cl
BRANCH  17  25
ATOM     24  C   UNL     1      -1.586  11.674  20.045  0.00  0.00    +0.000 C 
ATOM     25  O   UNL     1      -0.544  11.285  20.928  0.00  0.00    +0.000 OA
ENDBRANCH  17  25
ENDBRANCH  13  20
ENDBRANCH   1  14
BRANCH  10  26
ATOM     26  C   UNL     1       6.764   4.301  14.616  0.00  0.00    +0.000 C 
ATOM     27  C   UNL     1       6.192   3.709  13.315  0.00  0.00    +0.000 C 
ATOM     28  C   UNL     1       7.538   5.572  14.219  0.00  0.00    +0.000 C 
ENDBRANCH  10  26
TORSDOF 4
ENDMDL
MODEL 6
REMARK VINA RESULT:      -7.2      3.512      8.827
REMARK  Name = 
REMARK  8 active torsions:
REMARK  status: ('A' for Active; 'I' for Inactive)
REMARK    1  A    between atoms: C_1  and  O_2
REMARK    2  A    between atoms: O_2  and  C_3
REMARK    3  A    between atoms: C_6  and  N_7
REMARK    4  A    between atoms: C_8  and  C_10
REMARK    5  A    between atoms: C_11  and  C_12
REMARK    6  A    between atoms: N_19  and  C_20
REMARK    7  A    between atoms: C_20  and  C_21
REMARK    8  A    between atoms: C_20  and  C_22
REMARK                            x       y       z     vdW  Elec       q    Type
REMARK                         _______ _______ _______ _____ _____    ______ ____
ROOT
ATOM      1  C   UNL     1       0.180  11.426  21.159  0.00  0.00    +0.000 C 
ATOM      2  C   UNL     1      -0.520  11.495  22.303  0.00  0.00    +0.000 C 
ATOM      3  C   UNL     1      -1.161  10.468  23.166  0.00  0.00    +0.000 C 
ATOM      4  C   UNL     1      -0.672  12.919  22.623  0.00  0.00    +0.000 C 
ATOM      5  O   UNL     1      -1.243  13.366  23.597  0.00  0.00    +0.000 OA
ATOM      6  O   UNL     1      -0.085  13.654  21.640  0.00  0.00    +0.000 OA
ATOM      7  C   UNL     1       0.521  12.788  20.659  0.00  0.00    +0.000 C 
ATOM      8  C   UNL     1      -0.116  13.094  19.304  0.00  0.00    +0.000 C 
ATOM      9  C   UNL     1       0.248  14.500  18.821  0.00  0.00    +0.000 C 
ATOM     10  N   UNL     1       1.711  14.705  18.785  0.00  0.00    +0.000 NA
ATOM     11  C   UNL     1       2.268  14.523  20.141  0.00  0.00    +0.000 C 
ATOM     12  C   UNL     1       2.013  13.111  20.655  0.00  0.00    +0.000 C 
ENDROOT
BRANCH   1  14
ATOM     13  N   UNL     1       1.421   9.384  20.686  0.00  0.00    +0.000 N 
ATOM     14  C   UNL     1       0.324  10.163  20.411  0.00  0.00    +0.000 C 
ATOM     15  O   UNL     1      -0.532   9.886  19.576  0.00  0.00    +0.000 OA
ATOM     16  H   UNL     1       2.023   9.620  21.457  0.00  0.00    +0.000 HD
BRANCH  13  20
ATOM     17  C   UNL     1       2.458   5.737  18.780  0.00  0.00    +0.000 A 
ATOM     18  C   UNL     1       2.593   6.954  18.102  0.00  0.00    +0.000 A 
ATOM     19  C   UNL     1       2.252   8.161  18.712  0.00  0.00    +0.000 A 
ATOM     20  C   UNL     1       1.767   8.190  20.015  0.00  0.00    +0.000 A 
ATOM     21  C   UNL     1       1.651   6.982  20.710  0.00  0.00    +0.000 A 
ATOM     22  C   UNL     1       1.997   5.762  20.104  0.00  0.00    +0.000 A 
ATOM     23 CL   UNL     1       1.882   4.379  21.133  0.00  0.00    +0.000 Cl
BRANCH  17  25
ATOM     24  C   UNL     1       4.041   4.868  17.222  0.00  0.00    +0.000 C 
ATOM     25  O   UNL     1       2.899   4.672  18.044  0.00  0.00    +0.000 OA
ENDBRANCH  17  25
ENDBRANCH  13  20
ENDBRANCH   1  14
BRANCH  10  26
ATOM     26  C   UNL     1       2.061  16.048  18.242  0.00  0.00    +0.000 C 
ATOM     27  C   UNL     1       1.117  17.148  18.762  0.00  0.00    +0.000 C 
ATOM     28  C   UNL     1       3.491  16.482  18.613  0.00  0.00    +0.000 C 
ENDBRANCH  10  26
TORSDOF 4
ENDMDL
MODEL 7
REMARK VINA RESULT:      -7.1      3.224      9.718
REMARK  Name = 
REMARK  8 active torsions:
REMARK  status: ('A' for Active; 'I' for Inactive)
REMARK    1  A    between atoms: C_1  and  O_2
REMARK    2  A    between atoms: O_2  and  C_3
REMARK    3  A    between atoms: C_6  and  N_7
REMARK    4  A    between atoms: C_8  and  C_10
REMARK    5  A    between atoms: C_11  and  C_12
REMARK    6  A    between atoms: N_19  and  C_20
REMARK    7  A    between atoms: C_20  and  C_21
REMARK    8  A    between atoms: C_20  and  C_22
REMARK                            x       y       z     vdW  Elec       q    Type
REMARK                         _______ _______ _______ _____ _____    ______ ____
ROOT
ATOM      1  C   UNL     1       0.280  11.969  19.437  0.00  0.00    +0.000 C 
ATOM      2  C   UNL     1       1.115  12.944  19.043  0.00  0.00    +0.000 C 
ATOM      3  C   UNL     1       2.246  12.986  18.079  0.00  0.00    +0.000 C 
ATOM      4  C   UNL     1       0.791  14.131  19.844  0.00  0.00    +0.000 C 
ATOM      5  O   UNL     1       1.336  15.212  19.755  0.00  0.00    +0.000 OA
ATOM      6  O   UNL     1      -0.207  13.814  20.712  0.00  0.00    +0.000 OA
ATOM      7  C   UNL     1      -0.630  12.449  20.514  0.00  0.00    +0.000 C 
ATOM      8  C   UNL     1      -0.431  11.699  21.831  0.00  0.00    +0.000 C 
ATOM      9  C   UNL     1      -1.376  12.218  22.918  0.00  0.00    +0.000 C 
ATOM     10  N   UNL     1      -2.788  12.174  22.484  0.00  0.00    +0.000 NA
ATOM     11  C   UNL     1      -2.960  13.014  21.281  0.00  0.00    +0.000 C 
ATOM     12  C   UNL     1      -2.107  12.504  20.127  0.00  0.00    +0.000 C 
ENDROOT
BRANCH   1  14
ATOM     13  N   UNL     1       1.582   9.911  19.478  0.00  0.00    +0.000 N 
ATOM     14  C   UNL     1       0.468  10.568  19.017  0.00  0.00    +0.000 C 
ATOM     15  O   UNL     1      -0.370  10.072  18.269  0.00  0.00    +0.000 OA
ATOM     16  H   UNL     1       2.168  10.344  20.173  0.00  0.00    +0.000 HD
BRANCH  13  20
ATOM     17  C   UNL     1       2.734   5.943  18.514  0.00  0.00    +0.000 A 
ATOM     18  C   UNL     1       2.925   6.979  17.592  0.00  0.00    +0.000 A 
ATOM     19  C   UNL     1       2.548   8.288  17.891  0.00  0.00    +0.000 A 
ATOM     20  C   UNL     1       1.969   8.601  19.117  0.00  0.00    +0.000 A 
ATOM     21  C   UNL     1       1.796   7.577  20.054  0.00  0.00    +0.000 A 
ATOM     22  C   UNL     1       2.178   6.257  19.762  0.00  0.00    +0.000 A 
ATOM     23 CL   UNL     1       1.981   5.137  21.062  0.00  0.00    +0.000 Cl
BRANCH  17  25
ATOM     24  C   UNL     1       2.281   3.773  17.632  0.00  0.00    +0.000 C 
ATOM     25  O   UNL     1       3.221   4.744  18.067  0.00  0.00    +0.000 OA
ENDBRANCH  17  25
ENDBRANCH  13  20
ENDBRANCH   1  14
BRANCH  10  26
ATOM     26  C   UNL     1      -3.708  12.609  23.572  0.00  0.00    +0.000 C 
ATOM     27  C   UNL     1      -3.201  13.873  24.290  0.00  0.00    +0.000 C 
ATOM     28  C   UNL     1      -5.123  12.931  23.058  0.00  0.00    +0.000 C 
ENDBRANCH  10  26
TORSDOF 4
ENDMDL
MODEL 8
REMARK VINA RESULT:      -7.1      3.865      8.593
REMARK  Name = 
REMARK  8 active torsions:
REMARK  status: ('A' for Active; 'I' for Inactive)
REMARK    1  A    between atoms: C_1  and  O_2
REMARK    2  A    between atoms: O_2  and  C_3
REMARK    3  A    between atoms: C_6  and  N_7
REMARK    4  A    between atoms: C_8  and  C_10
REMARK    5  A    between atoms: C_11  and  C_12
REMARK    6  A    between atoms: N_19  and  C_20
REMARK    7  A    between atoms: C_20  and  C_21
REMARK    8  A    between atoms: C_20  and  C_22
REMARK                            x       y       z     vdW  Elec       q    Type
REMARK                         _______ _______ _______ _____ _____    ______ ____
ROOT
ATOM      1  C   UNL     1       0.569  10.545  19.044  0.00  0.00    +0.000 C 
ATOM      2  C   UNL     1      -0.688  10.569  18.572  0.00  0.00    +0.000 C 
ATOM      3  C   UNL     1      -1.662   9.503  18.216  0.00  0.00    +0.000 C 
ATOM      4  C   UNL     1      -1.027  11.978  18.342  0.00  0.00    +0.000 C 
ATOM      5  O   UNL     1      -2.092  12.388  17.926  0.00  0.00    +0.000 OA
ATOM      6  O   UNL     1       0.052  12.746  18.653  0.00  0.00    +0.000 OA
ATOM      7  C   UNL     1       1.129  11.922  19.144  0.00  0.00    +0.000 C 
ATOM      8  C   UNL     1       2.337  12.134  18.232  0.00  0.00    +0.000 C 
ATOM      9  C   UNL     1       2.885  13.558  18.353  0.00  0.00    +0.000 C 
ATOM     10  N   UNL     1       3.203  13.905  19.753  0.00  0.00    +0.000 NA
ATOM     11  C   UNL     1       1.979  13.810  20.575  0.00  0.00    +0.000 C 
ATOM     12  C   UNL     1       1.422  12.391  20.567  0.00  0.00    +0.000 C 
ENDROOT
BRANCH   1  14
ATOM     13  N   UNL     1       1.842   8.738  18.019  0.00  0.00    +0.000 N 
ATOM     14  C   UNL     1       1.328   9.286  19.169  0.00  0.00    +0.000 C 
ATOM     15  O   UNL     1       1.445   8.791  20.286  0.00  0.00    +0.000 OA
ATOM     16  H   UNL     1       1.800   9.253  17.156  0.00  0.00    +0.000 HD
BRANCH  13  20
ATOM     17  C   UNL     1       3.971   5.081  17.696  0.00  0.00    +0.000 A 
ATOM     18  C   UNL     1       2.633   5.088  18.109  0.00  0.00    +0.000 A 
ATOM     19  C   UNL     1       1.921   6.281  18.225  0.00  0.00    +0.000 A 
ATOM     20  C   UNL     1       2.520   7.501  17.934  0.00  0.00    +0.000 A 
ATOM     21  C   UNL     1       3.849   7.504  17.498  0.00  0.00    +0.000 A 
ATOM     22  C   UNL     1       4.573   6.306  17.374  0.00  0.00    +0.000 A 
ATOM     23 CL   UNL     1       6.168   6.481  16.734  0.00  0.00    +0.000 Cl
BRANCH  17  25
ATOM     24  C   UNL     1       3.588   2.728  17.768  0.00  0.00    +0.000 C 
ATOM     25  O   UNL     1       4.481   3.817  17.583  0.00  0.00    +0.000 OA
ENDBRANCH  17  25
ENDBRANCH  13  20
ENDBRANCH   1  14
BRANCH  10  26
ATOM     26  C   UNL     1       3.806  15.265  19.855  0.00  0.00    +0.000 C 
ATOM     27  C   UNL     1       5.113  15.259  20.669  0.00  0.00    +0.000 C 
ATOM     28  C   UNL     1       4.144  15.867  18.480  0.00  0.00    +0.000 C 
ENDBRANCH  10  26
TORSDOF 4
ENDMDL
MODEL 9
REMARK VINA RESULT:      -7.0      3.278      8.661
REMARK  Name = 
REMARK  8 active torsions:
REMARK  status: ('A' for Active; 'I' for Inactive)
REMARK    1  A    between atoms: C_1  and  O_2
REMARK    2  A    between atoms: O_2  and  C_3
REMARK    3  A    between atoms: C_6  and  N_7
REMARK    4  A    between atoms: C_8  and  C_10
REMARK    5  A    between atoms: C_11  and  C_12
REMARK    6  A    between atoms: N_19  and  C_20
REMARK    7  A    between atoms: C_20  and  C_21
REMARK    8  A    between atoms: C_20  and  C_22
REMARK                            x       y       z     vdW  Elec       q    Type
REMARK                         _______ _______ _______ _____ _____    ______ ____
ROOT
ATOM      1  C   UNL     1       0.521  10.310  20.333  0.00  0.00    +0.000 C 
ATOM      2  C   UNL     1      -0.188   9.911  21.402  0.00  0.00    +0.000 C 
ATOM      3  C   UNL     1      -0.517   8.572  21.962  0.00  0.00    +0.000 C 
ATOM      4  C   UNL     1      -0.751  11.119  22.015  0.00  0.00    +0.000 C 
ATOM      5  O   UNL     1      -1.442  11.148  23.013  0.00  0.00    +0.000 OA
ATOM      6  O   UNL     1      -0.386  12.198  21.271  0.00  0.00    +0.000 OA
ATOM      7  C   UNL     1       0.460  11.790  20.176  0.00  0.00    +0.000 C 
ATOM      8  C   UNL     1      -0.216  12.217  18.874  0.00  0.00    +0.000 C 
ATOM      9  C   UNL     1      -0.267  13.741  18.744  0.00  0.00    +0.000 C 
ATOM     10  N   UNL     1       1.074  14.348  18.876  0.00  0.00    +0.000 NA
ATOM     11  C   UNL     1       1.638  14.015  20.200  0.00  0.00    +0.000 C 
ATOM     12  C   UNL     1       1.795  12.508  20.368  0.00  0.00    +0.000 C 
ENDROOT
BRANCH   1  14
ATOM     13  N   UNL     1       1.859   8.347  19.794  0.00  0.00    +0.000 N 
ATOM     14  C   UNL     1       1.037   9.350  19.340  0.00  0.00    +0.000 C 
ATOM     15  O   UNL     1       0.717   9.507  18.166  0.00  0.00    +0.000 OA
ATOM     16  H   UNL     1       1.991   8.216  20.783  0.00  0.00    +0.000 HD
BRANCH  13  20
ATOM     17  C   UNL     1       3.787   5.389  17.441  0.00  0.00    +0.000 A 
ATOM     18  C   UNL     1       3.991   6.748  17.176  0.00  0.00    +0.000 A 
ATOM     19  C   UNL     1       3.362   7.733  17.937  0.00  0.00    +0.000 A 
ATOM     20  C   UNL     1       2.510   7.392  18.982  0.00  0.00    +0.000 A 
ATOM     21  C   UNL     1       2.318   6.036  19.270  0.00  0.00    +0.000 A 
ATOM     22  C   UNL     1       2.952   5.039  18.511  0.00  0.00    +0.000 A 
ATOM     23 CL   UNL     1       2.679   3.423  19.059  0.00  0.00    +0.000 Cl
BRANCH  17  25
ATOM     24  C   UNL     1       5.374   5.199  15.671  0.00  0.00    +0.000 C 
ATOM     25  O   UNL     1       4.535   4.576  16.632  0.00  0.00    +0.000 OA
ENDBRANCH  17  25
ENDBRANCH  13  20
ENDBRANCH   1  14
BRANCH  10  26
ATOM     26  C   UNL     1       1.028  15.824  18.674  0.00  0.00    +0.000 C 
ATOM     27  C   UNL     1      -0.413  16.365  18.673  0.00  0.00    +0.000 C 
ATOM     28  C   UNL     1       1.789  16.595  19.769  0.00  0.00    +0.000 C 
ENDBRANCH  10  26
TORSDOF 4
ENDMDL
