MODEL 1
REMARK VINA RESULT:      -7.5      0.000      0.000
REMARK  Name = 
REMARK  6 active torsions:
REMARK  status: ('A' for Active; 'I' for Inactive)
REMARK    1  A    between atoms: C_5  and  C_6
REMARK    2  A    between atoms: C_6  and  N_7
REMARK    3  A    between atoms: C_12  and  C_13
REMARK    4  A    between atoms: C_13  and  O_14
REMARK    5  A    between atoms: O_14  and  C_15
REMARK    6  A    between atoms: C_15  and  C_16
REMARK                            x       y       z     vdW  Elec       q    Type
REMARK                         _______ _______ _______ _____ _____    ______ ____
ROOT
ATOM      1  N   UNL     1       4.369   4.396  16.650  0.00  0.00    +0.000 NA
ATOM      2  C   UNL     1       4.780   5.608  17.409  0.00  0.00    +0.000 C 
ATOM      3  C   UNL     1       4.570   5.341  18.893  0.00  0.00    +0.000 C 
ATOM      4  C   UNL     1       4.164   3.885  19.001  0.00  0.00    +0.000 C 
ATOM      5  O   UNL     1       3.386   3.574  20.155  0.00  0.00    +0.000 OA
ATOM      6  C   UNL     1       2.032   4.044  20.218  0.00  0.00    +0.000 C 
ATOM      7  C   UNL     1       1.294   3.817  18.892  0.00  0.00    +0.000 C 
ATOM      8  C   UNL     1       2.085   4.103  17.610  0.00  0.00    +0.000 C 
ATOM      9  C   UNL     1       3.550   3.603  17.630  0.00  0.00    +0.000 C 
ENDROOT
BRANCH   1  10
ATOM     10  C   UNL     1       5.630   3.773  16.183  0.00  0.00    +0.000 C 
BRANCH  10  15
ATOM     11  F   UNL     1       7.615   5.036  11.045  0.00  0.00    +0.000 F 
ATOM     12  C   UNL     1       7.151   4.692  12.252  0.00  0.00    +0.000 A 
ATOM     13  C   UNL     1       6.102   3.779  12.358  0.00  0.00    +0.000 A 
ATOM     14  C   UNL     1       5.597   3.421  13.623  0.00  0.00    +0.000 A 
ATOM     15  C   UNL     1       6.153   3.968  14.775  0.00  0.00    +0.000 A 
ATOM     16  C   UNL     1       7.221   4.889  14.635  0.00  0.00    +0.000 A 
ATOM     17  C   UNL     1       7.717   5.254  13.385  0.00  0.00    +0.000 A 
ENDBRANCH  10  15
ENDBRANCH   1  10
BRANCH   6  18
ATOM     18  C   UNL     1       1.911   5.412  20.946  0.00  0.00    +0.000 C 
BRANCH  18  19
ATOM     19  O   UNL     1       1.638   6.536  20.117  0.00  0.00    +0.000 OA
BRANCH  19  20
ATOM     20  C   UNL     1       1.694   7.804  20.765  0.00  0.00    +0.000 C 
BRANCH  20  21
ATOM     21  C   UNL     1       0.310   8.482  20.636  0.00  0.00    +0.000 C 
ATOM     22  C   UNL     1      -0.443   8.549  21.974  0.00  0.00    +0.000 C 
ATOM     23  C   UNL     1       0.273   9.504  22.915  0.00  0.00    +0.000 C 
ATOM     24  O   UNL     1       0.289  10.816  22.353  0.00  0.00    +0.000 OA
ATOM     25  C   UNL     1       0.973  10.886  21.106  0.00  0.00    +0.000 C 
ATOM     26  C   UNL     1       0.394   9.909  20.073  0.00  0.00    +0.000 C 
ENDBRANCH  20  21
ENDBRANCH  19  20
ENDBRANCH  18  19
ENDBRANCH   6  18
TORSDOF 6
ENDMDL
MODEL 2
REMARK VINA RESULT:      -7.4      0.631      1.454
REMARK  Name = 
REMARK  6 active torsions:
REMARK  status: ('A' for Active; 'I' for Inactive)
REMARK    1  A    between atoms: C_5  and  C_6
REMARK    2  A    between atoms: C_6  and  N_7
REMARK    3  A    between atoms: C_12  and  C_13
REMARK    4  A    between atoms: C_13  and  O_14
REMARK    5  A    between atoms: O_14  and  C_15
REMARK    6  A    between atoms: C_15  and  C_16
REMARK                            x       y       z     vdW  Elec       q    Type
REMARK                         _______ _______ _______ _____ _____    ______ ____
ROOT
ATOM      1  N   UNL     1       4.307   4.322  16.698  0.00  0.00    +0.000 NA
ATOM      2  C   UNL     1       4.734   5.474  17.537  0.00  0.00    +0.000 C 
ATOM      3  C   UNL     1       4.556   5.096  19.001  0.00  0.00    +0.000 C 
ATOM      4  C   UNL     1       4.153   3.636  19.008  0.00  0.00    +0.000 C 
ATOM      5  O   UNL     1       3.399   3.237  20.151  0.00  0.00    +0.000 OA
ATOM      6  C   UNL     1       2.048   3.699  20.279  0.00  0.00    +0.000 C 
ATOM      7  C   UNL     1       1.281   3.571  18.956  0.00  0.00    +0.000 C 
ATOM      8  C   UNL     1       2.044   3.953  17.682  0.00  0.00    +0.000 C 
ATOM      9  C   UNL     1       3.510   3.457  17.633  0.00  0.00    +0.000 C 
ENDROOT
BRANCH   1  10
ATOM     10  C   UNL     1       5.558   3.739  16.159  0.00  0.00    +0.000 C 
BRANCH  10  15
ATOM     11  F   UNL     1       7.618   4.697  10.985  0.00  0.00    +0.000 F 
ATOM     12  C   UNL     1       7.126   4.517  12.216  0.00  0.00    +0.000 A 
ATOM     13  C   UNL     1       7.715   5.165  13.301  0.00  0.00    +0.000 A 
ATOM     14  C   UNL     1       7.213   4.970  14.603  0.00  0.00    +0.000 A 
ATOM     15  C   UNL     1       6.118   4.138  14.809  0.00  0.00    +0.000 A 
ATOM     16  C   UNL     1       5.538   3.497  13.687  0.00  0.00    +0.000 A 
ATOM     17  C   UNL     1       6.038   3.679  12.398  0.00  0.00    +0.000 A 
ENDBRANCH  10  15
ENDBRANCH   1  10
BRANCH   6  18
ATOM     18  C   UNL     1       1.942   5.008  21.111  0.00  0.00    +0.000 C 
BRANCH  18  19
ATOM     19  O   UNL     1       1.732   6.202  20.366  0.00  0.00    +0.000 OA
BRANCH  19  20
ATOM     20  C   UNL     1       0.808   7.126  20.936  0.00  0.00    +0.000 C 
BRANCH  20  21
ATOM     21  C   UNL     1       1.495   8.508  21.034  0.00  0.00    +0.000 C 
ATOM     22  C   UNL     1       0.965   9.507  19.993  0.00  0.00    +0.000 C 
ATOM     23  C   UNL     1      -0.477   9.864  20.317  0.00  0.00    +0.000 C 
ATOM     24  O   UNL     1      -0.544  10.487  21.600  0.00  0.00    +0.000 OA
ATOM     25  C   UNL     1      -0.086   9.651  22.657  0.00  0.00    +0.000 C 
ATOM     26  C   UNL     1       1.346   9.153  22.421  0.00  0.00    +0.000 C 
ENDBRANCH  20  21
ENDBRANCH  19  20
ENDBRANCH  18  19
ENDBRANCH   6  18
TORSDOF 6
ENDMDL
MODEL 3
REMARK VINA RESULT:      -7.2      2.608      4.428
REMARK  Name = 
REMARK  6 active torsions:
REMARK  status: ('A' for Active; 'I' for Inactive)
REMARK    1  A    between atoms: C_5  and  C_6
REMARK    2  A    between atoms: C_6  and  N_7
REMARK    3  A    between atoms: C_12  and  C_13
REMARK    4  A    between atoms: C_13  and  O_14
REMARK    5  A    between atoms: O_14  and  C_15
REMARK    6  A    between atoms: C_15  and  C_16
REMARK                            x       y       z     vdW  Elec       q    Type
REMARK                         _______ _______ _______ _____ _____    ______ ____
ROOT
ATOM      1  N   UNL     1       6.571   6.347  16.800  0.00  0.00    +0.000 NA
ATOM      2  C   UNL     1       6.873   6.076  18.231  0.00  0.00    +0.000 C 
ATOM      3  C   UNL     1       5.677   5.366  18.850  0.00  0.00    +0.000 C 
ATOM      4  C   UNL     1       4.719   5.091  17.708  0.00  0.00    +0.000 C 
ATOM      5  O   UNL     1       3.352   4.976  18.099  0.00  0.00    +0.000 OA
ATOM      6  C   UNL     1       2.653   6.157  18.513  0.00  0.00    +0.000 C 
ATOM      7  C   UNL     1       2.932   7.336  17.571  0.00  0.00    +0.000 C 
ATOM      8  C   UNL     1       4.377   7.500  17.086  0.00  0.00    +0.000 C 
ATOM      9  C   UNL     1       5.082   6.178  16.695  0.00  0.00    +0.000 C 
ENDROOT
BRANCH   1  10
ATOM     10  C   UNL     1       7.403   5.391  16.031  0.00  0.00    +0.000 C 
BRANCH  10  15
ATOM     11  F   UNL     1       5.808   2.959  11.187  0.00  0.00    +0.000 F 
ATOM     12  C   UNL     1       6.179   3.577  12.314  0.00  0.00    +0.000 A 
ATOM     13  C   UNL     1       7.212   4.514  12.284  0.00  0.00    +0.000 A 
ATOM     14  C   UNL     1       7.620   5.160  13.466  0.00  0.00    +0.000 A 
ATOM     15  C   UNL     1       6.985   4.873  14.671  0.00  0.00    +0.000 A 
ATOM     16  C   UNL     1       5.938   3.919  14.669  0.00  0.00    +0.000 A 
ATOM     17  C   UNL     1       5.537   3.270  13.502  0.00  0.00    +0.000 A 
ENDBRANCH  10  15
ENDBRANCH   1  10
BRANCH   6  18
ATOM     18  C   UNL     1       2.704   6.370  20.053  0.00  0.00    +0.000 C 
BRANCH  18  19
ATOM     19  O   UNL     1       1.955   5.445  20.833  0.00  0.00    +0.000 OA
BRANCH  19  20
ATOM     20  C   UNL     1       1.015   4.654  20.110  0.00  0.00    +0.000 C 
BRANCH  20  21
ATOM     21  C   UNL     1       1.057   3.212  20.666  0.00  0.00    +0.000 C 
ATOM     22  C   UNL     1       0.785   2.153  19.586  0.00  0.00    +0.000 C 
ATOM     23  C   UNL     1       1.938   2.127  18.596  0.00  0.00    +0.000 C 
ATOM     24  O   UNL     1       3.146   1.771  19.269  0.00  0.00    +0.000 OA
ATOM     25  C   UNL     1       3.512   2.688  20.294  0.00  0.00    +0.000 C 
ATOM     26  C   UNL     1       2.398   2.868  21.334  0.00  0.00    +0.000 C 
ENDBRANCH  20  21
ENDBRANCH  19  20
ENDBRANCH  18  19
ENDBRANCH   6  18
TORSDOF 6
ENDMDL
MODEL 4
REMARK VINA RESULT:      -7.2      4.160      7.919
REMARK  Name = 
REMARK  6 active torsions:
REMARK  status: ('A' for Active; 'I' for Inactive)
REMARK    1  A    between atoms: C_5  and  C_6
REMARK    2  A    between atoms: C_6  and  N_7
REMARK    3  A    between atoms: C_12  and  C_13
REMARK    4  A    between atoms: C_13  and  O_14
REMARK    5  A    between atoms: O_14  and  C_15
REMARK    6  A    between atoms: C_15  and  C_16
REMARK                            x       y       z     vdW  Elec       q    Type
REMARK                         _______ _______ _______ _____ _____    ______ ____
ROOT
ATOM      1  N   UNL     1       2.432   7.897  18.669  0.00  0.00    +0.000 NA
ATOM      2  C   UNL     1       3.630   7.671  17.816  0.00  0.00    +0.000 C 
ATOM      3  C   UNL     1       3.613   6.227  17.335  0.00  0.00    +0.000 C 
ATOM      4  C   UNL     1       2.294   5.646  17.804  0.00  0.00    +0.000 C 
ATOM      5  O   UNL     1       2.302   4.231  17.980  0.00  0.00    +0.000 OA
ATOM      6  C   UNL     1       3.034   3.680  19.083  0.00  0.00    +0.000 C 
ATOM      7  C   UNL     1       2.781   4.465  20.377  0.00  0.00    +0.000 C 
ATOM      8  C   UNL     1       2.728   5.992  20.253  0.00  0.00    +0.000 C 
ATOM      9  C   UNL     1       1.956   6.514  19.016  0.00  0.00    +0.000 C 
ENDROOT
BRANCH   1  10
ATOM     10  C   UNL     1       1.515   8.728  17.853  0.00  0.00    +0.000 C 
BRANCH  10  15
ATOM     11  F   UNL     1      -0.278  13.606  20.068  0.00  0.00    +0.000 F 
ATOM     12  C   UNL     1       0.108  12.451  19.517  0.00  0.00    +0.000 A 
ATOM     13  C   UNL     1      -0.754  11.355  19.526  0.00  0.00    +0.000 A 
ATOM     14  C   UNL     1      -0.352  10.129  18.961  0.00  0.00    +0.000 A 
ATOM     15  C   UNL     1       0.906  10.010  18.379  0.00  0.00    +0.000 A 
ATOM     16  C   UNL     1       1.758  11.142  18.382  0.00  0.00    +0.000 A 
ATOM     17  C   UNL     1       1.368  12.355  18.949  0.00  0.00    +0.000 A 
ENDBRANCH  10  15
ENDBRANCH   1  10
BRANCH   6  18
ATOM     18  C   UNL     1       4.485   3.279  18.693  0.00  0.00    +0.000 C 
BRANCH  18  19
ATOM     19  O   UNL     1       5.519   3.822  19.506  0.00  0.00    +0.000 OA
BRANCH  19  20
ATOM     20  C   UNL     1       5.907   5.157  19.194  0.00  0.00    +0.000 C 
BRANCH  20  21
ATOM     21  C   UNL     1       7.392   5.147  18.761  0.00  0.00    +0.000 C 
ATOM     22  C   UNL     1       7.600   4.516  17.375  0.00  0.00    +0.000 C 
ATOM     23  C   UNL     1       6.982   5.408  16.311  0.00  0.00    +0.000 C 
ATOM     24  O   UNL     1       7.625   6.683  16.314  0.00  0.00    +0.000 OA
ATOM     25  C   UNL     1       7.493   7.376  17.551  0.00  0.00    +0.000 C 
ATOM     26  C   UNL     1       8.016   6.551  18.735  0.00  0.00    +0.000 C 
ENDBRANCH  20  21
ENDBRANCH  19  20
ENDBRANCH  18  19
ENDBRANCH   6  18
TORSDOF 6
ENDMDL
MODEL 5
REMARK VINA RESULT:      -7.1      2.518      3.233
REMARK  Name = 
REMARK  6 active torsions:
REMARK  status: ('A' for Active; 'I' for Inactive)
REMARK    1  A    between atoms: C_5  and  C_6
REMARK    2  A    between atoms: C_6  and  N_7
REMARK    3  A    between atoms: C_12  and  C_13
REMARK    4  A    between atoms: C_13  and  O_14
REMARK    5  A    between atoms: O_14  and  C_15
REMARK    6  A    between atoms: C_15  and  C_16
REMARK                            x       y       z     vdW  Elec       q    Type
REMARK                         _______ _______ _______ _____ _____    ______ ____
ROOT
ATOM      1  N   UNL     1       4.436   3.921  16.827  0.00  0.00    +0.000 NA
ATOM      2  C   UNL     1       4.006   5.325  17.063  0.00  0.00    +0.000 C 
ATOM      3  C   UNL     1       3.655   5.481  18.537  0.00  0.00    +0.000 C 
ATOM      4  C   UNL     1       4.032   4.169  19.196  0.00  0.00    +0.000 C 
ATOM      5  O   UNL     1       3.298   3.872  20.382  0.00  0.00    +0.000 OA
ATOM      6  C   UNL     1       1.915   3.512  20.262  0.00  0.00    +0.000 C 
ATOM      7  C   UNL     1       1.691   2.506  19.125  0.00  0.00    +0.000 C 
ATOM      8  C   UNL     1       2.476   2.749  17.830  0.00  0.00    +0.000 C 
ATOM      9  C   UNL     1       3.950   3.174  18.038  0.00  0.00    +0.000 C 
ENDROOT
BRANCH   1  10
ATOM     10  C   UNL     1       5.904   3.983  16.633  0.00  0.00    +0.000 C 
BRANCH  10  15
ATOM     11  F   UNL     1       8.780   8.237  18.990  0.00  0.00    +0.000 F 
ATOM     12  C   UNL     1       8.127   7.234  18.394  0.00  0.00    +0.000 A 
ATOM     13  C   UNL     1       7.565   7.424  17.131  0.00  0.00    +0.000 A 
ATOM     14  C   UNL     1       6.863   6.379  16.501  0.00  0.00    +0.000 A 
ATOM     15  C   UNL     1       6.735   5.146  17.133  0.00  0.00    +0.000 A 
ATOM     16  C   UNL     1       7.320   4.982  18.412  0.00  0.00    +0.000 A 
ATOM     17  C   UNL     1       8.008   6.017  19.044  0.00  0.00    +0.000 A 
ENDBRANCH  10  15
ENDBRANCH   1  10
BRANCH   6  18
ATOM     18  C   UNL     1       0.967   4.735  20.410  0.00  0.00    +0.000 C 
BRANCH  18  19
ATOM     19  O   UNL     1       1.585   5.959  20.789  0.00  0.00    +0.000 OA
BRANCH  19  20
ATOM     20  C   UNL     1       0.692   7.020  21.120  0.00  0.00    +0.000 C 
BRANCH  20  21
ATOM     21  C   UNL     1       1.480   8.351  21.086  0.00  0.00    +0.000 C 
ATOM     22  C   UNL     1       1.042   9.268  19.933  0.00  0.00    +0.000 C 
ATOM     23  C   UNL     1      -0.373   9.762  20.184  0.00  0.00    +0.000 C 
ATOM     24  O   UNL     1      -0.413  10.523  21.392  0.00  0.00    +0.000 OA
ATOM     25  C   UNL     1      -0.035   9.774  22.541  0.00  0.00    +0.000 C 
ATOM     26  C   UNL     1       1.359   9.150  22.393  0.00  0.00    +0.000 C 
ENDBRANCH  20  21
ENDBRANCH  19  20
ENDBRANCH  18  19
ENDBRANCH   6  18
TORSDOF 6
ENDMDL
MODEL 6
REMARK VINA RESULT:      -7.1      4.820      6.839
REMARK  Name = 
REMARK  6 active torsions:
REMARK  status: ('A' for Active; 'I' for Inactive)
REMARK    1  A    between atoms: C_5  and  C_6
REMARK    2  A    between atoms: C_6  and  N_7
REMARK    3  A    between atoms: C_12  and  C_13
REMARK    4  A    between atoms: C_13  and  O_14
REMARK    5  A    between atoms: O_14  and  C_15
REMARK    6  A    between atoms: C_15  and  C_16
REMARK                            x       y       z     vdW  Elec       q    Type
REMARK                         _______ _______ _______ _____ _____    ______ ____
ROOT
ATOM      1  N   UNL     1       7.255   7.719  18.138  0.00  0.00    +0.000 NA
ATOM      2  C   UNL     1       7.736   6.482  18.809  0.00  0.00    +0.000 C 
ATOM      3  C   UNL     1       7.580   5.317  17.842  0.00  0.00    +0.000 C 
ATOM      4  C   UNL     1       7.133   5.923  16.527  0.00  0.00    +0.000 C 
ATOM      5  O   UNL     1       6.394   5.037  15.690  0.00  0.00    +0.000 OA
ATOM      6  C   UNL     1       5.060   4.678  16.075  0.00  0.00    +0.000 C 
ATOM      7  C   UNL     1       4.260   5.901  16.542  0.00  0.00    +0.000 C 
ATOM      8  C   UNL     1       5.005   6.913  17.421  0.00  0.00    +0.000 C 
ATOM      9  C   UNL     1       6.453   7.220  16.968  0.00  0.00    +0.000 C 
ENDROOT
BRANCH   1  10
ATOM     10  C   UNL     1       8.474   8.499  17.821  0.00  0.00    +0.000 C 
BRANCH  10  15
ATOM     11  F   UNL     1       9.715  13.698  19.652  0.00  0.00    +0.000 F 
ATOM     12  C   UNL     1       9.396  12.460  19.257  0.00  0.00    +0.000 A 
ATOM     13  C   UNL     1       9.658  11.376  20.094  0.00  0.00    +0.000 A 
ATOM     14  C   UNL     1       9.340  10.068  19.683  0.00  0.00    +0.000 A 
ATOM     15  C   UNL     1       8.750   9.852  18.441  0.00  0.00    +0.000 A 
ATOM     16  C   UNL     1       8.492  10.974  17.615  0.00  0.00    +0.000 A 
ATOM     17  C   UNL     1       8.815  12.270  18.014  0.00  0.00    +0.000 A 
ENDBRANCH  10  15
ENDBRANCH   1  10
BRANCH   6  18
ATOM     18  C   UNL     1       5.014   3.362  16.902  0.00  0.00    +0.000 C 
BRANCH  18  19
ATOM     19  O   UNL     1       4.517   3.479  18.230  0.00  0.00    +0.000 OA
BRANCH  19  20
ATOM     20  C   UNL     1       3.476   2.570  18.578  0.00  0.00    +0.000 C 
BRANCH  20  21
ATOM     21  C   UNL     1       2.117   3.235  18.256  0.00  0.00    +0.000 C 
ATOM     22  C   UNL     1       0.940   2.548  18.966  0.00  0.00    +0.000 C 
ATOM     23  C   UNL     1       1.042   2.781  20.464  0.00  0.00    +0.000 C 
ATOM     24  O   UNL     1       0.968   4.179  20.743  0.00  0.00    +0.000 OA
ATOM     25  C   UNL     1       2.020   4.929  20.143  0.00  0.00    +0.000 C 
ATOM     26  C   UNL     1       2.080   4.727  18.623  0.00  0.00    +0.000 C 
ENDBRANCH  20  21
ENDBRANCH  19  20
ENDBRANCH  18  19
ENDBRANCH   6  18
TORSDOF 6
ENDMDL
MODEL 7
REMARK VINA RESULT:      -7.0      1.191      1.433
REMARK  Name = 
REMARK  6 active torsions:
REMARK  status: ('A' for Active; 'I' for Inactive)
REMARK    1  A    between atoms: C_5  and  C_6
REMARK    2  A    between atoms: C_6  and  N_7
REMARK    3  A    between atoms: C_12  and  C_13
REMARK    4  A    between atoms: C_13  and  O_14
REMARK    5  A    between atoms: O_14  and  C_15
REMARK    6  A    between atoms: C_15  and  C_16
REMARK                            x       y       z     vdW  Elec       q    Type
REMARK                         _______ _______ _______ _____ _____    ______ ____
ROOT
ATOM      1  N   UNL     1       4.341   4.556  16.560  0.00  0.00    +0.000 NA
ATOM      2  C   UNL     1       4.739   5.855  17.167  0.00  0.00    +0.000 C 
ATOM      3  C   UNL     1       4.568   5.753  18.677  0.00  0.00    +0.000 C 
ATOM      4  C   UNL     1       4.201   4.311  18.959  0.00  0.00    +0.000 C 
ATOM      5  O   UNL     1       3.456   4.115  20.159  0.00  0.00    +0.000 OA
ATOM      6  C   UNL     1       2.094   4.559  20.203  0.00  0.00    +0.000 C 
ATOM      7  C   UNL     1       1.332   4.168  18.930  0.00  0.00    +0.000 C 
ATOM      8  C   UNL     1       2.087   4.324  17.604  0.00  0.00    +0.000 C 
ATOM      9  C   UNL     1       3.564   3.862  17.643  0.00  0.00    +0.000 C 
ENDROOT
BRANCH   1  10
ATOM     10  C   UNL     1       5.606   3.912  16.135  0.00  0.00    +0.000 C 
BRANCH  10  15
ATOM     11  F   UNL     1       7.587   4.848  10.927  0.00  0.00    +0.000 F 
ATOM     12  C   UNL     1       7.124   4.580  12.153  0.00  0.00    +0.000 A 
ATOM     13  C   UNL     1       6.076   3.676  12.318  0.00  0.00    +0.000 A 
ATOM     14  C   UNL     1       5.572   3.398  13.603  0.00  0.00    +0.000 A 
ATOM     15  C   UNL     1       6.128   4.018  14.718  0.00  0.00    +0.000 A 
ATOM     16  C   UNL     1       7.194   4.928  14.519  0.00  0.00    +0.000 A 
ATOM     17  C   UNL     1       7.690   5.214  13.247  0.00  0.00    +0.000 A 
ENDBRANCH  10  15
ENDBRANCH   1  10
BRANCH   6  18
ATOM     18  C   UNL     1       1.955   5.999  20.775  0.00  0.00    +0.000 C 
BRANCH  18  19
ATOM     19  O   UNL     1       1.908   7.047  19.815  0.00  0.00    +0.000 OA
BRANCH  19  20
ATOM     20  C   UNL     1       1.607   8.340  20.335  0.00  0.00    +0.000 C 
BRANCH  20  21
ATOM     21  C   UNL     1       0.585   9.021  19.393  0.00  0.00    +0.000 C 
ATOM     22  C   UNL     1      -0.033  10.286  20.007  0.00  0.00    +0.000 C 
ATOM     23  C   UNL     1       1.030  11.366  20.129  0.00  0.00    +0.000 C 
ATOM     24  O   UNL     1       1.527  11.703  18.833  0.00  0.00    +0.000 OA
ATOM     25  C   UNL     1       2.137  10.607  18.162  0.00  0.00    +0.000 C 
ATOM     26  C   UNL     1       1.190   9.406  18.034  0.00  0.00    +0.000 C 
ENDBRANCH  20  21
ENDBRANCH  19  20
ENDBRANCH  18  19
ENDBRANCH   6  18
TORSDOF 6
ENDMDL
MODEL 8
REMARK VINA RESULT:      -7.0      5.647      7.992
REMARK  Name = 
REMARK  6 active torsions:
REMARK  status: ('A' for Active; 'I' for Inactive)
REMARK    1  A    between atoms: C_5  and  C_6
REMARK    2  A    between atoms: C_6  and  N_7
REMARK    3  A    between atoms: C_12  and  C_13
REMARK    4  A    between atoms: C_13  and  O_14
REMARK    5  A    between atoms: O_14  and  C_15
REMARK    6  A    between atoms: C_15  and  C_16
REMARK                            x       y       z     vdW  Elec       q    Type
REMARK                         _______ _______ _______ _____ _____    ______ ____
ROOT
ATOM      1  N   UNL     1       5.004   3.612  17.857  0.00  0.00    +0.000 NA
ATOM      2  C   UNL     1       5.246   4.252  19.177  0.00  0.00    +0.000 C 
ATOM      3  C   UNL     1       5.363   5.755  18.971  0.00  0.00    +0.000 C 
ATOM      4  C   UNL     1       5.036   6.002  17.512  0.00  0.00    +0.000 C 
ATOM      5  O   UNL     1       5.619   7.184  16.968  0.00  0.00    +0.000 OA
ATOM      6  C   UNL     1       7.035   7.211  16.742  0.00  0.00    +0.000 C 
ATOM      7  C   UNL     1       7.525   5.917  16.080  0.00  0.00    +0.000 C 
ATOM      8  C   UNL     1       6.913   4.609  16.597  0.00  0.00    +0.000 C 
ATOM      9  C   UNL     1       5.388   4.667  16.857  0.00  0.00    +0.000 C 
ENDROOT
BRANCH   1  10
ATOM     10  C   UNL     1       3.581   3.198  17.870  0.00  0.00    +0.000 C 
BRANCH  10  15
ATOM     11  F   UNL     1       0.689   2.546  22.680  0.00  0.00    +0.000 F 
ATOM     12  C   UNL     1       1.366   2.747  21.544  0.00  0.00    +0.000 A 
ATOM     13  C   UNL     1       0.762   3.429  20.487  0.00  0.00    +0.000 A 
ATOM     14  C   UNL     1       1.461   3.633  19.282  0.00  0.00    +0.000 A 
ATOM     15  C   UNL     1       2.764   3.164  19.144  0.00  0.00    +0.000 A 
ATOM     16  C   UNL     1       3.351   2.478  20.236  0.00  0.00    +0.000 A 
ATOM     17  C   UNL     1       2.660   2.266  21.428  0.00  0.00    +0.000 A 
ENDBRANCH  10  15
ENDBRANCH   1  10
BRANCH   6  18
ATOM     18  C   UNL     1       7.818   7.809  17.946  0.00  0.00    +0.000 C 
BRANCH  18  19
ATOM     19  O   UNL     1       8.022   9.216  17.917  0.00  0.00    +0.000 OA
BRANCH  19  20
ATOM     20  C   UNL     1       9.034   9.707  18.793  0.00  0.00    +0.000 C 
BRANCH  20  21
ATOM     21  C   UNL     1       9.219  11.220  18.529  0.00  0.00    +0.000 C 
ATOM     22  C   UNL     1       9.143  12.058  19.815  0.00  0.00    +0.000 C 
ATOM     23  C   UNL     1      10.347  11.756  20.693  0.00  0.00    +0.000 C 
ATOM     24  O   UNL     1      11.547  12.111  20.006  0.00  0.00    +0.000 OA
ATOM     25  C   UNL     1      11.737  11.389  18.794  0.00  0.00    +0.000 C 
ATOM     26  C   UNL     1      10.550  11.546  17.834  0.00  0.00    +0.000 C 
ENDBRANCH  20  21
ENDBRANCH  19  20
ENDBRANCH  18  19
ENDBRANCH   6  18
TORSDOF 6
ENDMDL
MODEL 9
REMARK VINA RESULT:      -7.0      4.202      8.538
REMARK  Name = 
REMARK  6 active torsions:
REMARK  status: ('A' for Active; 'I' for Inactive)
REMARK    1  A    between atoms: C_5  and  C_6
REMARK    2  A    between atoms: C_6  and  N_7
REMARK    3  A    between atoms: C_12  and  C_13
REMARK    4  A    between atoms: C_13  and  O_14
REMARK    5  A    between atoms: O_14  and  C_15
REMARK    6  A    between atoms: C_15  and  C_16
REMARK                            x       y       z     vdW  Elec       q    Type
REMARK                         _______ _______ _______ _____ _____    ______ ____
ROOT
ATOM      1  N   UNL     1       2.347   7.394  19.831  0.00  0.00    +0.000 NA
ATOM      2  C   UNL     1       3.343   7.428  18.727  0.00  0.00    +0.000 C 
ATOM      3  C   UNL     1       3.082   6.245  17.806  0.00  0.00    +0.000 C 
ATOM      4  C   UNL     1       1.810   5.595  18.312  0.00  0.00    +0.000 C 
ATOM      5  O   UNL     1       1.691   4.208  18.001  0.00  0.00    +0.000 OA
ATOM      6  C   UNL     1       2.540   3.276  18.683  0.00  0.00    +0.000 C 
ATOM      7  C   UNL     1       2.607   3.570  20.188  0.00  0.00    +0.000 C 
ATOM      8  C   UNL     1       2.703   5.046  20.594  0.00  0.00    +0.000 C 
ATOM      9  C   UNL     1       1.789   5.999  19.787  0.00  0.00    +0.000 C 
ENDROOT
BRANCH   1  10
ATOM     10  C   UNL     1       1.399   8.496  19.544  0.00  0.00    +0.000 C 
BRANCH  10  15
ATOM     11  F   UNL     1      -1.424  11.510  23.401  0.00  0.00    +0.000 F 
ATOM     12  C   UNL     1      -0.778  10.758  22.503  0.00  0.00    +0.000 A 
ATOM     13  C   UNL     1      -0.075   9.628  22.920  0.00  0.00    +0.000 A 
ATOM     14  C   UNL     1       0.620   8.837  21.984  0.00  0.00    +0.000 A 
ATOM     15  C   UNL     1       0.598   9.176  20.635  0.00  0.00    +0.000 A 
ATOM     16  C   UNL     1      -0.128  10.327  20.241  0.00  0.00    +0.000 A 
ATOM     17  C   UNL     1      -0.809  11.118  21.166  0.00  0.00    +0.000 A 
ENDBRANCH  10  15
ENDBRANCH   1  10
BRANCH   6  18
ATOM     18  C   UNL     1       3.847   2.974  17.896  0.00  0.00    +0.000 C 
BRANCH  18  19
ATOM     19  O   UNL     1       5.063   3.232  18.588  0.00  0.00    +0.000 OA
BRANCH  19  20
ATOM     20  C   UNL     1       5.525   4.580  18.532  0.00  0.00    +0.000 C 
BRANCH  20  21
ATOM     21  C   UNL     1       7.035   4.566  18.198  0.00  0.00    +0.000 C 
ATOM     22  C   UNL     1       7.308   4.376  16.698  0.00  0.00    +0.000 C 
ATOM     23  C   UNL     1       6.842   5.605  15.934  0.00  0.00    +0.000 C 
ATOM     24  O   UNL     1       7.571   6.751  16.372  0.00  0.00    +0.000 OA
ATOM     25  C   UNL     1       7.391   7.040  17.754  0.00  0.00    +0.000 C 
ATOM     26  C   UNL     1       7.758   5.846  18.647  0.00  0.00    +0.000 C 
ENDBRANCH  20  21
ENDBRANCH  19  20
ENDBRANCH  18  19
ENDBRANCH   6  18
TORSDOF 6
ENDMDL
