MODEL 1
REMARK VINA RESULT:      -8.0      0.000      0.000
REMARK  Name = 
REMARK  15 active torsions:
REMARK  status: ('A' for Active; 'I' for Inactive)
REMARK    1  A    between atoms: C_1  and  C_2
REMARK    2  A    between atoms: C_2  and  C_3
REMARK    3  A    between atoms: C_2  and  C_4
REMARK    4  A    between atoms: C_4  and  N_5
REMARK    5  A    between atoms: C_4  and  C_27
REMARK    6  A    between atoms: N_5  and  C_6
REMARK    7  A    between atoms: C_6  and  C_7
REMARK    8  A    between atoms: C_7  and  O_8
REMARK    9  A    between atoms: C_7  and  C_9
REMARK   10  A    between atoms: C_9  and  O_10
REMARK   11  A    between atoms: O_10  and  C_11
REMARK   12  A    between atoms: C_16  and  C_17
REMARK   13  A    between atoms: C_17  and  C_19
REMARK   14  A    between atoms: C_19  and  C_20
REMARK   15  A    between atoms: C_20  and  C_21
REMARK                            x       y       z     vdW  Elec       q    Type
REMARK                         _______ _______ _______ _____ _____    ______ ____
ROOT
ATOM      1  C   UNL     1       2.724   7.292  18.125  0.00  0.00    +0.000 C 
ENDROOT
BRANCH   1   2
ATOM      2  C   UNL     1       2.095   8.551  18.753  0.00  0.00    +0.000 C 
BRANCH   2   3
ATOM      3  O   UNL     1       1.546   8.192  20.030  0.00  0.00    +0.000 OA
ATOM      4  H   UNL     1       1.998   8.721  20.709  0.00  0.00    +0.000 HD
ENDBRANCH   2   3
BRANCH   2   5
ATOM      5  C   UNL     1       0.989   9.124  17.816  0.00  0.00    +0.000 C 
BRANCH   5   6
ATOM      6  N   UNL     1       0.466  10.403  18.303  0.00  0.00    +0.000 NA
ATOM      7  H   UNL     1       0.362  11.047  17.516  0.00  0.00    +0.000 HD
BRANCH   6   8
ATOM      8  C   UNL     1      -0.829  10.370  19.041  0.00  0.00    +0.000 C 
BRANCH   8   9
ATOM      9  C   UNL     1      -1.984  10.525  18.035  0.00  0.00    +0.000 A 
ATOM     10  C   UNL     1      -1.924   9.938  16.757  0.00  0.00    +0.000 A 
ATOM     11  C   UNL     1      -2.900  10.200  15.783  0.00  0.00    +0.000 A 
ATOM     12  C   UNL     1      -3.959  11.062  16.069  0.00  0.00    +0.000 A 
ATOM     13  C   UNL     1      -4.062  11.633  17.325  0.00  0.00    +0.000 A 
ATOM     14  C   UNL     1      -3.096  11.355  18.309  0.00  0.00    +0.000 A 
ENDBRANCH   8   9
BRANCH   8  16
ATOM     15  C   UNL     1      -0.094  12.693  20.018  0.00  0.00    +0.000 C 
ATOM     16  C   UNL     1      -0.822  11.365  20.250  0.00  0.00    +0.000 C 
ATOM     17  C   UNL     1      -0.346  10.730  21.559  0.00  0.00    +0.000 C 
ENDBRANCH   8  16
ENDBRANCH   6   8
ENDBRANCH   5   6
ENDBRANCH   2   5
ENDBRANCH   1   2
BRANCH   1  18
ATOM     18  O   UNL     1       3.207   6.369  19.125  0.00  0.00    +0.000 OA
BRANCH  18  19
ATOM     19  C   UNL     1       2.970   5.027  18.992  0.00  0.00    +0.000 A 
ATOM     20  C   UNL     1       1.700   4.463  19.221  0.00  0.00    +0.000 A 
ATOM     21  C   UNL     1       1.423   3.124  18.943  0.00  0.00    +0.000 A 
ATOM     22  C   UNL     1       2.431   2.300  18.479  0.00  0.00    +0.000 A 
ATOM     23  C   UNL     1       3.721   2.813  18.328  0.00  0.00    +0.000 A 
ATOM     24  C   UNL     1       4.020   4.171  18.590  0.00  0.00    +0.000 A 
BRANCH  24  25
ATOM     25  C   UNL     1       5.466   4.546  18.354  0.00  0.00    +0.000 C 
ATOM     26  O   UNL     1       6.225   4.542  19.328  0.00  0.00    +0.000 OA
BRANCH  25  27
ATOM     27  C   UNL     1       5.941   5.070  17.004  0.00  0.00    +0.000 C 
BRANCH  27  28
ATOM     28  C   UNL     1       5.176   4.425  15.822  0.00  0.00    +0.000 C 
BRANCH  28  29
ATOM     29  C   UNL     1       5.918   4.344  14.494  0.00  0.00    +0.000 A 
ATOM     30  C   UNL     1       5.362   3.616  13.426  0.00  0.00    +0.000 A 
ATOM     31  C   UNL     1       5.993   3.573  12.173  0.00  0.00    +0.000 A 
ATOM     32  C   UNL     1       7.184   4.263  11.967  0.00  0.00    +0.000 A 
ATOM     33  C   UNL     1       7.738   5.002  13.008  0.00  0.00    +0.000 A 
ATOM     34  C   UNL     1       7.105   5.049  14.257  0.00  0.00    +0.000 A 
ENDBRANCH  28  29
ENDBRANCH  27  28
ENDBRANCH  25  27
ENDBRANCH  24  25
ENDBRANCH  18  19
ENDBRANCH   1  18
TORSDOF 13
ENDMDL
MODEL 2
REMARK VINA RESULT:      -8.0      2.133      3.856
REMARK  Name = 
REMARK  15 active torsions:
REMARK  status: ('A' for Active; 'I' for Inactive)
REMARK    1  A    between atoms: C_1  and  C_2
REMARK    2  A    between atoms: C_2  and  C_3
REMARK    3  A    between atoms: C_2  and  C_4
REMARK    4  A    between atoms: C_4  and  N_5
REMARK    5  A    between atoms: C_4  and  C_27
REMARK    6  A    between atoms: N_5  and  C_6
REMARK    7  A    between atoms: C_6  and  C_7
REMARK    8  A    between atoms: C_7  and  O_8
REMARK    9  A    between atoms: C_7  and  C_9
REMARK   10  A    between atoms: C_9  and  O_10
REMARK   11  A    between atoms: O_10  and  C_11
REMARK   12  A    between atoms: C_16  and  C_17
REMARK   13  A    between atoms: C_17  and  C_19
REMARK   14  A    between atoms: C_19  and  C_20
REMARK   15  A    between atoms: C_20  and  C_21
REMARK                            x       y       z     vdW  Elec       q    Type
REMARK                         _______ _______ _______ _____ _____    ______ ____
ROOT
ATOM      1  C   UNL     1       2.418   7.319  19.604  0.00  0.00    +0.000 C 
ENDROOT
BRANCH   1   2
ATOM      2  C   UNL     1       2.314   7.787  18.140  0.00  0.00    +0.000 C 
BRANCH   2   3
ATOM      3  O   UNL     1       3.565   7.515  17.490  0.00  0.00    +0.000 OA
ATOM      4  H   UNL     1       3.702   8.195  16.809  0.00  0.00    +0.000 HD
ENDBRANCH   2   3
BRANCH   2   5
ATOM      5  C   UNL     1       1.981   9.309  18.085  0.00  0.00    +0.000 C 
BRANCH   5   6
ATOM      6  N   UNL     1       0.570   9.572  18.381  0.00  0.00    +0.000 NA
ATOM      7  H   UNL     1       0.201   8.817  18.963  0.00  0.00    +0.000 HD
BRANCH   6   8
ATOM      8  C   UNL     1       0.246  10.865  19.049  0.00  0.00    +0.000 C 
BRANCH   8   9
ATOM      9  C   UNL     1      -0.213  10.584  20.491  0.00  0.00    +0.000 A 
ATOM     10  C   UNL     1      -0.556  11.632  21.366  0.00  0.00    +0.000 A 
ATOM     11  C   UNL     1      -0.827  11.395  22.723  0.00  0.00    +0.000 A 
ATOM     12  C   UNL     1      -0.757  10.098  23.234  0.00  0.00    +0.000 A 
ATOM     13  C   UNL     1      -0.451   9.043  22.393  0.00  0.00    +0.000 A 
ATOM     14  C   UNL     1      -0.198   9.276  21.030  0.00  0.00    +0.000 A 
ENDBRANCH   8   9
BRANCH   8  16
ATOM     15  C   UNL     1      -0.549  13.253  18.301  0.00  0.00    +0.000 C 
ATOM     16  C   UNL     1      -0.715  11.735  18.171  0.00  0.00    +0.000 C 
ATOM     17  C   UNL     1      -2.190  11.357  18.323  0.00  0.00    +0.000 C 
ENDBRANCH   8  16
ENDBRANCH   6   8
ENDBRANCH   5   6
ENDBRANCH   2   5
ENDBRANCH   1   2
BRANCH   1  18
ATOM     18  O   UNL     1       3.178   6.097  19.732  0.00  0.00    +0.000 OA
BRANCH  18  19
ATOM     19  C   UNL     1       2.534   4.888  19.746  0.00  0.00    +0.000 A 
ATOM     20  C   UNL     1       1.262   4.721  20.328  0.00  0.00    +0.000 A 
ATOM     21  C   UNL     1       0.547   3.529  20.211  0.00  0.00    +0.000 A 
ATOM     22  C   UNL     1       1.113   2.452  19.556  0.00  0.00    +0.000 A 
ATOM     23  C   UNL     1       2.409   2.563  19.049  0.00  0.00    +0.000 A 
ATOM     24  C   UNL     1       3.147   3.767  19.141  0.00  0.00    +0.000 A 
BRANCH  24  25
ATOM     25  C   UNL     1       4.524   3.702  18.521  0.00  0.00    +0.000 C 
ATOM     26  O   UNL     1       5.457   3.324  19.235  0.00  0.00    +0.000 OA
BRANCH  25  27
ATOM     27  C   UNL     1       4.790   4.237  17.118  0.00  0.00    +0.000 C 
BRANCH  27  28
ATOM     28  C   UNL     1       6.303   4.351  16.811  0.00  0.00    +0.000 C 
BRANCH  28  29
ATOM     29  C   UNL     1       7.026   5.561  17.390  0.00  0.00    +0.000 A 
ATOM     30  C   UNL     1       6.918   6.811  16.752  0.00  0.00    +0.000 A 
ATOM     31  C   UNL     1       7.522   7.955  17.295  0.00  0.00    +0.000 A 
ATOM     32  C   UNL     1       8.237   7.868  18.487  0.00  0.00    +0.000 A 
ATOM     33  C   UNL     1       8.338   6.643  19.139  0.00  0.00    +0.000 A 
ATOM     34  C   UNL     1       7.730   5.502  18.599  0.00  0.00    +0.000 A 
ENDBRANCH  28  29
ENDBRANCH  27  28
ENDBRANCH  25  27
ENDBRANCH  24  25
ENDBRANCH  18  19
ENDBRANCH   1  18
TORSDOF 13
ENDMDL
MODEL 3
REMARK VINA RESULT:      -7.9      3.771      6.665
REMARK  Name = 
REMARK  15 active torsions:
REMARK  status: ('A' for Active; 'I' for Inactive)
REMARK    1  A    between atoms: C_1  and  C_2
REMARK    2  A    between atoms: C_2  and  C_3
REMARK    3  A    between atoms: C_2  and  C_4
REMARK    4  A    between atoms: C_4  and  N_5
REMARK    5  A    between atoms: C_4  and  C_27
REMARK    6  A    between atoms: N_5  and  C_6
REMARK    7  A    between atoms: C_6  and  C_7
REMARK    8  A    between atoms: C_7  and  O_8
REMARK    9  A    between atoms: C_7  and  C_9
REMARK   10  A    between atoms: C_9  and  O_10
REMARK   11  A    between atoms: O_10  and  C_11
REMARK   12  A    between atoms: C_16  and  C_17
REMARK   13  A    between atoms: C_17  and  C_19
REMARK   14  A    between atoms: C_19  and  C_20
REMARK   15  A    between atoms: C_20  and  C_21
REMARK                            x       y       z     vdW  Elec       q    Type
REMARK                         _______ _______ _______ _____ _____    ______ ____
ROOT
ATOM      1  C   UNL     1      -1.839  10.215  18.211  0.00  0.00    +0.000 C 
ENDROOT
BRANCH   1   2
ATOM      2  C   UNL     1      -2.605  11.110  17.217  0.00  0.00    +0.000 C 
BRANCH   2   3
ATOM      3  O   UNL     1      -1.795  12.261  16.932  0.00  0.00    +0.000 OA
ATOM      4  H   UNL     1      -2.391  13.015  16.782  0.00  0.00    +0.000 HD
ENDBRANCH   2   3
BRANCH   2   5
ATOM      5  C   UNL     1      -3.977  11.533  17.821  0.00  0.00    +0.000 C 
BRANCH   5   6
ATOM      6  N   UNL     1      -3.818  12.294  19.063  0.00  0.00    +0.000 NA
ATOM      7  H   UNL     1      -3.175  13.072  18.903  0.00  0.00    +0.000 HD
BRANCH   6   8
ATOM      8  C   UNL     1      -5.056  12.843  19.687  0.00  0.00    +0.000 C 
BRANCH   8   9
ATOM      9  C   UNL     1      -4.841  12.962  21.207  0.00  0.00    +0.000 A 
ATOM     10  C   UNL     1      -3.648  12.524  21.814  0.00  0.00    +0.000 A 
ATOM     11  C   UNL     1      -3.506  12.488  23.209  0.00  0.00    +0.000 A 
ATOM     12  C   UNL     1      -4.560  12.889  24.030  0.00  0.00    +0.000 A 
ATOM     13  C   UNL     1      -5.735  13.351  23.465  0.00  0.00    +0.000 A 
ATOM     14  C   UNL     1      -5.872  13.407  22.067  0.00  0.00    +0.000 A 
ENDBRANCH   8   9
BRANCH   8  16
ATOM     15  C   UNL     1      -7.522  12.908  18.791  0.00  0.00    +0.000 C 
ATOM     16  C   UNL     1      -6.326  12.054  19.225  0.00  0.00    +0.000 C 
ATOM     17  C   UNL     1      -6.781  10.989  20.227  0.00  0.00    +0.000 C 
ENDBRANCH   8  16
ENDBRANCH   6   8
ENDBRANCH   5   6
ENDBRANCH   2   5
ENDBRANCH   1   2
BRANCH   1  18
ATOM     18  O   UNL     1      -0.835  10.950  18.943  0.00  0.00    +0.000 OA
BRANCH  18  19
ATOM     19  C   UNL     1      -0.233  10.385  20.036  0.00  0.00    +0.000 A 
ATOM     20  C   UNL     1      -0.744  10.542  21.340  0.00  0.00    +0.000 A 
ATOM     21  C   UNL     1      -0.217   9.847  22.429  0.00  0.00    +0.000 A 
ATOM     22  C   UNL     1       0.875   9.020  22.249  0.00  0.00    +0.000 A 
ATOM     23  C   UNL     1       1.457   8.917  20.984  0.00  0.00    +0.000 A 
ATOM     24  C   UNL     1       0.930   9.599  19.862  0.00  0.00    +0.000 A 
BRANCH  24  25
ATOM     25  C   UNL     1       1.681   9.354  18.574  0.00  0.00    +0.000 C 
ATOM     26  O   UNL     1       2.292  10.305  18.076  0.00  0.00    +0.000 OA
BRANCH  25  27
ATOM     27  C   UNL     1       1.563   8.032  17.824  0.00  0.00    +0.000 C 
BRANCH  27  28
ATOM     28  C   UNL     1       2.614   6.996  18.291  0.00  0.00    +0.000 C 
BRANCH  28  29
ATOM     29  C   UNL     1       2.077   5.666  18.807  0.00  0.00    +0.000 A 
ATOM     30  C   UNL     1       1.859   4.606  17.908  0.00  0.00    +0.000 A 
ATOM     31  C   UNL     1       1.423   3.351  18.362  0.00  0.00    +0.000 A 
ATOM     32  C   UNL     1       1.207   3.137  19.721  0.00  0.00    +0.000 A 
ATOM     33  C   UNL     1       1.436   4.170  20.624  0.00  0.00    +0.000 A 
ATOM     34  C   UNL     1       1.876   5.421  20.171  0.00  0.00    +0.000 A 
ENDBRANCH  28  29
ENDBRANCH  27  28
ENDBRANCH  25  27
ENDBRANCH  24  25
ENDBRANCH  18  19
ENDBRANCH   1  18
TORSDOF 13
ENDMDL
MODEL 4
REMARK VINA RESULT:      -7.8      2.136      2.876
REMARK  Name = 
REMARK  15 active torsions:
REMARK  status: ('A' for Active; 'I' for Inactive)
REMARK    1  A    between atoms: C_1  and  C_2
REMARK    2  A    between atoms: C_2  and  C_3
REMARK    3  A    between atoms: C_2  and  C_4
REMARK    4  A    between atoms: C_4  and  N_5
REMARK    5  A    between atoms: C_4  and  C_27
REMARK    6  A    between atoms: N_5  and  C_6
REMARK    7  A    between atoms: C_6  and  C_7
REMARK    8  A    between atoms: C_7  and  O_8
REMARK    9  A    between atoms: C_7  and  C_9
REMARK   10  A    between atoms: C_9  and  O_10
REMARK   11  A    between atoms: O_10  and  C_11
REMARK   12  A    between atoms: C_16  and  C_17
REMARK   13  A    between atoms: C_17  and  C_19
REMARK   14  A    between atoms: C_19  and  C_20
REMARK   15  A    between atoms: C_20  and  C_21
REMARK                            x       y       z     vdW  Elec       q    Type
REMARK                         _______ _______ _______ _____ _____    ______ ____
ROOT
ATOM      1  C   UNL     1       2.918   7.270  18.835  0.00  0.00    +0.000 C 
ENDROOT
BRANCH   1   2
ATOM      2  C   UNL     1       1.821   8.234  18.342  0.00  0.00    +0.000 C 
BRANCH   2   3
ATOM      3  O   UNL     1       2.403   9.123  17.378  0.00  0.00    +0.000 OA
ATOM      4  H   UNL     1       2.594   9.966  17.825  0.00  0.00    +0.000 HD
ENDBRANCH   2   3
BRANCH   2   5
ATOM      5  C   UNL     1       1.226   9.030  19.543  0.00  0.00    +0.000 C 
BRANCH   5   6
ATOM      6  N   UNL     1       0.843  10.391  19.161  0.00  0.00    +0.000 NA
ATOM      7  H   UNL     1      -0.139  10.398  18.875  0.00  0.00    +0.000 HD
BRANCH   6   8
ATOM      8  C   UNL     1       1.029  11.461  20.182  0.00  0.00    +0.000 C 
BRANCH   8   9
ATOM      9  C   UNL     1      -0.279  11.628  20.978  0.00  0.00    +0.000 A 
ATOM     10  C   UNL     1      -1.338  12.414  20.486  0.00  0.00    +0.000 A 
ATOM     11  C   UNL     1      -2.468  12.695  21.270  0.00  0.00    +0.000 A 
ATOM     12  C   UNL     1      -2.559  12.196  22.569  0.00  0.00    +0.000 A 
ATOM     13  C   UNL     1      -1.547  11.398  23.072  0.00  0.00    +0.000 A 
ATOM     14  C   UNL     1      -0.424  11.099  22.281  0.00  0.00    +0.000 A 
ENDBRANCH   8   9
BRANCH   8  16
ATOM     15  C   UNL     1       2.411  12.568  18.243  0.00  0.00    +0.000 C 
ATOM     16  C   UNL     1       1.625  12.761  19.545  0.00  0.00    +0.000 C 
ATOM     17  C   UNL     1       2.443  13.602  20.528  0.00  0.00    +0.000 C 
ENDBRANCH   8  16
ENDBRANCH   6   8
ENDBRANCH   5   6
ENDBRANCH   2   5
ENDBRANCH   1   2
BRANCH   1  18
ATOM     18  O   UNL     1       3.334   6.347  17.805  0.00  0.00    +0.000 OA
BRANCH  18  19
ATOM     19  C   UNL     1       3.091   5.006  17.947  0.00  0.00    +0.000 A 
ATOM     20  C   UNL     1       1.789   4.470  17.900  0.00  0.00    +0.000 A 
ATOM     21  C   UNL     1       1.556   3.095  17.895  0.00  0.00    +0.000 A 
ATOM     22  C   UNL     1       2.620   2.220  17.996  0.00  0.00    +0.000 A 
ATOM     23  C   UNL     1       3.914   2.727  18.135  0.00  0.00    +0.000 A 
ATOM     24  C   UNL     1       4.176   4.117  18.126  0.00  0.00    +0.000 A 
BRANCH  24  25
ATOM     25  C   UNL     1       5.637   4.477  18.271  0.00  0.00    +0.000 C 
ATOM     26  O   UNL     1       6.005   4.958  19.347  0.00  0.00    +0.000 OA
BRANCH  25  27
ATOM     27  C   UNL     1       6.595   4.404  17.087  0.00  0.00    +0.000 C 
BRANCH  27  28
ATOM     28  C   UNL     1       6.207   5.389  15.957  0.00  0.00    +0.000 C 
BRANCH  28  29
ATOM     29  C   UNL     1       6.418   4.903  14.528  0.00  0.00    +0.000 A 
ATOM     30  C   UNL     1       7.496   5.402  13.773  0.00  0.00    +0.000 A 
ATOM     31  C   UNL     1       7.752   4.928  12.477  0.00  0.00    +0.000 A 
ATOM     32  C   UNL     1       6.938   3.945  11.920  0.00  0.00    +0.000 A 
ATOM     33  C   UNL     1       5.880   3.429  12.661  0.00  0.00    +0.000 A 
ATOM     34  C   UNL     1       5.628   3.897  13.957  0.00  0.00    +0.000 A 
ENDBRANCH  28  29
ENDBRANCH  27  28
ENDBRANCH  25  27
ENDBRANCH  24  25
ENDBRANCH  18  19
ENDBRANCH   1  18
TORSDOF 13
ENDMDL
MODEL 5
REMARK VINA RESULT:      -7.8      2.122      3.090
REMARK  Name = 
REMARK  15 active torsions:
REMARK  status: ('A' for Active; 'I' for Inactive)
REMARK    1  A    between atoms: C_1  and  C_2
REMARK    2  A    between atoms: C_2  and  C_3
REMARK    3  A    between atoms: C_2  and  C_4
REMARK    4  A    between atoms: C_4  and  N_5
REMARK    5  A    between atoms: C_4  and  C_27
REMARK    6  A    between atoms: N_5  and  C_6
REMARK    7  A    between atoms: C_6  and  C_7
REMARK    8  A    between atoms: C_7  and  O_8
REMARK    9  A    between atoms: C_7  and  C_9
REMARK   10  A    between atoms: C_9  and  O_10
REMARK   11  A    between atoms: O_10  and  C_11
REMARK   12  A    between atoms: C_16  and  C_17
REMARK   13  A    between atoms: C_17  and  C_19
REMARK   14  A    between atoms: C_19  and  C_20
REMARK   15  A    between atoms: C_20  and  C_21
REMARK                            x       y       z     vdW  Elec       q    Type
REMARK                         _______ _______ _______ _____ _____    ______ ____
ROOT
ATOM      1  C   UNL     1       2.762   7.042  18.628  0.00  0.00    +0.000 C 
ENDROOT
BRANCH   1   2
ATOM      2  C   UNL     1       2.138   8.241  17.889  0.00  0.00    +0.000 C 
BRANCH   2   3
ATOM      3  O   UNL     1       3.196   8.994  17.276  0.00  0.00    +0.000 OA
ATOM      4  H   UNL     1       4.010   8.832  17.784  0.00  0.00    +0.000 HD
ENDBRANCH   2   3
BRANCH   2   5
ATOM      5  C   UNL     1       1.333   9.128  18.886  0.00  0.00    +0.000 C 
BRANCH   5   6
ATOM      6  N   UNL     1       0.775  10.316  18.235  0.00  0.00    +0.000 NA
ATOM      7  H   UNL     1       0.339  10.044  17.351  0.00  0.00    +0.000 HD
BRANCH   6   8
ATOM      8  C   UNL     1      -0.221  11.111  19.011  0.00  0.00    +0.000 C 
BRANCH   8   9
ATOM      9  C   UNL     1      -1.589  11.021  18.311  0.00  0.00    +0.000 A 
ATOM     10  C   UNL     1      -2.719  11.682  18.828  0.00  0.00    +0.000 A 
ATOM     11  C   UNL     1      -3.998  11.482  18.285  0.00  0.00    +0.000 A 
ATOM     12  C   UNL     1      -4.173  10.610  17.211  0.00  0.00    +0.000 A 
ATOM     13  C   UNL     1      -3.078   9.966  16.662  0.00  0.00    +0.000 A 
ATOM     14  C   UNL     1      -1.793  10.181  17.192  0.00  0.00    +0.000 A 
ENDBRANCH   8   9
BRANCH   8  16
ATOM     15  C   UNL     1       0.124  13.045  20.753  0.00  0.00    +0.000 C 
ATOM     16  C   UNL     1       0.311  12.552  19.314  0.00  0.00    +0.000 C 
ATOM     17  C   UNL     1      -0.197  13.609  18.330  0.00  0.00    +0.000 C 
ENDBRANCH   8  16
ENDBRANCH   6   8
ENDBRANCH   5   6
ENDBRANCH   2   5
ENDBRANCH   1   2
BRANCH   1  18
ATOM     18  O   UNL     1       1.823   5.958  18.798  0.00  0.00    +0.000 OA
BRANCH  18  19
ATOM     19  C   UNL     1       2.162   4.869  19.556  0.00  0.00    +0.000 A 
ATOM     20  C   UNL     1       1.991   4.845  20.954  0.00  0.00    +0.000 A 
ATOM     21  C   UNL     1       2.196   3.687  21.705  0.00  0.00    +0.000 A 
ATOM     22  C   UNL     1       2.635   2.536  21.079  0.00  0.00    +0.000 A 
ATOM     23  C   UNL     1       2.899   2.558  19.708  0.00  0.00    +0.000 A 
ATOM     24  C   UNL     1       2.682   3.716  18.925  0.00  0.00    +0.000 A 
BRANCH  24  25
ATOM     25  C   UNL     1       3.008   3.546  17.459  0.00  0.00    +0.000 C 
ATOM     26  O   UNL     1       2.065   3.393  16.676  0.00  0.00    +0.000 OA
BRANCH  25  27
ATOM     27  C   UNL     1       4.446   3.403  16.975  0.00  0.00    +0.000 C 
BRANCH  27  28
ATOM     28  C   UNL     1       4.973   4.698  16.309  0.00  0.00    +0.000 C 
BRANCH  28  29
ATOM     29  C   UNL     1       6.067   5.451  17.057  0.00  0.00    +0.000 A 
ATOM     30  C   UNL     1       6.218   6.837  16.865  0.00  0.00    +0.000 A 
ATOM     31  C   UNL     1       7.177   7.567  17.584  0.00  0.00    +0.000 A 
ATOM     32  C   UNL     1       7.993   6.923  18.511  0.00  0.00    +0.000 A 
ATOM     33  C   UNL     1       7.844   5.557  18.725  0.00  0.00    +0.000 A 
ATOM     34  C   UNL     1       6.883   4.829  18.011  0.00  0.00    +0.000 A 
ENDBRANCH  28  29
ENDBRANCH  27  28
ENDBRANCH  25  27
ENDBRANCH  24  25
ENDBRANCH  18  19
ENDBRANCH   1  18
TORSDOF 13
ENDMDL
MODEL 6
REMARK VINA RESULT:      -7.8      1.869      3.729
REMARK  Name = 
REMARK  15 active torsions:
REMARK  status: ('A' for Active; 'I' for Inactive)
REMARK    1  A    between atoms: C_1  and  C_2
REMARK    2  A    between atoms: C_2  and  C_3
REMARK    3  A    between atoms: C_2  and  C_4
REMARK    4  A    between atoms: C_4  and  N_5
REMARK    5  A    between atoms: C_4  and  C_27
REMARK    6  A    between atoms: N_5  and  C_6
REMARK    7  A    between atoms: C_6  and  C_7
REMARK    8  A    between atoms: C_7  and  O_8
REMARK    9  A    between atoms: C_7  and  C_9
REMARK   10  A    between atoms: C_9  and  O_10
REMARK   11  A    between atoms: O_10  and  C_11
REMARK   12  A    between atoms: C_16  and  C_17
REMARK   13  A    between atoms: C_17  and  C_19
REMARK   14  A    between atoms: C_19  and  C_20
REMARK   15  A    between atoms: C_20  and  C_21
REMARK                            x       y       z     vdW  Elec       q    Type
REMARK                         _______ _______ _______ _____ _____    ______ ____
ROOT
ATOM      1  C   UNL     1      -0.023   8.763  21.715  0.00  0.00    +0.000 C 
ENDROOT
BRANCH   1   2
ATOM      2  C   UNL     1       0.352  10.059  22.459  0.00  0.00    +0.000 C 
BRANCH   2   3
ATOM      3  O   UNL     1       0.176   9.838  23.867  0.00  0.00    +0.000 OA
ATOM      4  H   UNL     1      -0.307   9.002  23.979  0.00  0.00    +0.000 HD
ENDBRANCH   2   3
BRANCH   2   5
ATOM      5  C   UNL     1      -0.539  11.239  21.967  0.00  0.00    +0.000 C 
BRANCH   5   6
ATOM      6  N   UNL     1      -1.303  10.886  20.768  0.00  0.00    +0.000 NA
ATOM      7  H   UNL     1      -2.098  10.300  21.033  0.00  0.00    +0.000 HD
BRANCH   6   8
ATOM      8  C   UNL     1      -1.820  12.010  19.936  0.00  0.00    +0.000 C 
BRANCH   8   9
ATOM      9  C   UNL     1      -2.330  11.449  18.596  0.00  0.00    +0.000 A 
ATOM     10  C   UNL     1      -3.619  11.755  18.119  0.00  0.00    +0.000 A 
ATOM     11  C   UNL     1      -4.147  11.129  16.979  0.00  0.00    +0.000 A 
ATOM     12  C   UNL     1      -3.393  10.177  16.292  0.00  0.00    +0.000 A 
ATOM     13  C   UNL     1      -2.112   9.875  16.719  0.00  0.00    +0.000 A 
ATOM     14  C   UNL     1      -1.574  10.516  17.849  0.00  0.00    +0.000 A 
ENDBRANCH   8   9
BRANCH   8  16
ATOM     15  C   UNL     1      -1.213  14.503  20.494  0.00  0.00    +0.000 C 
ATOM     16  C   UNL     1      -0.783  13.180  19.850  0.00  0.00    +0.000 C 
ATOM     17  C   UNL     1      -0.267  13.434  18.432  0.00  0.00    +0.000 C 
ENDBRANCH   8  16
ENDBRANCH   6   8
ENDBRANCH   5   6
ENDBRANCH   2   5
ENDBRANCH   1   2
BRANCH   1  18
ATOM     18  O   UNL     1       1.141   8.024  21.288  0.00  0.00    +0.000 OA
BRANCH  18  19
ATOM     19  C   UNL     1       1.581   8.123  19.995  0.00  0.00    +0.000 A 
ATOM     20  C   UNL     1       1.387   9.286  19.223  0.00  0.00    +0.000 A 
ATOM     21  C   UNL     1       1.963   9.441  17.962  0.00  0.00    +0.000 A 
ATOM     22  C   UNL     1       2.703   8.409  17.416  0.00  0.00    +0.000 A 
ATOM     23  C   UNL     1       2.834   7.211  18.122  0.00  0.00    +0.000 A 
ATOM     24  C   UNL     1       2.273   7.038  19.409  0.00  0.00    +0.000 A 
BRANCH  24  25
ATOM     25  C   UNL     1       2.533   5.682  20.025  0.00  0.00    +0.000 C 
ATOM     26  O   UNL     1       1.634   5.179  20.704  0.00  0.00    +0.000 OA
BRANCH  25  27
ATOM     27  C   UNL     1       3.908   5.026  19.951  0.00  0.00    +0.000 C 
BRANCH  27  28
ATOM     28  C   UNL     1       3.984   3.947  18.843  0.00  0.00    +0.000 C 
BRANCH  28  29
ATOM     29  C   UNL     1       5.025   4.166  17.751  0.00  0.00    +0.000 A 
ATOM     30  C   UNL     1       4.676   3.961  16.403  0.00  0.00    +0.000 A 
ATOM     31  C   UNL     1       5.595   4.212  15.372  0.00  0.00    +0.000 A 
ATOM     32  C   UNL     1       6.872   4.679  15.673  0.00  0.00    +0.000 A 
ATOM     33  C   UNL     1       7.225   4.904  17.000  0.00  0.00    +0.000 A 
ATOM     34  C   UNL     1       6.306   4.658  18.029  0.00  0.00    +0.000 A 
ENDBRANCH  28  29
ENDBRANCH  27  28
ENDBRANCH  25  27
ENDBRANCH  24  25
ENDBRANCH  18  19
ENDBRANCH   1  18
TORSDOF 13
ENDMDL
MODEL 7
REMARK VINA RESULT:      -7.7      2.040      2.979
REMARK  Name = 
REMARK  15 active torsions:
REMARK  status: ('A' for Active; 'I' for Inactive)
REMARK    1  A    between atoms: C_1  and  C_2
REMARK    2  A    between atoms: C_2  and  C_3
REMARK    3  A    between atoms: C_2  and  C_4
REMARK    4  A    between atoms: C_4  and  N_5
REMARK    5  A    between atoms: C_4  and  C_27
REMARK    6  A    between atoms: N_5  and  C_6
REMARK    7  A    between atoms: C_6  and  C_7
REMARK    8  A    between atoms: C_7  and  O_8
REMARK    9  A    between atoms: C_7  and  C_9
REMARK   10  A    between atoms: C_9  and  O_10
REMARK   11  A    between atoms: O_10  and  C_11
REMARK   12  A    between atoms: C_16  and  C_17
REMARK   13  A    between atoms: C_17  and  C_19
REMARK   14  A    between atoms: C_19  and  C_20
REMARK   15  A    between atoms: C_20  and  C_21
REMARK                            x       y       z     vdW  Elec       q    Type
REMARK                         _______ _______ _______ _____ _____    ______ ____
ROOT
ATOM      1  C   UNL     1       1.967   7.092  19.201  0.00  0.00    +0.000 C 
ENDROOT
BRANCH   1   2
ATOM      2  C   UNL     1       1.946   8.296  20.163  0.00  0.00    +0.000 C 
BRANCH   2   3
ATOM      3  O   UNL     1       1.268   7.900  21.365  0.00  0.00    +0.000 OA
ATOM      4  H   UNL     1       1.391   8.605  22.023  0.00  0.00    +0.000 HD
ENDBRANCH   2   3
BRANCH   2   5
ATOM      5  C   UNL     1       1.226   9.506  19.493  0.00  0.00    +0.000 C 
BRANCH   5   6
ATOM      6  N   UNL     1      -0.175   9.607  19.908  0.00  0.00    +0.000 NA
ATOM      7  H   UNL     1      -0.253   9.369  20.899  0.00  0.00    +0.000 HD
BRANCH   6   8
ATOM      8  C   UNL     1      -0.852  10.920  19.699  0.00  0.00    +0.000 C 
BRANCH   8   9
ATOM      9  C   UNL     1      -1.868  10.783  18.551  0.00  0.00    +0.000 A 
ATOM     10  C   UNL     1      -1.582  10.009  17.410  0.00  0.00    +0.000 A 
ATOM     11  C   UNL     1      -2.436  10.003  16.296  0.00  0.00    +0.000 A 
ATOM     12  C   UNL     1      -3.596  10.777  16.300  0.00  0.00    +0.000 A 
ATOM     13  C   UNL     1      -3.920  11.527  17.416  0.00  0.00    +0.000 A 
ATOM     14  C   UNL     1      -3.076  11.518  18.541  0.00  0.00    +0.000 A 
ENDBRANCH   8   9
BRANCH   8  16
ATOM     15  C   UNL     1       0.474  12.867  20.858  0.00  0.00    +0.000 C 
ATOM     16  C   UNL     1       0.188  12.084  19.572  0.00  0.00    +0.000 C 
ATOM     17  C   UNL     1      -0.119  13.052  18.427  0.00  0.00    +0.000 C 
ENDBRANCH   8  16
ENDBRANCH   6   8
ENDBRANCH   5   6
ENDBRANCH   2   5
ENDBRANCH   1   2
BRANCH   1  18
ATOM     18  O   UNL     1       2.927   6.091  19.604  0.00  0.00    +0.000 OA
BRANCH  18  19
ATOM     19  C   UNL     1       2.498   4.863  20.034  0.00  0.00    +0.000 A 
ATOM     20  C   UNL     1       2.487   4.507  21.397  0.00  0.00    +0.000 A 
ATOM     21  C   UNL     1       1.914   3.317  21.846  0.00  0.00    +0.000 A 
ATOM     22  C   UNL     1       1.387   2.424  20.932  0.00  0.00    +0.000 A 
ATOM     23  C   UNL     1       1.467   2.712  19.568  0.00  0.00    +0.000 A 
ATOM     24  C   UNL     1       2.029   3.920  19.091  0.00  0.00    +0.000 A 
BRANCH  24  25
ATOM     25  C   UNL     1       2.012   4.064  17.586  0.00  0.00    +0.000 C 
ATOM     26  O   UNL     1       0.932   4.320  17.047  0.00  0.00    +0.000 OA
BRANCH  25  27
ATOM     27  C   UNL     1       3.243   3.745  16.744  0.00  0.00    +0.000 C 
BRANCH  27  28
ATOM     28  C   UNL     1       4.467   3.367  17.613  0.00  0.00    +0.000 C 
BRANCH  28  29
ATOM     29  C   UNL     1       5.548   4.430  17.766  0.00  0.00    +0.000 A 
ATOM     30  C   UNL     1       5.927   5.206  16.655  0.00  0.00    +0.000 A 
ATOM     31  C   UNL     1       6.876   6.233  16.778  0.00  0.00    +0.000 A 
ATOM     32  C   UNL     1       7.453   6.504  18.016  0.00  0.00    +0.000 A 
ATOM     33  C   UNL     1       7.076   5.758  19.128  0.00  0.00    +0.000 A 
ATOM     34  C   UNL     1       6.125   4.736  19.005  0.00  0.00    +0.000 A 
ENDBRANCH  28  29
ENDBRANCH  27  28
ENDBRANCH  25  27
ENDBRANCH  24  25
ENDBRANCH  18  19
ENDBRANCH   1  18
TORSDOF 13
ENDMDL
MODEL 8
REMARK VINA RESULT:      -7.7      5.487      8.936
REMARK  Name = 
REMARK  15 active torsions:
REMARK  status: ('A' for Active; 'I' for Inactive)
REMARK    1  A    between atoms: C_1  and  C_2
REMARK    2  A    between atoms: C_2  and  C_3
REMARK    3  A    between atoms: C_2  and  C_4
REMARK    4  A    between atoms: C_4  and  N_5
REMARK    5  A    between atoms: C_4  and  C_27
REMARK    6  A    between atoms: N_5  and  C_6
REMARK    7  A    between atoms: C_6  and  C_7
REMARK    8  A    between atoms: C_7  and  O_8
REMARK    9  A    between atoms: C_7  and  C_9
REMARK   10  A    between atoms: C_9  and  O_10
REMARK   11  A    between atoms: O_10  and  C_11
REMARK   12  A    between atoms: C_16  and  C_17
REMARK   13  A    between atoms: C_17  and  C_19
REMARK   14  A    between atoms: C_19  and  C_20
REMARK   15  A    between atoms: C_20  and  C_21
REMARK                            x       y       z     vdW  Elec       q    Type
REMARK                         _______ _______ _______ _____ _____    ______ ____
ROOT
ATOM      1  C   UNL     1       6.952   7.923  17.471  0.00  0.00    +0.000 C 
ENDROOT
BRANCH   1   2
ATOM      2  C   UNL     1       8.364   8.295  17.964  0.00  0.00    +0.000 C 
BRANCH   2   3
ATOM      3  O   UNL     1       8.664   7.493  19.116  0.00  0.00    +0.000 OA
ATOM      4  H   UNL     1       9.050   8.075  19.793  0.00  0.00    +0.000 HD
ENDBRANCH   2   3
BRANCH   2   5
ATOM      5  C   UNL     1       8.429   9.813  18.312  0.00  0.00    +0.000 C 
BRANCH   5   6
ATOM      6  N   UNL     1       9.434  10.096  19.340  0.00  0.00    +0.000 NA
ATOM      7  H   UNL     1      10.149   9.365  19.325  0.00  0.00    +0.000 HD
BRANCH   6   8
ATOM      8  C   UNL     1      10.128  11.414  19.267  0.00  0.00    +0.000 C 
BRANCH   8   9
ATOM      9  C   UNL     1       9.800  12.224  20.534  0.00  0.00    +0.000 A 
ATOM     10  C   UNL     1       8.817  11.792  21.444  0.00  0.00    +0.000 A 
ATOM     11  C   UNL     1       8.406  12.598  22.517  0.00  0.00    +0.000 A 
ATOM     12  C   UNL     1       8.971  13.860  22.700  0.00  0.00    +0.000 A 
ATOM     13  C   UNL     1       9.960  14.302  21.840  0.00  0.00    +0.000 A 
ATOM     14  C   UNL     1      10.387  13.488  20.776  0.00  0.00    +0.000 A 
ENDBRANCH   8   9
BRANCH   8  16
ATOM     15  C   UNL     1      11.087  12.714  17.197  0.00  0.00    +0.000 C 
ATOM     16  C   UNL     1       9.858  12.125  17.898  0.00  0.00    +0.000 C 
ATOM     17  C   UNL     1       8.744  13.173  17.965  0.00  0.00    +0.000 C 
ENDBRANCH   8  16
ENDBRANCH   6   8
ENDBRANCH   5   6
ENDBRANCH   2   5
ENDBRANCH   1   2
BRANCH   1  18
ATOM     18  O   UNL     1       6.556   6.603  17.900  0.00  0.00    +0.000 OA
BRANCH  18  19
ATOM     19  C   UNL     1       6.228   5.649  16.973  0.00  0.00    +0.000 A 
ATOM     20  C   UNL     1       6.938   5.500  15.766  0.00  0.00    +0.000 A 
ATOM     21  C   UNL     1       6.699   4.438  14.894  0.00  0.00    +0.000 A 
ATOM     22  C   UNL     1       5.700   3.528  15.182  0.00  0.00    +0.000 A 
ATOM     23  C   UNL     1       4.920   3.705  16.327  0.00  0.00    +0.000 A 
ATOM     24  C   UNL     1       5.156   4.765  17.234  0.00  0.00    +0.000 A 
BRANCH  24  25
ATOM     25  C   UNL     1       4.224   4.785  18.424  0.00  0.00    +0.000 C 
ATOM     26  O   UNL     1       4.530   4.099  19.403  0.00  0.00    +0.000 OA
BRANCH  25  27
ATOM     27  C   UNL     1       2.874   5.492  18.365  0.00  0.00    +0.000 C 
BRANCH  27  28
ATOM     28  C   UNL     1       3.005   6.970  17.922  0.00  0.00    +0.000 C 
BRANCH  28  29
ATOM     29  C   UNL     1       2.184   7.990  18.702  0.00  0.00    +0.000 A 
ATOM     30  C   UNL     1       1.651   9.111  18.040  0.00  0.00    +0.000 A 
ATOM     31  C   UNL     1       0.840  10.035  18.718  0.00  0.00    +0.000 A 
ATOM     32  C   UNL     1       0.544   9.845  20.066  0.00  0.00    +0.000 A 
ATOM     33  C   UNL     1       1.048   8.732  20.730  0.00  0.00    +0.000 A 
ATOM     34  C   UNL     1       1.854   7.808  20.051  0.00  0.00    +0.000 A 
ENDBRANCH  28  29
ENDBRANCH  27  28
ENDBRANCH  25  27
ENDBRANCH  24  25
ENDBRANCH  18  19
ENDBRANCH   1  18
TORSDOF 13
ENDMDL
MODEL 9
REMARK VINA RESULT:      -7.7      1.311      1.665
REMARK  Name = 
REMARK  15 active torsions:
REMARK  status: ('A' for Active; 'I' for Inactive)
REMARK    1  A    between atoms: C_1  and  C_2
REMARK    2  A    between atoms: C_2  and  C_3
REMARK    3  A    between atoms: C_2  and  C_4
REMARK    4  A    between atoms: C_4  and  N_5
REMARK    5  A    between atoms: C_4  and  C_27
REMARK    6  A    between atoms: N_5  and  C_6
REMARK    7  A    between atoms: C_6  and  C_7
REMARK    8  A    between atoms: C_7  and  O_8
REMARK    9  A    between atoms: C_7  and  C_9
REMARK   10  A    between atoms: C_9  and  O_10
REMARK   11  A    between atoms: O_10  and  C_11
REMARK   12  A    between atoms: C_16  and  C_17
REMARK   13  A    between atoms: C_17  and  C_19
REMARK   14  A    between atoms: C_19  and  C_20
REMARK   15  A    between atoms: C_20  and  C_21
REMARK                            x       y       z     vdW  Elec       q    Type
REMARK                         _______ _______ _______ _____ _____    ______ ____
ROOT
ATOM      1  C   UNL     1       2.358   7.513  19.345  0.00  0.00    +0.000 C 
ENDROOT
BRANCH   1   2
ATOM      2  C   UNL     1       1.679   8.423  18.303  0.00  0.00    +0.000 C 
BRANCH   2   3
ATOM      3  O   UNL     1       2.509   8.467  17.133  0.00  0.00    +0.000 OA
ATOM      4  H   UNL     1       2.659   9.401  16.908  0.00  0.00    +0.000 HD
ENDBRANCH   2   3
BRANCH   2   5
ATOM      5  C   UNL     1       1.474   9.852  18.891  0.00  0.00    +0.000 C 
BRANCH   5   6
ATOM      6  N   UNL     1       0.442  10.600  18.167  0.00  0.00    +0.000 NA
ATOM      7  H   UNL     1       0.215  10.108  17.300  0.00  0.00    +0.000 HD
BRANCH   6   8
ATOM      8  C   UNL     1      -0.835  10.868  18.889  0.00  0.00    +0.000 C 
BRANCH   8   9
ATOM      9  C   UNL     1      -2.008  10.729  17.902  0.00  0.00    +0.000 A 
ATOM     10  C   UNL     1      -1.919   9.891  16.774  0.00  0.00    +0.000 A 
ATOM     11  C   UNL     1      -2.921   9.877  15.791  0.00  0.00    +0.000 A 
ATOM     12  C   UNL     1      -4.035  10.706  15.916  0.00  0.00    +0.000 A 
ATOM     13  C   UNL     1      -4.166  11.520  17.027  0.00  0.00    +0.000 A 
ATOM     14  C   UNL     1      -3.173  11.521  18.022  0.00  0.00    +0.000 A 
ENDBRANCH   8   9
BRANCH   8  16
ATOM     15  C   UNL     1      -1.921  12.464  20.668  0.00  0.00    +0.000 C 
ATOM     16  C   UNL     1      -0.763  12.206  19.699  0.00  0.00    +0.000 C 
ATOM     17  C   UNL     1      -0.532  13.438  18.821  0.00  0.00    +0.000 C 
ENDBRANCH   8  16
ENDBRANCH   6   8
ENDBRANCH   5   6
ENDBRANCH   2   5
ENDBRANCH   1   2
BRANCH   1  18
ATOM     18  O   UNL     1       2.817   6.272  18.766  0.00  0.00    +0.000 OA
BRANCH  18  19
ATOM     19  C   UNL     1       2.552   5.084  19.392  0.00  0.00    +0.000 A 
ATOM     20  C   UNL     1       2.101   5.022  20.726  0.00  0.00    +0.000 A 
ATOM     21  C   UNL     1       1.691   3.825  21.313  0.00  0.00    +0.000 A 
ATOM     22  C   UNL     1       1.777   2.646  20.596  0.00  0.00    +0.000 A 
ATOM     23  C   UNL     1       2.305   2.667  19.304  0.00  0.00    +0.000 A 
ATOM     24  C   UNL     1       2.712   3.871  18.682  0.00  0.00    +0.000 A 
BRANCH  24  25
ATOM     25  C   UNL     1       3.242   3.699  17.277  0.00  0.00    +0.000 C 
ATOM     26  O   UNL     1       2.443   3.352  16.402  0.00  0.00    +0.000 OA
BRANCH  25  27
ATOM     27  C   UNL     1       4.733   3.788  16.973  0.00  0.00    +0.000 C 
BRANCH  27  28
ATOM     28  C   UNL     1       5.071   4.974  16.037  0.00  0.00    +0.000 C 
BRANCH  28  29
ATOM     29  C   UNL     1       5.798   4.633  14.742  0.00  0.00    +0.000 A 
ATOM     30  C   UNL     1       5.195   3.770  13.809  0.00  0.00    +0.000 A 
ATOM     31  C   UNL     1       5.812   3.485  12.581  0.00  0.00    +0.000 A 
ATOM     32  C   UNL     1       7.038   4.066  12.265  0.00  0.00    +0.000 A 
ATOM     33  C   UNL     1       7.638   4.936  13.170  0.00  0.00    +0.000 A 
ATOM     34  C   UNL     1       7.019   5.224  14.393  0.00  0.00    +0.000 A 
ENDBRANCH  28  29
ENDBRANCH  27  28
ENDBRANCH  25  27
ENDBRANCH  24  25
ENDBRANCH  18  19
ENDBRANCH   1  18
TORSDOF 13
ENDMDL
