MODEL 1
REMARK VINA RESULT:      -8.1      0.000      0.000
REMARK  Name = 
REMARK  6 active torsions:
REMARK  status: ('A' for Active; 'I' for Inactive)
REMARK    1  A    between atoms: C_4  and  C_5
REMARK    2  A    between atoms: C_8  and  N_9
REMARK    3  A    between atoms: N_10  and  C_11
REMARK    4  A    between atoms: C_14  and  N_15
REMARK    5  A    between atoms: C_27  and  C_28
REMARK    6  A    between atoms: C_33  and  N_34
REMARK                            x       y       z     vdW  Elec       q    Type
REMARK                         _______ _______ _______ _____ _____    ______ ____
ROOT
ATOM      1  C   UNL     1       1.315   9.021  19.714  0.00  0.00    +0.000 A 
ATOM      2  C   UNL     1       0.711  10.055  18.992  0.00  0.00    +0.000 A 
ATOM      3  C   UNL     1      -0.052  11.017  19.662  0.00  0.00    +0.000 A 
ATOM      4  C   UNL     1      -0.238  10.963  21.049  0.00  0.00    +0.000 A 
ATOM      5  C   UNL     1       0.369   9.915  21.760  0.00  0.00    +0.000 A 
ATOM      6  C   UNL     1       1.134   8.946  21.100  0.00  0.00    +0.000 A 
ENDROOT
BRANCH   1  10
ATOM      7  O   UNL     1       4.173   7.402  16.419  0.00  0.00    +0.000 OA
ATOM      8  C   UNL     1       3.520   7.432  17.441  0.00  0.00    +0.000 C 
ATOM      9  O   UNL     1       2.703   8.433  17.864  0.00  0.00    +0.000 OA
ATOM     10  C   UNL     1       2.194   8.042  19.056  0.00  0.00    +0.000 C 
ATOM     11  N   UNL     1       2.549   6.885  19.515  0.00  0.00    +0.000 NA
ATOM     12  C   UNL     1       3.407   6.426  18.538  0.00  0.00    +0.000 C 
ATOM     13  C   UNL     1       4.073   5.263  18.595  0.00  0.00    +0.000 C 
BRANCH  13  14
ATOM     14  C   UNL     1       5.130   4.825  17.663  0.00  0.00    +0.000 A 
ATOM     15  C   UNL     1       4.657   4.091  16.553  0.00  0.00    +0.000 A 
ATOM     16  C   UNL     1       5.524   3.628  15.561  0.00  0.00    +0.000 A 
ATOM     17  C   UNL     1       6.885   3.890  15.648  0.00  0.00    +0.000 A 
ATOM     18  C   UNL     1       7.384   4.603  16.737  0.00  0.00    +0.000 A 
ATOM     19  C   UNL     1       6.519   5.065  17.752  0.00  0.00    +0.000 A 
BRANCH  19  20
ATOM     20  N   UNL     1       7.139   5.791  18.876  0.00  0.00    +0.000 N 
ATOM     21  O   UNL     1       7.776   6.824  18.633  0.00  0.00    +0.000 OA
ATOM     22  O   UNL     1       6.991   5.327  20.018  0.00  0.00    +0.000 OA
ENDBRANCH  19  20
ENDBRANCH  13  14
ENDBRANCH   1  10
BRANCH   4  23
ATOM     23  N   UNL     1      -1.004  11.987  21.644  0.00  0.00    +0.000 NA
ATOM     24  N   UNL     1      -2.081  11.567  22.113  0.00  0.00    +0.000 NA
BRANCH  24  25
ATOM     25  C   UNL     1      -2.905  12.602  22.602  0.00  0.00    +0.000 A 
ATOM     26  C   UNL     1      -3.243  13.628  21.721  0.00  0.00    +0.000 A 
ATOM     27  C   UNL     1      -4.065  14.688  22.127  0.00  0.00    +0.000 A 
ATOM     28  C   UNL     1      -4.592  14.766  23.423  0.00  0.00    +0.000 A 
ATOM     29  C   UNL     1      -4.245  13.727  24.298  0.00  0.00    +0.000 A 
ATOM     30  C   UNL     1      -3.425  12.660  23.897  0.00  0.00    +0.000 A 
BRANCH  28  31
ATOM     31  N   UNL     1      -5.361  15.841  23.813  0.00  0.00    +0.000 N 
ATOM     32  C   UNL     1      -6.799  15.933  23.501  0.00  0.00    +0.000 C 
ATOM     33  C   UNL     1      -7.146  17.384  23.126  0.00  0.00    +0.000 C 
ATOM     34  O   UNL     1      -6.735  18.315  24.143  0.00  0.00    +0.000 OA
ATOM     35  C   UNL     1      -5.319  18.211  24.373  0.00  0.00    +0.000 C 
ATOM     36  C   UNL     1      -4.930  16.798  24.841  0.00  0.00    +0.000 C 
ENDBRANCH  28  31
ENDBRANCH  24  25
ENDBRANCH   4  23
TORSDOF 6
ENDMDL
MODEL 2
REMARK VINA RESULT:      -7.9      0.676      1.196
REMARK  Name = 
REMARK  6 active torsions:
REMARK  status: ('A' for Active; 'I' for Inactive)
REMARK    1  A    between atoms: C_4  and  C_5
REMARK    2  A    between atoms: C_8  and  N_9
REMARK    3  A    between atoms: N_10  and  C_11
REMARK    4  A    between atoms: C_14  and  N_15
REMARK    5  A    between atoms: C_27  and  C_28
REMARK    6  A    between atoms: C_33  and  N_34
REMARK                            x       y       z     vdW  Elec       q    Type
REMARK                         _______ _______ _______ _____ _____    ______ ____
ROOT
ATOM      1  C   UNL     1       1.284   9.112  19.730  0.00  0.00    +0.000 A 
ATOM      2  C   UNL     1       0.979   8.988  21.089  0.00  0.00    +0.000 A 
ATOM      3  C   UNL     1       0.099   9.893  21.690  0.00  0.00    +0.000 A 
ATOM      4  C   UNL     1      -0.482  10.937  20.961  0.00  0.00    +0.000 A 
ATOM      5  C   UNL     1      -0.162  11.053  19.598  0.00  0.00    +0.000 A 
ATOM      6  C   UNL     1       0.719  10.155  18.987  0.00  0.00    +0.000 A 
ENDROOT
BRANCH   1  10
ATOM      7  O   UNL     1       4.060   7.490  16.368  0.00  0.00    +0.000 OA
ATOM      8  C   UNL     1       3.427   7.518  17.401  0.00  0.00    +0.000 C 
ATOM      9  O   UNL     1       2.631   8.525  17.849  0.00  0.00    +0.000 OA
ATOM     10  C   UNL     1       2.138   8.129  19.046  0.00  0.00    +0.000 C 
ATOM     11  N   UNL     1       2.488   6.963  19.488  0.00  0.00    +0.000 NA
ATOM     12  C   UNL     1       3.322   6.503  18.491  0.00  0.00    +0.000 C 
ATOM     13  C   UNL     1       3.975   5.332  18.526  0.00  0.00    +0.000 C 
BRANCH  13  14
ATOM     14  C   UNL     1       5.009   4.890  17.570  0.00  0.00    +0.000 A 
ATOM     15  C   UNL     1       4.507   4.181  16.458  0.00  0.00    +0.000 A 
ATOM     16  C   UNL     1       5.349   3.718  15.444  0.00  0.00    +0.000 A 
ATOM     17  C   UNL     1       6.715   3.956  15.513  0.00  0.00    +0.000 A 
ATOM     18  C   UNL     1       7.244   4.644  16.604  0.00  0.00    +0.000 A 
ATOM     19  C   UNL     1       6.403   5.106  17.639  0.00  0.00    +0.000 A 
BRANCH  19  20
ATOM     20  N   UNL     1       7.054   5.805  18.764  0.00  0.00    +0.000 N 
ATOM     21  O   UNL     1       6.932   5.334  19.902  0.00  0.00    +0.000 OA
ATOM     22  O   UNL     1       7.694   6.838  18.511  0.00  0.00    +0.000 OA
ENDBRANCH  19  20
ENDBRANCH  13  14
ENDBRANCH   1  10
BRANCH   4  23
ATOM     23  N   UNL     1      -1.376  11.789  21.642  0.00  0.00    +0.000 NA
ATOM     24  N   UNL     1      -2.294  12.206  20.907  0.00  0.00    +0.000 NA
BRANCH  24  25
ATOM     25  C   UNL     1      -3.121  13.152  21.547  0.00  0.00    +0.000 A 
ATOM     26  C   UNL     1      -2.531  14.339  21.977  0.00  0.00    +0.000 A 
ATOM     27  C   UNL     1      -3.286  15.333  22.614  0.00  0.00    +0.000 A 
ATOM     28  C   UNL     1      -4.662  15.190  22.841  0.00  0.00    +0.000 A 
ATOM     29  C   UNL     1      -5.243  13.991  22.404  0.00  0.00    +0.000 A 
ATOM     30  C   UNL     1      -4.492  12.992  21.762  0.00  0.00    +0.000 A 
BRANCH  28  31
ATOM     31  N   UNL     1      -5.375  16.161  23.510  0.00  0.00    +0.000 N 
ATOM     32  C   UNL     1      -6.792  16.440  23.212  0.00  0.00    +0.000 C 
ATOM     33  C   UNL     1      -7.032  17.959  23.263  0.00  0.00    +0.000 C 
ATOM     34  O   UNL     1      -6.601  18.530  24.512  0.00  0.00    +0.000 OA
ATOM     35  C   UNL     1      -5.204  18.264  24.726  0.00  0.00    +0.000 C 
ATOM     36  C   UNL     1      -4.922  16.753  24.776  0.00  0.00    +0.000 C 
ENDBRANCH  28  31
ENDBRANCH  24  25
ENDBRANCH   4  23
TORSDOF 6
ENDMDL
MODEL 3
REMARK VINA RESULT:      -7.6      1.140      1.284
REMARK  Name = 
REMARK  6 active torsions:
REMARK  status: ('A' for Active; 'I' for Inactive)
REMARK    1  A    between atoms: C_4  and  C_5
REMARK    2  A    between atoms: C_8  and  N_9
REMARK    3  A    between atoms: N_10  and  C_11
REMARK    4  A    between atoms: C_14  and  N_15
REMARK    5  A    between atoms: C_27  and  C_28
REMARK    6  A    between atoms: C_33  and  N_34
REMARK                            x       y       z     vdW  Elec       q    Type
REMARK                         _______ _______ _______ _____ _____    ______ ____
ROOT
ATOM      1  C   UNL     1       1.342   8.780  19.568  0.00  0.00    +0.000 A 
ATOM      2  C   UNL     1       0.683   9.828  18.918  0.00  0.00    +0.000 A 
ATOM      3  C   UNL     1      -0.251  10.602  19.614  0.00  0.00    +0.000 A 
ATOM      4  C   UNL     1      -0.554  10.343  20.957  0.00  0.00    +0.000 A 
ATOM      5  C   UNL     1       0.111   9.283  21.595  0.00  0.00    +0.000 A 
ATOM      6  C   UNL     1       1.046   8.501  20.907  0.00  0.00    +0.000 A 
ENDROOT
BRANCH   1  10
ATOM      7  O   UNL     1       3.798   4.979  18.490  0.00  0.00    +0.000 OA
ATOM      8  C   UNL     1       3.437   6.136  18.483  0.00  0.00    +0.000 C 
ATOM      9  O   UNL     1       2.455   6.695  19.240  0.00  0.00    +0.000 OA
ATOM     10  C   UNL     1       2.391   8.001  18.892  0.00  0.00    +0.000 C 
ATOM     11  N   UNL     1       3.213   8.427  17.987  0.00  0.00    +0.000 NA
ATOM     12  C   UNL     1       3.921   7.288  17.666  0.00  0.00    +0.000 C 
ATOM     13  C   UNL     1       4.873   7.225  16.723  0.00  0.00    +0.000 C 
BRANCH  13  14
ATOM     14  C   UNL     1       5.520   5.993  16.230  0.00  0.00    +0.000 A 
ATOM     15  C   UNL     1       4.984   5.501  15.021  0.00  0.00    +0.000 A 
ATOM     16  C   UNL     1       5.501   4.360  14.402  0.00  0.00    +0.000 A 
ATOM     17  C   UNL     1       6.572   3.685  14.974  0.00  0.00    +0.000 A 
ATOM     18  C   UNL     1       7.117   4.141  16.173  0.00  0.00    +0.000 A 
ATOM     19  C   UNL     1       6.594   5.285  16.812  0.00  0.00    +0.000 A 
BRANCH  19  20
ATOM     20  N   UNL     1       7.220   5.681  18.088  0.00  0.00    +0.000 N 
ATOM     21  O   UNL     1       7.904   6.712  18.116  0.00  0.00    +0.000 OA
ATOM     22  O   UNL     1       7.029   4.955  19.077  0.00  0.00    +0.000 OA
ENDBRANCH  19  20
ENDBRANCH  13  14
ENDBRANCH   1  10
BRANCH   4  23
ATOM     23  N   UNL     1      -1.492  11.187  21.587  0.00  0.00    +0.000 NA
ATOM     24  N   UNL     1      -1.400  12.372  21.208  0.00  0.00    +0.000 NA
BRANCH  24  25
ATOM     25  C   UNL     1      -2.251  13.242  21.919  0.00  0.00    +0.000 A 
ATOM     26  C   UNL     1      -2.658  14.412  21.279  0.00  0.00    +0.000 A 
ATOM     27  C   UNL     1      -3.510  15.325  21.915  0.00  0.00    +0.000 A 
ATOM     28  C   UNL     1      -3.999  15.107  23.210  0.00  0.00    +0.000 A 
ATOM     29  C   UNL     1      -3.583  13.927  23.842  0.00  0.00    +0.000 A 
ATOM     30  C   UNL     1      -2.732  13.006  23.210  0.00  0.00    +0.000 A 
BRANCH  28  31
ATOM     31  N   UNL     1      -4.800  16.041  23.833  0.00  0.00    +0.000 N 
ATOM     32  C   UNL     1      -6.250  16.123  23.583  0.00  0.00    +0.000 C 
ATOM     33  C   UNL     1      -6.672  17.602  23.524  0.00  0.00    +0.000 C 
ATOM     34  O   UNL     1      -6.266  18.325  24.701  0.00  0.00    +0.000 OA
ATOM     35  C   UNL     1      -4.840  18.245  24.868  0.00  0.00    +0.000 C 
ATOM     36  C   UNL     1      -4.374  16.788  25.025  0.00  0.00    +0.000 C 
ENDBRANCH  28  31
ENDBRANCH  24  25
ENDBRANCH   4  23
TORSDOF 6
ENDMDL
MODEL 4
REMARK VINA RESULT:      -7.4      1.290      1.650
REMARK  Name = 
REMARK  6 active torsions:
REMARK  status: ('A' for Active; 'I' for Inactive)
REMARK    1  A    between atoms: C_4  and  C_5
REMARK    2  A    between atoms: C_8  and  N_9
REMARK    3  A    between atoms: N_10  and  C_11
REMARK    4  A    between atoms: C_14  and  N_15
REMARK    5  A    between atoms: C_27  and  C_28
REMARK    6  A    between atoms: C_33  and  N_34
REMARK                            x       y       z     vdW  Elec       q    Type
REMARK                         _______ _______ _______ _____ _____    ______ ____
ROOT
ATOM      1  C   UNL     1       1.366   8.725  19.430  0.00  0.00    +0.000 A 
ATOM      2  C   UNL     1       0.733   9.780  18.765  0.00  0.00    +0.000 A 
ATOM      3  C   UNL     1      -0.128  10.629  19.468  0.00  0.00    +0.000 A 
ATOM      4  C   UNL     1      -0.383  10.441  20.832  0.00  0.00    +0.000 A 
ATOM      5  C   UNL     1       0.255   9.374  21.485  0.00  0.00    +0.000 A 
ATOM      6  C   UNL     1       1.117   8.516  20.791  0.00  0.00    +0.000 A 
ENDROOT
BRANCH   1  10
ATOM      7  O   UNL     1       3.029   4.779  17.613  0.00  0.00    +0.000 OA
ATOM      8  C   UNL     1       2.977   5.947  17.932  0.00  0.00    +0.000 C 
ATOM      9  O   UNL     1       1.987   6.563  18.631  0.00  0.00    +0.000 OA
ATOM     10  C   UNL     1       2.342   7.865  18.743  0.00  0.00    +0.000 C 
ATOM     11  N   UNL     1       3.464   8.234  18.213  0.00  0.00    +0.000 NA
ATOM     12  C   UNL     1       3.936   7.060  17.664  0.00  0.00    +0.000 C 
ATOM     13  C   UNL     1       5.071   6.952  16.957  0.00  0.00    +0.000 C 
BRANCH  13  14
ATOM     14  C   UNL     1       5.513   5.760  16.207  0.00  0.00    +0.000 A 
ATOM     15  C   UNL     1       5.121   5.750  14.851  0.00  0.00    +0.000 A 
ATOM     16  C   UNL     1       5.483   4.708  13.994  0.00  0.00    +0.000 A 
ATOM     17  C   UNL     1       6.250   3.652  14.468  0.00  0.00    +0.000 A 
ATOM     18  C   UNL     1       6.643   3.628  15.805  0.00  0.00    +0.000 A 
ATOM     19  C   UNL     1       6.273   4.669  16.683  0.00  0.00    +0.000 A 
BRANCH  19  20
ATOM     20  N   UNL     1       6.716   4.549  18.085  0.00  0.00    +0.000 N 
ATOM     21  O   UNL     1       5.910   4.130  18.925  0.00  0.00    +0.000 OA
ATOM     22  O   UNL     1       7.883   4.876  18.354  0.00  0.00    +0.000 OA
ENDBRANCH  19  20
ENDBRANCH  13  14
ENDBRANCH   1  10
BRANCH   4  23
ATOM     23  N   UNL     1      -1.246  11.358  21.466  0.00  0.00    +0.000 NA
ATOM     24  N   UNL     1      -1.686  12.221  20.680  0.00  0.00    +0.000 NA
BRANCH  24  25
ATOM     25  C   UNL     1      -2.453  13.211  21.329  0.00  0.00    +0.000 A 
ATOM     26  C   UNL     1      -3.536  12.787  22.098  0.00  0.00    +0.000 A 
ATOM     27  C   UNL     1      -4.342  13.708  22.780  0.00  0.00    +0.000 A 
ATOM     28  C   UNL     1      -4.099  15.087  22.733  0.00  0.00    +0.000 A 
ATOM     29  C   UNL     1      -3.007  15.500  21.957  0.00  0.00    +0.000 A 
ATOM     30  C   UNL     1      -2.193  14.583  21.273  0.00  0.00    +0.000 A 
BRANCH  28  31
ATOM     31  N   UNL     1      -4.933  15.977  23.377  0.00  0.00    +0.000 N 
ATOM     32  C   UNL     1      -6.400  15.905  23.259  0.00  0.00    +0.000 C 
ATOM     33  C   UNL     1      -6.973  17.329  23.160  0.00  0.00    +0.000 C 
ATOM     34  O   UNL     1      -6.541  18.160  24.253  0.00  0.00    +0.000 OA
ATOM     35  C   UNL     1      -5.105  18.228  24.290  0.00  0.00    +0.000 C 
ATOM     36  C   UNL     1      -4.482  16.835  24.481  0.00  0.00    +0.000 C 
ENDBRANCH  28  31
ENDBRANCH  24  25
ENDBRANCH   4  23
TORSDOF 6
ENDMDL
MODEL 5
REMARK VINA RESULT:      -7.4      0.843      1.458
REMARK  Name = 
REMARK  6 active torsions:
REMARK  status: ('A' for Active; 'I' for Inactive)
REMARK    1  A    between atoms: C_4  and  C_5
REMARK    2  A    between atoms: C_8  and  N_9
REMARK    3  A    between atoms: N_10  and  C_11
REMARK    4  A    between atoms: C_14  and  N_15
REMARK    5  A    between atoms: C_27  and  C_28
REMARK    6  A    between atoms: C_33  and  N_34
REMARK                            x       y       z     vdW  Elec       q    Type
REMARK                         _______ _______ _______ _____ _____    ______ ____
ROOT
ATOM      1  C   UNL     1       1.212   9.274  19.229  0.00  0.00    +0.000 A 
ATOM      2  C   UNL     1       1.142   9.480  20.610  0.00  0.00    +0.000 A 
ATOM      3  C   UNL     1       0.217  10.390  21.132  0.00  0.00    +0.000 A 
ATOM      4  C   UNL     1      -0.642  11.115  20.297  0.00  0.00    +0.000 A 
ATOM      5  C   UNL     1      -0.557  10.902  18.911  0.00  0.00    +0.000 A 
ATOM      6  C   UNL     1       0.367   9.996  18.378  0.00  0.00    +0.000 A 
ENDROOT
BRANCH   1  10
ATOM      7  O   UNL     1       4.140   7.471  16.095  0.00  0.00    +0.000 OA
ATOM      8  C   UNL     1       3.472   7.562  17.103  0.00  0.00    +0.000 C 
ATOM      9  O   UNL     1       2.636   8.579  17.444  0.00  0.00    +0.000 OA
ATOM     10  C   UNL     1       2.113   8.264  18.652  0.00  0.00    +0.000 C 
ATOM     11  N   UNL     1       2.476   7.147  19.195  0.00  0.00    +0.000 NA
ATOM     12  C   UNL     1       3.355   6.633  18.265  0.00  0.00    +0.000 C 
ATOM     13  C   UNL     1       4.035   5.486  18.413  0.00  0.00    +0.000 C 
BRANCH  13  14
ATOM     14  C   UNL     1       5.111   5.000  17.528  0.00  0.00    +0.000 A 
ATOM     15  C   UNL     1       4.655   4.305  16.387  0.00  0.00    +0.000 A 
ATOM     16  C   UNL     1       5.543   3.804  15.432  0.00  0.00    +0.000 A 
ATOM     17  C   UNL     1       6.911   3.989  15.591  0.00  0.00    +0.000 A 
ATOM     18  C   UNL     1       7.393   4.662  16.712  0.00  0.00    +0.000 A 
ATOM     19  C   UNL     1       6.505   5.161  17.689  0.00  0.00    +0.000 A 
BRANCH  19  20
ATOM     20  N   UNL     1       7.107   5.840  18.852  0.00  0.00    +0.000 N 
ATOM     21  O   UNL     1       7.771   6.866  18.659  0.00  0.00    +0.000 OA
ATOM     22  O   UNL     1       6.916   5.344  19.974  0.00  0.00    +0.000 OA
ENDBRANCH  19  20
ENDBRANCH  13  14
ENDBRANCH   1  10
BRANCH   4  23
ATOM     23  N   UNL     1      -1.559  11.994  20.910  0.00  0.00    +0.000 NA
ATOM     24  N   UNL     1      -1.313  13.191  20.661  0.00  0.00    +0.000 NA
BRANCH  24  25
ATOM     25  C   UNL     1      -2.150  14.080  21.366  0.00  0.00    +0.000 A 
ATOM     26  C   UNL     1      -2.883  13.565  22.435  0.00  0.00    +0.000 A 
ATOM     27  C   UNL     1      -3.731  14.385  23.191  0.00  0.00    +0.000 A 
ATOM     28  C   UNL     1      -3.879  15.752  22.921  0.00  0.00    +0.000 A 
ATOM     29  C   UNL     1      -3.136  16.257  21.845  0.00  0.00    +0.000 A 
ATOM     30  C   UNL     1      -2.281  15.442  21.084  0.00  0.00    +0.000 A 
BRANCH  28  31
ATOM     31  N   UNL     1      -4.753  16.530  23.650  0.00  0.00    +0.000 N 
ATOM     32  C   UNL     1      -6.174  16.667  23.285  0.00  0.00    +0.000 C 
ATOM     33  C   UNL     1      -6.616  18.124  23.507  0.00  0.00    +0.000 C 
ATOM     34  O   UNL     1      -6.339  18.573  24.846  0.00  0.00    +0.000 OA
ATOM     35  C   UNL     1      -4.934  18.456  25.130  0.00  0.00    +0.000 C 
ATOM     36  C   UNL     1      -4.457  16.999  25.012  0.00  0.00    +0.000 C 
ENDBRANCH  28  31
ENDBRANCH  24  25
ENDBRANCH   4  23
TORSDOF 6
ENDMDL
MODEL 6
REMARK VINA RESULT:      -7.4      1.459      1.752
REMARK  Name = 
REMARK  6 active torsions:
REMARK  status: ('A' for Active; 'I' for Inactive)
REMARK    1  A    between atoms: C_4  and  C_5
REMARK    2  A    between atoms: C_8  and  N_9
REMARK    3  A    between atoms: N_10  and  C_11
REMARK    4  A    between atoms: C_14  and  N_15
REMARK    5  A    between atoms: C_27  and  C_28
REMARK    6  A    between atoms: C_33  and  N_34
REMARK                            x       y       z     vdW  Elec       q    Type
REMARK                         _______ _______ _______ _____ _____    ______ ____
ROOT
ATOM      1  C   UNL     1       1.084   9.092  19.094  0.00  0.00    +0.000 A 
ATOM      2  C   UNL     1       0.423  10.009  18.270  0.00  0.00    +0.000 A 
ATOM      3  C   UNL     1      -0.569  10.836  18.806  0.00  0.00    +0.000 A 
ATOM      4  C   UNL     1      -0.929  10.761  20.157  0.00  0.00    +0.000 A 
ATOM      5  C   UNL     1      -0.261   9.831  20.971  0.00  0.00    +0.000 A 
ATOM      6  C   UNL     1       0.732   8.996  20.445  0.00  0.00    +0.000 A 
ENDROOT
BRANCH   1  10
ATOM      7  O   UNL     1       3.546   5.198  18.449  0.00  0.00    +0.000 OA
ATOM      8  C   UNL     1       3.225   6.363  18.366  0.00  0.00    +0.000 C 
ATOM      9  O   UNL     1       2.168   6.969  18.970  0.00  0.00    +0.000 OA
ATOM     10  C   UNL     1       2.190   8.266  18.585  0.00  0.00    +0.000 C 
ATOM     11  N   UNL     1       3.138   8.645  17.788  0.00  0.00    +0.000 NA
ATOM     12  C   UNL     1       3.848   7.479  17.593  0.00  0.00    +0.000 C 
ATOM     13  C   UNL     1       4.915   7.363  16.789  0.00  0.00    +0.000 C 
BRANCH  13  14
ATOM     14  C   UNL     1       5.585   6.102  16.417  0.00  0.00    +0.000 A 
ATOM     15  C   UNL     1       5.156   5.557  15.188  0.00  0.00    +0.000 A 
ATOM     16  C   UNL     1       5.710   4.382  14.675  0.00  0.00    +0.000 A 
ATOM     17  C   UNL     1       6.712   3.722  15.376  0.00  0.00    +0.000 A 
ATOM     18  C   UNL     1       7.150   4.230  16.599  0.00  0.00    +0.000 A 
ATOM     19  C   UNL     1       6.588   5.410  17.131  0.00  0.00    +0.000 A 
BRANCH  19  20
ATOM     20  N   UNL     1       7.099   5.859  18.440  0.00  0.00    +0.000 N 
ATOM     21  O   UNL     1       7.935   6.771  18.466  0.00  0.00    +0.000 OA
ATOM     22  O   UNL     1       6.663   5.296  19.457  0.00  0.00    +0.000 OA
ENDBRANCH  19  20
ENDBRANCH  13  14
ENDBRANCH   1  10
BRANCH   4  23
ATOM     23  N   UNL     1      -1.923  11.648  20.617  0.00  0.00    +0.000 NA
ATOM     24  N   UNL     1      -1.649  12.841  20.376  0.00  0.00    +0.000 NA
BRANCH  24  25
ATOM     25  C   UNL     1      -2.578  13.741  20.937  0.00  0.00    +0.000 A 
ATOM     26  C   UNL     1      -3.842  13.248  21.257  0.00  0.00    +0.000 A 
ATOM     27  C   UNL     1      -4.818  14.076  21.825  0.00  0.00    +0.000 A 
ATOM     28  C   UNL     1      -4.575  15.427  22.108  0.00  0.00    +0.000 A 
ATOM     29  C   UNL     1      -3.299  15.910  21.782  0.00  0.00    +0.000 A 
ATOM     30  C   UNL     1      -2.315  15.085  21.215  0.00  0.00    +0.000 A 
BRANCH  28  31
ATOM     31  N   UNL     1      -5.565  16.233  22.626  0.00  0.00    +0.000 N 
ATOM     32  C   UNL     1      -6.465  15.780  23.701  0.00  0.00    +0.000 C 
ATOM     33  C   UNL     1      -7.888  16.296  23.423  0.00  0.00    +0.000 C 
ATOM     34  O   UNL     1      -7.917  17.722  23.237  0.00  0.00    +0.000 OA
ATOM     35  C   UNL     1      -7.055  18.100  22.149  0.00  0.00    +0.000 C 
ATOM     36  C   UNL     1      -5.598  17.688  22.418  0.00  0.00    +0.000 C 
ENDBRANCH  28  31
ENDBRANCH  24  25
ENDBRANCH   4  23
TORSDOF 6
ENDMDL
MODEL 7
REMARK VINA RESULT:      -7.4      2.230     13.920
REMARK  Name = 
REMARK  6 active torsions:
REMARK  status: ('A' for Active; 'I' for Inactive)
REMARK    1  A    between atoms: C_4  and  C_5
REMARK    2  A    between atoms: C_8  and  N_9
REMARK    3  A    between atoms: N_10  and  C_11
REMARK    4  A    between atoms: C_14  and  N_15
REMARK    5  A    between atoms: C_27  and  C_28
REMARK    6  A    between atoms: C_33  and  N_34
REMARK                            x       y       z     vdW  Elec       q    Type
REMARK                         _______ _______ _______ _____ _____    ______ ____
ROOT
ATOM      1  C   UNL     1      -1.241  12.535  21.190  0.00  0.00    +0.000 A 
ATOM      2  C   UNL     1       0.133  12.565  21.451  0.00  0.00    +0.000 A 
ATOM      3  C   UNL     1       0.981  11.652  20.817  0.00  0.00    +0.000 A 
ATOM      4  C   UNL     1       0.483  10.691  19.927  0.00  0.00    +0.000 A 
ATOM      5  C   UNL     1      -0.899  10.669  19.680  0.00  0.00    +0.000 A 
ATOM      6  C   UNL     1      -1.758  11.577  20.311  0.00  0.00    +0.000 A 
ENDROOT
BRANCH   1  10
ATOM      7  O   UNL     1      -3.568  16.557  21.419  0.00  0.00    +0.000 OA
ATOM      8  C   UNL     1      -3.178  15.453  21.732  0.00  0.00    +0.000 C 
ATOM      9  O   UNL     1      -2.268  14.686  21.073  0.00  0.00    +0.000 OA
ATOM     10  C   UNL     1      -2.151  13.534  21.773  0.00  0.00    +0.000 C 
ATOM     11  N   UNL     1      -2.864  13.402  22.845  0.00  0.00    +0.000 NA
ATOM     12  C   UNL     1      -3.559  14.592  22.890  0.00  0.00    +0.000 C 
ATOM     13  C   UNL     1      -4.476  14.903  23.819  0.00  0.00    +0.000 C 
BRANCH  13  14
ATOM     14  C   UNL     1      -5.364  16.082  23.797  0.00  0.00    +0.000 A 
ATOM     15  C   UNL     1      -4.954  17.133  24.644  0.00  0.00    +0.000 A 
ATOM     16  C   UNL     1      -5.666  18.332  24.719  0.00  0.00    +0.000 A 
ATOM     17  C   UNL     1      -6.806  18.513  23.945  0.00  0.00    +0.000 A 
ATOM     18  C   UNL     1      -7.242  17.489  23.106  0.00  0.00    +0.000 A 
ATOM     19  C   UNL     1      -6.536  16.269  23.032  0.00  0.00    +0.000 A 
BRANCH  19  20
ATOM     20  N   UNL     1      -7.085  15.235  22.134  0.00  0.00    +0.000 N 
ATOM     21  O   UNL     1      -6.696  15.207  20.960  0.00  0.00    +0.000 OA
ATOM     22  O   UNL     1      -7.915  14.441  22.604  0.00  0.00    +0.000 OA
ENDBRANCH  19  20
ENDBRANCH  13  14
ENDBRANCH   1  10
BRANCH   4  23
ATOM     23  N   UNL     1       1.413   9.825  19.316  0.00  0.00    +0.000 NA
ATOM     24  N   UNL     1       1.232   8.632  19.629  0.00  0.00    +0.000 NA
BRANCH  24  25
ATOM     25  C   UNL     1       2.229   7.775  19.119  0.00  0.00    +0.000 A 
ATOM     26  C   UNL     1       2.854   8.148  17.930  0.00  0.00    +0.000 A 
ATOM     27  C   UNL     1       3.860   7.355  17.363  0.00  0.00    +0.000 A 
ATOM     28  C   UNL     1       4.293   6.163  17.959  0.00  0.00    +0.000 A 
ATOM     29  C   UNL     1       3.657   5.800  19.155  0.00  0.00    +0.000 A 
ATOM     30  C   UNL     1       2.650   6.591  19.731  0.00  0.00    +0.000 A 
BRANCH  28  31
ATOM     31  N   UNL     1       5.253   5.377  17.360  0.00  0.00    +0.000 N 
ATOM     32  C   UNL     1       6.224   4.589  18.140  0.00  0.00    +0.000 C 
ATOM     33  C   UNL     1       7.600   4.654  17.454  0.00  0.00    +0.000 C 
ATOM     34  O   UNL     1       7.533   4.248  16.075  0.00  0.00    +0.000 OA
ATOM     35  C   UNL     1       6.605   5.079  15.355  0.00  0.00    +0.000 C 
ATOM     36  C   UNL     1       5.188   4.979  15.946  0.00  0.00    +0.000 C 
ENDBRANCH  28  31
ENDBRANCH  24  25
ENDBRANCH   4  23
TORSDOF 6
ENDMDL
MODEL 8
REMARK VINA RESULT:      -7.4      1.466      1.838
REMARK  Name = 
REMARK  6 active torsions:
REMARK  status: ('A' for Active; 'I' for Inactive)
REMARK    1  A    between atoms: C_4  and  C_5
REMARK    2  A    between atoms: C_8  and  N_9
REMARK    3  A    between atoms: N_10  and  C_11
REMARK    4  A    between atoms: C_14  and  N_15
REMARK    5  A    between atoms: C_27  and  C_28
REMARK    6  A    between atoms: C_33  and  N_34
REMARK                            x       y       z     vdW  Elec       q    Type
REMARK                         _______ _______ _______ _____ _____    ______ ____
ROOT
ATOM      1  C   UNL     1       1.166   9.077  19.202  0.00  0.00    +0.000 A 
ATOM      2  C   UNL     1       0.423   9.938  18.387  0.00  0.00    +0.000 A 
ATOM      3  C   UNL     1      -0.552  10.765  18.955  0.00  0.00    +0.000 A 
ATOM      4  C   UNL     1      -0.813  10.744  20.330  0.00  0.00    +0.000 A 
ATOM      5  C   UNL     1      -0.063   9.870  21.135  0.00  0.00    +0.000 A 
ATOM      6  C   UNL     1       0.913   9.037  20.577  0.00  0.00    +0.000 A 
ENDROOT
BRANCH   1  10
ATOM      7  O   UNL     1       3.628   5.197  18.479  0.00  0.00    +0.000 OA
ATOM      8  C   UNL     1       3.295   6.360  18.402  0.00  0.00    +0.000 C 
ATOM      9  O   UNL     1       2.259   6.962  19.046  0.00  0.00    +0.000 OA
ATOM     10  C   UNL     1       2.256   8.257  18.652  0.00  0.00    +0.000 C 
ATOM     11  N   UNL     1       3.168   8.637  17.815  0.00  0.00    +0.000 NA
ATOM     12  C   UNL     1       3.877   7.474  17.597  0.00  0.00    +0.000 C 
ATOM     13  C   UNL     1       4.911   7.361  16.750  0.00  0.00    +0.000 C 
BRANCH  13  14
ATOM     14  C   UNL     1       5.575   6.102  16.359  0.00  0.00    +0.000 A 
ATOM     15  C   UNL     1       5.093   5.543  15.156  0.00  0.00    +0.000 A 
ATOM     16  C   UNL     1       5.633   4.367  14.629  0.00  0.00    +0.000 A 
ATOM     17  C   UNL     1       6.673   3.723  15.287  0.00  0.00    +0.000 A 
ATOM     18  C   UNL     1       7.163   4.246  16.483  0.00  0.00    +0.000 A 
ATOM     19  C   UNL     1       6.617   5.426  17.031  0.00  0.00    +0.000 A 
BRANCH  19  20
ATOM     20  N   UNL     1       7.184   5.893  18.310  0.00  0.00    +0.000 N 
ATOM     21  O   UNL     1       7.914   6.892  18.303  0.00  0.00    +0.000 OA
ATOM     22  O   UNL     1       6.900   5.255  19.337  0.00  0.00    +0.000 OA
ENDBRANCH  19  20
ENDBRANCH  13  14
ENDBRANCH   1  10
BRANCH   4  23
ATOM     23  N   UNL     1      -1.797  11.627  20.820  0.00  0.00    +0.000 NA
ATOM     24  N   UNL     1      -1.967  12.614  20.076  0.00  0.00    +0.000 NA
BRANCH  24  25
ATOM     25  C   UNL     1      -2.861  13.560  20.617  0.00  0.00    +0.000 A 
ATOM     26  C   UNL     1      -2.375  14.845  20.855  0.00  0.00    +0.000 A 
ATOM     27  C   UNL     1      -3.202  15.844  21.383  0.00  0.00    +0.000 A 
ATOM     28  C   UNL     1      -4.550  15.610  21.688  0.00  0.00    +0.000 A 
ATOM     29  C   UNL     1      -5.026  14.314  21.444  0.00  0.00    +0.000 A 
ATOM     30  C   UNL     1      -4.204  13.308  20.912  0.00  0.00    +0.000 A 
BRANCH  28  31
ATOM     31  N   UNL     1      -5.332  16.597  22.249  0.00  0.00    +0.000 N 
ATOM     32  C   UNL     1      -4.757  17.709  23.027  0.00  0.00    +0.000 C 
ATOM     33  C   UNL     1      -5.665  18.007  24.233  0.00  0.00    +0.000 C 
ATOM     34  O   UNL     1      -7.026  18.251  23.835  0.00  0.00    +0.000 OA
ATOM     35  C   UNL     1      -7.547  17.116  23.120  0.00  0.00    +0.000 C 
ATOM     36  C   UNL     1      -6.728  16.830  21.850  0.00  0.00    +0.000 C 
ENDBRANCH  28  31
ENDBRANCH  24  25
ENDBRANCH   4  23
TORSDOF 6
ENDMDL
MODEL 9
REMARK VINA RESULT:      -7.3      2.977     13.763
REMARK  Name = 
REMARK  6 active torsions:
REMARK  status: ('A' for Active; 'I' for Inactive)
REMARK    1  A    between atoms: C_4  and  C_5
REMARK    2  A    between atoms: C_8  and  N_9
REMARK    3  A    between atoms: N_10  and  C_11
REMARK    4  A    between atoms: C_14  and  N_15
REMARK    5  A    between atoms: C_27  and  C_28
REMARK    6  A    between atoms: C_33  and  N_34
REMARK                            x       y       z     vdW  Elec       q    Type
REMARK                         _______ _______ _______ _____ _____    ______ ____
ROOT
ATOM      1  C   UNL     1       0.179  10.745  20.398  0.00  0.00    +0.000 A 
ATOM      2  C   UNL     1       0.447  11.051  19.059  0.00  0.00    +0.000 A 
ATOM      3  C   UNL     1       1.100  10.117  18.249  0.00  0.00    +0.000 A 
ATOM      4  C   UNL     1       1.508   8.875  18.753  0.00  0.00    +0.000 A 
ATOM      5  C   UNL     1       1.239   8.585  20.101  0.00  0.00    +0.000 A 
ATOM      6  C   UNL     1       0.587   9.513  20.921  0.00  0.00    +0.000 A 
ENDROOT
BRANCH   1  10
ATOM      7  O   UNL     1      -1.777  14.784  21.624  0.00  0.00    +0.000 OA
ATOM      8  C   UNL     1      -1.448  13.619  21.683  0.00  0.00    +0.000 C 
ATOM      9  O   UNL     1      -0.676  12.938  20.794  0.00  0.00    +0.000 OA
ATOM     10  C   UNL     1      -0.580  11.668  21.255  0.00  0.00    +0.000 C 
ATOM     11  N   UNL     1      -1.186  11.379  22.362  0.00  0.00    +0.000 NA
ATOM     12  C   UNL     1      -1.774  12.579  22.703  0.00  0.00    +0.000 C 
ATOM     13  C   UNL     1      -2.560  12.764  23.775  0.00  0.00    +0.000 C 
BRANCH  13  14
ATOM     14  C   UNL     1      -3.347  13.977  24.071  0.00  0.00    +0.000 A 
ATOM     15  C   UNL     1      -2.703  14.890  24.932  0.00  0.00    +0.000 A 
ATOM     16  C   UNL     1      -3.298  16.102  25.290  0.00  0.00    +0.000 A 
ATOM     17  C   UNL     1      -4.551  16.435  24.791  0.00  0.00    +0.000 A 
ATOM     18  C   UNL     1      -5.217  15.549  23.946  0.00  0.00    +0.000 A 
ATOM     19  C   UNL     1      -4.631  14.317  23.589  0.00  0.00    +0.000 A 
BRANCH  19  20
ATOM     20  N   UNL     1      -5.419  13.433  22.708  0.00  0.00    +0.000 N 
ATOM     21  O   UNL     1      -5.389  13.637  21.488  0.00  0.00    +0.000 OA
ATOM     22  O   UNL     1      -6.077  12.524  23.238  0.00  0.00    +0.000 OA
ENDBRANCH  19  20
ENDBRANCH  13  14
ENDBRANCH   1  10
BRANCH   4  23
ATOM     23  N   UNL     1       2.140   7.986  17.860  0.00  0.00    +0.000 NA
ATOM     24  N   UNL     1       3.228   7.561  18.298  0.00  0.00    +0.000 NA
BRANCH  24  25
ATOM     25  C   UNL     1       3.923   6.768  17.362  0.00  0.00    +0.000 A 
ATOM     26  C   UNL     1       4.585   7.423  16.325  0.00  0.00    +0.000 A 
ATOM     27  C   UNL     1       5.304   6.706  15.360  0.00  0.00    +0.000 A 
ATOM     28  C   UNL     1       5.403   5.309  15.391  0.00  0.00    +0.000 A 
ATOM     29  C   UNL     1       4.732   4.662  16.439  0.00  0.00    +0.000 A 
ATOM     30  C   UNL     1       4.012   5.374  17.412  0.00  0.00    +0.000 A 
BRANCH  28  31
ATOM     31  N   UNL     1       6.079   4.623  14.405  0.00  0.00    +0.000 N 
ATOM     32  C   UNL     1       7.473   4.935  14.045  0.00  0.00    +0.000 C 
ATOM     33  C   UNL     1       7.637   4.841  12.518  0.00  0.00    +0.000 C 
ATOM     34  O   UNL     1       7.201   3.567  12.008  0.00  0.00    +0.000 OA
ATOM     35  C   UNL     1       5.824   3.337  12.352  0.00  0.00    +0.000 C 
ATOM     36  C   UNL     1       5.620   3.330  13.877  0.00  0.00    +0.000 C 
ENDBRANCH  28  31
ENDBRANCH  24  25
ENDBRANCH   4  23
TORSDOF 6
ENDMDL
