MODEL 1
REMARK VINA RESULT:      -8.4      0.000      0.000
REMARK  Name = 
REMARK  4 active torsions:
REMARK  status: ('A' for Active; 'I' for Inactive)
REMARK    1  A    between atoms: C_2  and  C_5
REMARK    2  A    between atoms: C_7  and  C_8
REMARK    3  A    between atoms: N_16  and  C_17
REMARK    4  A    between atoms: C_17  and  C_18
REMARK                            x       y       z     vdW  Elec       q    Type
REMARK                         _______ _______ _______ _____ _____    ______ ____
ROOT
ATOM      1  C   UNL     1       6.810   5.658  18.022  0.00  0.00    +0.000 A 
ATOM      2  C   UNL     1       7.145   5.260  16.743  0.00  0.00    +0.000 A 
ATOM      3  C   UNL     1       6.126   5.203  15.816  0.00  0.00    +0.000 A 
ATOM      4  N   UNL     1       4.859   5.542  16.143  0.00  0.00    +0.000 NA
ATOM      5  C   UNL     1       4.591   5.872  17.410  0.00  0.00    +0.000 A 
ATOM      6  N   UNL     1       3.273   6.195  17.705  0.00  0.00    +0.000 N 
ATOM      7  N   UNL     1       5.528   5.944  18.360  0.00  0.00    +0.000 NA
ATOM      8  H   UNL     1       3.121   7.130  17.354  0.00  0.00    +0.000 HD
ENDROOT
BRANCH   3   9
ATOM      9  C   UNL     1       6.346   4.743  14.426  0.00  0.00    +0.000 A 
ATOM     10  C   UNL     1       5.469   3.824  13.820  0.00  0.00    +0.000 A 
ATOM     11  C   UNL     1       5.686   3.353  12.521  0.00  0.00    +0.000 A 
ATOM     12  C   UNL     1       6.787   3.797  11.794  0.00  0.00    +0.000 A 
ATOM     13  C   UNL     1       7.667   4.710  12.364  0.00  0.00    +0.000 A 
ATOM     14  C   UNL     1       7.447   5.178  13.661  0.00  0.00    +0.000 A 
ENDBRANCH   3   9
BRANCH   1  16
ATOM     15  F   UNL     1       7.405   5.743  20.353  0.00  0.00    +0.000 F 
ATOM     16  C   UNL     1       7.892   5.792  19.076  0.00  0.00    +0.000 C 
ATOM     17  F   UNL     1       8.577   6.967  18.993  0.00  0.00    +0.000 F 
ATOM     18  F   UNL     1       8.826   4.801  19.010  0.00  0.00    +0.000 F 
ENDBRANCH   1  16
BRANCH   6  19
ATOM     19  C   UNL     1       2.916   6.074  19.114  0.00  0.00    +0.000 C 
BRANCH  19  20
ATOM     20  C   UNL     1       2.138   4.820  19.424  0.00  0.00    +0.000 A 
ATOM     21  C   UNL     1       1.724   4.353  20.658  0.00  0.00    +0.000 A 
ATOM     22  C   UNL     1       0.994   3.133  20.561  0.00  0.00    +0.000 A 
ATOM     23  C   UNL     1       0.870   2.709  19.257  0.00  0.00    +0.000 A 
ATOM     24  S   UNL     1       1.629   3.779  18.161  0.00  0.00    +0.000 S 
ENDBRANCH  19  20
ENDBRANCH   6  19
TORSDOF 4
ENDMDL
MODEL 2
REMARK VINA RESULT:      -8.4      0.044      1.274
REMARK  Name = 
REMARK  4 active torsions:
REMARK  status: ('A' for Active; 'I' for Inactive)
REMARK    1  A    between atoms: C_2  and  C_5
REMARK    2  A    between atoms: C_7  and  C_8
REMARK    3  A    between atoms: N_16  and  C_17
REMARK    4  A    between atoms: C_17  and  C_18
REMARK                            x       y       z     vdW  Elec       q    Type
REMARK                         _______ _______ _______ _____ _____    ______ ____
ROOT
ATOM      1  C   UNL     1       6.814   5.645  18.021  0.00  0.00    +0.000 A 
ATOM      2  C   UNL     1       7.162   5.235  16.751  0.00  0.00    +0.000 A 
ATOM      3  C   UNL     1       6.152   5.171  15.812  0.00  0.00    +0.000 A 
ATOM      4  N   UNL     1       4.883   5.514  16.124  0.00  0.00    +0.000 NA
ATOM      5  C   UNL     1       4.602   5.857  17.384  0.00  0.00    +0.000 A 
ATOM      6  N   UNL     1       3.281   6.184  17.662  0.00  0.00    +0.000 N 
ATOM      7  N   UNL     1       5.528   5.936  18.344  0.00  0.00    +0.000 NA
ATOM      8  H   UNL     1       3.135   7.116  17.300  0.00  0.00    +0.000 HD
ENDROOT
BRANCH   3   9
ATOM      9  C   UNL     1       6.387   4.697  14.430  0.00  0.00    +0.000 A 
ATOM     10  C   UNL     1       7.468   5.185  13.671  0.00  0.00    +0.000 A 
ATOM     11  C   UNL     1       7.680   4.774  12.351  0.00  0.00    +0.000 A 
ATOM     12  C   UNL     1       6.817   3.857  11.760  0.00  0.00    +0.000 A 
ATOM     13  C   UNL     1       5.744   3.351  12.487  0.00  0.00    +0.000 A 
ATOM     14  C   UNL     1       5.535   3.765  13.805  0.00  0.00    +0.000 A 
ENDBRANCH   3   9
BRANCH   1  16
ATOM     15  F   UNL     1       8.569   6.968  19.004  0.00  0.00    +0.000 F 
ATOM     16  C   UNL     1       7.885   5.788  19.086  0.00  0.00    +0.000 C 
ATOM     17  F   UNL     1       8.835   4.812  19.023  0.00  0.00    +0.000 F 
ATOM     18  F   UNL     1       7.384   5.750  20.354  0.00  0.00    +0.000 F 
ENDBRANCH   1  16
BRANCH   6  19
ATOM     19  C   UNL     1       2.909   6.077  19.068  0.00  0.00    +0.000 C 
BRANCH  19  20
ATOM     20  C   UNL     1       2.138   4.820  19.384  0.00  0.00    +0.000 A 
ATOM     21  C   UNL     1       1.722   4.360  20.620  0.00  0.00    +0.000 A 
ATOM     22  C   UNL     1       1.000   3.134  20.529  0.00  0.00    +0.000 A 
ATOM     23  C   UNL     1       0.883   2.700  19.228  0.00  0.00    +0.000 A 
ATOM     24  S   UNL     1       1.640   3.767  18.127  0.00  0.00    +0.000 S 
ENDBRANCH  19  20
ENDBRANCH   6  19
TORSDOF 4
ENDMDL
MODEL 3
REMARK VINA RESULT:      -8.3      0.683      1.322
REMARK  Name = 
REMARK  4 active torsions:
REMARK  status: ('A' for Active; 'I' for Inactive)
REMARK    1  A    between atoms: C_2  and  C_5
REMARK    2  A    between atoms: C_7  and  C_8
REMARK    3  A    between atoms: N_16  and  C_17
REMARK    4  A    between atoms: C_17  and  C_18
REMARK                            x       y       z     vdW  Elec       q    Type
REMARK                         _______ _______ _______ _____ _____    ______ ____
ROOT
ATOM      1  C   UNL     1       6.796   5.631  18.015  0.00  0.00    +0.000 A 
ATOM      2  C   UNL     1       7.145   5.223  16.744  0.00  0.00    +0.000 A 
ATOM      3  C   UNL     1       6.134   5.152  15.808  0.00  0.00    +0.000 A 
ATOM      4  N   UNL     1       4.863   5.487  16.121  0.00  0.00    +0.000 NA
ATOM      5  C   UNL     1       4.582   5.827  17.382  0.00  0.00    +0.000 A 
ATOM      6  N   UNL     1       3.259   6.146  17.662  0.00  0.00    +0.000 N 
ATOM      7  N   UNL     1       5.509   5.914  18.340  0.00  0.00    +0.000 NA
ATOM      8  H   UNL     1       3.106   7.077  17.300  0.00  0.00    +0.000 HD
ENDROOT
BRANCH   3   9
ATOM      9  C   UNL     1       6.370   4.679  14.425  0.00  0.00    +0.000 A 
ATOM     10  C   UNL     1       7.455   5.164  13.669  0.00  0.00    +0.000 A 
ATOM     11  C   UNL     1       7.667   4.753  12.349  0.00  0.00    +0.000 A 
ATOM     12  C   UNL     1       6.801   3.842  11.754  0.00  0.00    +0.000 A 
ATOM     13  C   UNL     1       5.724   3.340  12.478  0.00  0.00    +0.000 A 
ATOM     14  C   UNL     1       5.515   3.752  13.796  0.00  0.00    +0.000 A 
ENDBRANCH   3   9
BRANCH   1  16
ATOM     15  F   UNL     1       7.372   5.730  20.352  0.00  0.00    +0.000 F 
ATOM     16  C   UNL     1       7.868   5.781  19.078  0.00  0.00    +0.000 C 
ATOM     17  F   UNL     1       8.539   6.965  18.997  0.00  0.00    +0.000 F 
ATOM     18  F   UNL     1       8.815   4.802  19.023  0.00  0.00    +0.000 F 
ENDBRANCH   1  16
BRANCH   6  19
ATOM     19  C   UNL     1       2.890   6.037  19.069  0.00  0.00    +0.000 C 
BRANCH  19  20
ATOM     20  C   UNL     1       2.161   4.757  19.394  0.00  0.00    +0.000 A 
ATOM     21  C   UNL     1       1.496   3.909  18.530  0.00  0.00    +0.000 A 
ATOM     22  C   UNL     1       0.935   2.782  19.198  0.00  0.00    +0.000 A 
ATOM     23  C   UNL     1       1.193   2.803  20.550  0.00  0.00    +0.000 A 
ATOM     24  S   UNL     1       2.107   4.175  21.005  0.00  0.00    +0.000 S 
ENDBRANCH  19  20
ENDBRANCH   6  19
TORSDOF 4
ENDMDL
MODEL 4
REMARK VINA RESULT:      -8.3      0.682      1.167
REMARK  Name = 
REMARK  4 active torsions:
REMARK  status: ('A' for Active; 'I' for Inactive)
REMARK    1  A    between atoms: C_2  and  C_5
REMARK    2  A    between atoms: C_7  and  C_8
REMARK    3  A    between atoms: N_16  and  C_17
REMARK    4  A    between atoms: C_17  and  C_18
REMARK                            x       y       z     vdW  Elec       q    Type
REMARK                         _______ _______ _______ _____ _____    ______ ____
ROOT
ATOM      1  C   UNL     1       6.765   5.654  18.038  0.00  0.00    +0.000 A 
ATOM      2  C   UNL     1       7.123   5.264  16.764  0.00  0.00    +0.000 A 
ATOM      3  C   UNL     1       6.118   5.200  15.821  0.00  0.00    +0.000 A 
ATOM      4  N   UNL     1       4.844   5.526  16.131  0.00  0.00    +0.000 NA
ATOM      5  C   UNL     1       4.554   5.849  17.395  0.00  0.00    +0.000 A 
ATOM      6  N   UNL     1       3.228   6.159  17.671  0.00  0.00    +0.000 N 
ATOM      7  N   UNL     1       5.475   5.928  18.359  0.00  0.00    +0.000 NA
ATOM      8  H   UNL     1       3.073   7.093  17.320  0.00  0.00    +0.000 HD
ENDROOT
BRANCH   3   9
ATOM      9  C   UNL     1       6.364   4.746  14.434  0.00  0.00    +0.000 A 
ATOM     10  C   UNL     1       5.515   3.807  13.818  0.00  0.00    +0.000 A 
ATOM     11  C   UNL     1       5.757   3.342  12.522  0.00  0.00    +0.000 A 
ATOM     12  C   UNL     1       6.853   3.812  11.806  0.00  0.00    +0.000 A 
ATOM     13  C   UNL     1       7.706   4.747  12.385  0.00  0.00    +0.000 A 
ATOM     14  C   UNL     1       7.461   5.209  13.680  0.00  0.00    +0.000 A 
ENDBRANCH   3   9
BRANCH   1  16
ATOM     15  F   UNL     1       8.790   4.824  19.044  0.00  0.00    +0.000 F 
ATOM     16  C   UNL     1       7.830   5.796  19.110  0.00  0.00    +0.000 C 
ATOM     17  F   UNL     1       7.327   5.724  20.375  0.00  0.00    +0.000 F 
ATOM     18  F   UNL     1       8.507   6.976  19.035  0.00  0.00    +0.000 F 
ENDBRANCH   1  16
BRANCH   6  19
ATOM     19  C   UNL     1       2.851   6.031  19.074  0.00  0.00    +0.000 C 
BRANCH  19  20
ATOM     20  C   UNL     1       2.143   4.735  19.382  0.00  0.00    +0.000 A 
ATOM     21  C   UNL     1       1.451   3.911  18.515  0.00  0.00    +0.000 A 
ATOM     22  C   UNL     1       0.923   2.758  19.166  0.00  0.00    +0.000 A 
ATOM     23  C   UNL     1       1.231   2.736  20.507  0.00  0.00    +0.000 A 
ATOM     24  S   UNL     1       2.152   4.099  20.974  0.00  0.00    +0.000 S 
ENDBRANCH  19  20
ENDBRANCH   6  19
TORSDOF 4
ENDMDL
MODEL 5
REMARK VINA RESULT:      -8.1      4.139      5.524
REMARK  Name = 
REMARK  4 active torsions:
REMARK  status: ('A' for Active; 'I' for Inactive)
REMARK    1  A    between atoms: C_2  and  C_5
REMARK    2  A    between atoms: C_7  and  C_8
REMARK    3  A    between atoms: N_16  and  C_17
REMARK    4  A    between atoms: C_17  and  C_18
REMARK                            x       y       z     vdW  Elec       q    Type
REMARK                         _______ _______ _______ _____ _____    ______ ____
ROOT
ATOM      1  C   UNL     1       2.323   4.065  20.257  0.00  0.00    +0.000 A 
ATOM      2  C   UNL     1       3.105   3.975  19.123  0.00  0.00    +0.000 A 
ATOM      3  C   UNL     1       3.479   5.160  18.523  0.00  0.00    +0.000 A 
ATOM      4  N   UNL     1       3.110   6.354  19.037  0.00  0.00    +0.000 NA
ATOM      5  C   UNL     1       2.312   6.371  20.109  0.00  0.00    +0.000 A 
ATOM      6  N   UNL     1       1.944   7.620  20.592  0.00  0.00    +0.000 N 
ATOM      7  N   UNL     1       1.909   5.264  20.738  0.00  0.00    +0.000 NA
ATOM      8  H   UNL     1       2.744   7.982  21.092  0.00  0.00    +0.000 HD
ENDROOT
BRANCH   3   9
ATOM      9  C   UNL     1       4.272   5.197  17.274  0.00  0.00    +0.000 A 
ATOM     10  C   UNL     1       4.766   4.012  16.694  0.00  0.00    +0.000 A 
ATOM     11  C   UNL     1       5.548   4.037  15.535  0.00  0.00    +0.000 A 
ATOM     12  C   UNL     1       5.851   5.249  14.923  0.00  0.00    +0.000 A 
ATOM     13  C   UNL     1       5.371   6.436  15.469  0.00  0.00    +0.000 A 
ATOM     14  C   UNL     1       4.590   6.408  16.627  0.00  0.00    +0.000 A 
ENDBRANCH   3   9
BRANCH   1  16
ATOM     15  F   UNL     1       0.751   2.937  21.690  0.00  0.00    +0.000 F 
ATOM     16  C   UNL     1       1.921   2.802  20.995  0.00  0.00    +0.000 C 
ATOM     17  F   UNL     1       2.845   2.403  21.914  0.00  0.00    +0.000 F 
ATOM     18  F   UNL     1       1.724   1.739  20.165  0.00  0.00    +0.000 F 
ENDBRANCH   1  16
BRANCH   6  19
ATOM     19  C   UNL     1       0.737   7.626  21.411  0.00  0.00    +0.000 C 
BRANCH  19  20
ATOM     20  C   UNL     1       0.238   9.014  21.725  0.00  0.00    +0.000 A 
ATOM     21  C   UNL     1      -0.353   9.468  22.888  0.00  0.00    +0.000 A 
ATOM     22  C   UNL     1      -0.684  10.853  22.826  0.00  0.00    +0.000 A 
ATOM     23  C   UNL     1      -0.331  11.414  21.619  0.00  0.00    +0.000 A 
ATOM     24  S   UNL     1       0.394  10.273  20.572  0.00  0.00    +0.000 S 
ENDBRANCH  19  20
ENDBRANCH   6  19
TORSDOF 4
ENDMDL
MODEL 6
REMARK VINA RESULT:      -8.0      4.128      5.632
REMARK  Name = 
REMARK  4 active torsions:
REMARK  status: ('A' for Active; 'I' for Inactive)
REMARK    1  A    between atoms: C_2  and  C_5
REMARK    2  A    between atoms: C_7  and  C_8
REMARK    3  A    between atoms: N_16  and  C_17
REMARK    4  A    between atoms: C_17  and  C_18
REMARK                            x       y       z     vdW  Elec       q    Type
REMARK                         _______ _______ _______ _____ _____    ______ ____
ROOT
ATOM      1  C   UNL     1       2.374   4.078  20.311  0.00  0.00    +0.000 A 
ATOM      2  C   UNL     1       3.174   3.961  19.193  0.00  0.00    +0.000 A 
ATOM      3  C   UNL     1       3.548   5.130  18.562  0.00  0.00    +0.000 A 
ATOM      4  N   UNL     1       3.162   6.336  19.034  0.00  0.00    +0.000 NA
ATOM      5  C   UNL     1       2.348   6.379  20.093  0.00  0.00    +0.000 A 
ATOM      6  N   UNL     1       1.962   7.639  20.532  0.00  0.00    +0.000 N 
ATOM      7  N   UNL     1       1.944   5.288  20.750  0.00  0.00    +0.000 NA
ATOM      8  H   UNL     1       2.751   8.023  21.032  0.00  0.00    +0.000 HD
ENDROOT
BRANCH   3   9
ATOM      9  C   UNL     1       4.360   5.136  17.325  0.00  0.00    +0.000 A 
ATOM     10  C   UNL     1       4.643   6.339  16.650  0.00  0.00    +0.000 A 
ATOM     11  C   UNL     1       5.379   6.353  15.461  0.00  0.00    +0.000 A 
ATOM     12  C   UNL     1       5.856   5.163  14.920  0.00  0.00    +0.000 A 
ATOM     13  C   UNL     1       5.599   3.960  15.569  0.00  0.00    +0.000 A 
ATOM     14  C   UNL     1       4.864   3.948  16.757  0.00  0.00    +0.000 A 
ENDBRANCH   3   9
BRANCH   1  16
ATOM     15  F   UNL     1       2.982   2.327  21.848  0.00  0.00    +0.000 F 
ATOM     16  C   UNL     1       1.971   2.836  21.082  0.00  0.00    +0.000 C 
ATOM     17  F   UNL     1       1.576   1.811  20.274  0.00  0.00    +0.000 F 
ATOM     18  F   UNL     1       0.941   3.056  21.947  0.00  0.00    +0.000 F 
ENDBRANCH   1  16
BRANCH   6  19
ATOM     19  C   UNL     1       0.743   7.660  21.332  0.00  0.00    +0.000 C 
BRANCH  19  20
ATOM     20  C   UNL     1       0.165   9.043  21.500  0.00  0.00    +0.000 A 
ATOM     21  C   UNL     1      -0.133   9.970  20.519  0.00  0.00    +0.000 A 
ATOM     22  C   UNL     1      -0.682  11.171  21.054  0.00  0.00    +0.000 A 
ATOM     23  C   UNL     1      -0.789  11.122  22.426  0.00  0.00    +0.000 A 
ATOM     24  S   UNL     1      -0.230   9.636  23.059  0.00  0.00    +0.000 S 
ENDBRANCH  19  20
ENDBRANCH   6  19
TORSDOF 4
ENDMDL
MODEL 7
REMARK VINA RESULT:      -8.0      4.117      5.551
REMARK  Name = 
REMARK  4 active torsions:
REMARK  status: ('A' for Active; 'I' for Inactive)
REMARK    1  A    between atoms: C_2  and  C_5
REMARK    2  A    between atoms: C_7  and  C_8
REMARK    3  A    between atoms: N_16  and  C_17
REMARK    4  A    between atoms: C_17  and  C_18
REMARK                            x       y       z     vdW  Elec       q    Type
REMARK                         _______ _______ _______ _____ _____    ______ ____
ROOT
ATOM      1  C   UNL     1       2.372   4.082  20.266  0.00  0.00    +0.000 A 
ATOM      2  C   UNL     1       3.156   3.963  19.136  0.00  0.00    +0.000 A 
ATOM      3  C   UNL     1       3.528   5.131  18.503  0.00  0.00    +0.000 A 
ATOM      4  N   UNL     1       3.155   6.338  18.983  0.00  0.00    +0.000 NA
ATOM      5  C   UNL     1       2.356   6.384  20.053  0.00  0.00    +0.000 A 
ATOM      6  N   UNL     1       1.983   7.645  20.499  0.00  0.00    +0.000 N 
ATOM      7  N   UNL     1       1.954   5.293  20.712  0.00  0.00    +0.000 NA
ATOM      8  H   UNL     1       2.781   8.023  20.990  0.00  0.00    +0.000 HD
ENDROOT
BRANCH   3   9
ATOM      9  C   UNL     1       4.324   5.135  17.255  0.00  0.00    +0.000 A 
ATOM     10  C   UNL     1       4.801   3.933  16.697  0.00  0.00    +0.000 A 
ATOM     11  C   UNL     1       5.585   3.926  15.539  0.00  0.00    +0.000 A 
ATOM     12  C   UNL     1       5.906   5.123  14.906  0.00  0.00    +0.000 A 
ATOM     13  C   UNL     1       5.443   6.325  15.430  0.00  0.00    +0.000 A 
ATOM     14  C   UNL     1       4.660   6.329  16.587  0.00  0.00    +0.000 A 
ENDBRANCH   3   9
BRANCH   1  16
ATOM     15  F   UNL     1       1.613   1.797  20.231  0.00  0.00    +0.000 F 
ATOM     16  C   UNL     1       1.972   2.840  21.039  0.00  0.00    +0.000 C 
ATOM     17  F   UNL     1       0.906   3.045  21.864  0.00  0.00    +0.000 F 
ATOM     18  F   UNL     1       2.975   2.356  21.826  0.00  0.00    +0.000 F 
ENDBRANCH   1  16
BRANCH   6  19
ATOM     19  C   UNL     1       0.775   7.670  21.316  0.00  0.00    +0.000 C 
BRANCH  19  20
ATOM     20  C   UNL     1       0.191   9.053  21.470  0.00  0.00    +0.000 A 
ATOM     21  C   UNL     1      -0.114   9.968  20.480  0.00  0.00    +0.000 A 
ATOM     22  C   UNL     1      -0.668  11.172  21.005  0.00  0.00    +0.000 A 
ATOM     23  C   UNL     1      -0.771  11.137  22.377  0.00  0.00    +0.000 A 
ATOM     24  S   UNL     1      -0.204   9.660  23.024  0.00  0.00    +0.000 S 
ENDBRANCH  19  20
ENDBRANCH   6  19
TORSDOF 4
ENDMDL
MODEL 8
REMARK VINA RESULT:      -8.0      4.080      5.564
REMARK  Name = 
REMARK  4 active torsions:
REMARK  status: ('A' for Active; 'I' for Inactive)
REMARK    1  A    between atoms: C_2  and  C_5
REMARK    2  A    between atoms: C_7  and  C_8
REMARK    3  A    between atoms: N_16  and  C_17
REMARK    4  A    between atoms: C_17  and  C_18
REMARK                            x       y       z     vdW  Elec       q    Type
REMARK                         _______ _______ _______ _____ _____    ______ ____
ROOT
ATOM      1  C   UNL     1       2.500   4.015  20.382  0.00  0.00    +0.000 A 
ATOM      2  C   UNL     1       3.493   3.891  19.432  0.00  0.00    +0.000 A 
ATOM      3  C   UNL     1       3.979   5.056  18.876  0.00  0.00    +0.000 A 
ATOM      4  N   UNL     1       3.514   6.265  19.262  0.00  0.00    +0.000 NA
ATOM      5  C   UNL     1       2.518   6.314  20.151  0.00  0.00    +0.000 A 
ATOM      6  N   UNL     1       2.059   7.577  20.503  0.00  0.00    +0.000 N 
ATOM      7  N   UNL     1       1.997   5.227  20.726  0.00  0.00    +0.000 NA
ATOM      8  H   UNL     1       2.742   7.963  21.140  0.00  0.00    +0.000 HD
ENDROOT
BRANCH   3   9
ATOM      9  C   UNL     1       5.008   5.055  17.811  0.00  0.00    +0.000 A 
ATOM     10  C   UNL     1       4.696   5.472  16.503  0.00  0.00    +0.000 A 
ATOM     11  C   UNL     1       5.649   5.441  15.480  0.00  0.00    +0.000 A 
ATOM     12  C   UNL     1       6.941   4.996  15.742  0.00  0.00    +0.000 A 
ATOM     13  C   UNL     1       7.280   4.585  17.027  0.00  0.00    +0.000 A 
ATOM     14  C   UNL     1       6.327   4.617  18.047  0.00  0.00    +0.000 A 
ENDBRANCH   3   9
BRANCH   1  16
ATOM     15  F   UNL     1       1.548   1.811  20.194  0.00  0.00    +0.000 F 
ATOM     16  C   UNL     1       1.959   2.777  21.071  0.00  0.00    +0.000 C 
ATOM     17  F   UNL     1       0.877   3.034  21.860  0.00  0.00    +0.000 F 
ATOM     18  F   UNL     1       2.878   2.167  21.872  0.00  0.00    +0.000 F 
ENDBRANCH   1  16
BRANCH   6  19
ATOM     19  C   UNL     1       0.713   7.602  21.064  0.00  0.00    +0.000 C 
BRANCH  19  20
ATOM     20  C   UNL     1       0.274   8.980  21.493  0.00  0.00    +0.000 A 
ATOM     21  C   UNL     1      -0.398   9.343  22.645  0.00  0.00    +0.000 A 
ATOM     22  C   UNL     1      -0.633  10.747  22.719  0.00  0.00    +0.000 A 
ATOM     23  C   UNL     1      -0.130  11.411  21.623  0.00  0.00    +0.000 A 
ATOM     24  S   UNL     1       0.620  10.345  20.517  0.00  0.00    +0.000 S 
ENDBRANCH  19  20
ENDBRANCH   6  19
TORSDOF 4
ENDMDL
MODEL 9
REMARK VINA RESULT:      -7.9      4.139      5.587
REMARK  Name = 
REMARK  4 active torsions:
REMARK  status: ('A' for Active; 'I' for Inactive)
REMARK    1  A    between atoms: C_2  and  C_5
REMARK    2  A    between atoms: C_7  and  C_8
REMARK    3  A    between atoms: N_16  and  C_17
REMARK    4  A    between atoms: C_17  and  C_18
REMARK                            x       y       z     vdW  Elec       q    Type
REMARK                         _______ _______ _______ _____ _____    ______ ____
ROOT
ATOM      1  C   UNL     1       1.936   3.978  19.598  0.00  0.00    +0.000 A 
ATOM      2  C   UNL     1       2.822   3.891  18.544  0.00  0.00    +0.000 A 
ATOM      3  C   UNL     1       3.500   5.041  18.196  0.00  0.00    +0.000 A 
ATOM      4  N   UNL     1       3.316   6.195  18.874  0.00  0.00    +0.000 NA
ATOM      5  C   UNL     1       2.408   6.226  19.854  0.00  0.00    +0.000 A 
ATOM      6  N   UNL     1       2.240   7.439  20.510  0.00  0.00    +0.000 N 
ATOM      7  N   UNL     1       1.713   5.153  20.241  0.00  0.00    +0.000 NA
ATOM      8  H   UNL     1       3.026   7.537  21.138  0.00  0.00    +0.000 HD
ENDROOT
BRANCH   3   9
ATOM      9  C   UNL     1       4.438   5.090  17.053  0.00  0.00    +0.000 A 
ATOM     10  C   UNL     1       4.780   6.316  16.449  0.00  0.00    +0.000 A 
ATOM     11  C   UNL     1       5.637   6.372  15.345  0.00  0.00    +0.000 A 
ATOM     12  C   UNL     1       6.177   5.202  14.820  0.00  0.00    +0.000 A 
ATOM     13  C   UNL     1       5.863   3.977  15.400  0.00  0.00    +0.000 A 
ATOM     14  C   UNL     1       5.008   3.924  16.503  0.00  0.00    +0.000 A 
ENDBRANCH   3   9
BRANCH   1  16
ATOM     15  F   UNL     1       0.008   2.547  19.418  0.00  0.00    +0.000 F 
ATOM     16  C   UNL     1       1.197   2.739  20.065  0.00  0.00    +0.000 C 
ATOM     17  F   UNL     1       0.887   2.770  21.392  0.00  0.00    +0.000 F 
ATOM     18  F   UNL     1       1.903   1.590  19.866  0.00  0.00    +0.000 F 
ENDBRANCH   1  16
BRANCH   6  19
ATOM     19  C   UNL     1       0.965   7.586  21.202  0.00  0.00    +0.000 C 
BRANCH  19  20
ATOM     20  C   UNL     1       0.514   9.020  21.320  0.00  0.00    +0.000 A 
ATOM     21  C   UNL     1      -0.035   9.657  22.416  0.00  0.00    +0.000 A 
ATOM     22  C   UNL     1      -0.326  11.029  22.159  0.00  0.00    +0.000 A 
ATOM     23  C   UNL     1       0.013  11.396  20.877  0.00  0.00    +0.000 A 
ATOM     24  S   UNL     1       0.678  10.093  19.993  0.00  0.00    +0.000 S 
ENDBRANCH  19  20
ENDBRANCH   6  19
TORSDOF 4
ENDMDL
