MODEL 1
REMARK VINA RESULT:      -7.9      0.000      0.000
REMARK  Name = 
REMARK  10 active torsions:
REMARK  status: ('A' for Active; 'I' for Inactive)
REMARK    1  A    between atoms: C_1  and  C_2
REMARK    2  A    between atoms: C_2  and  O_3
REMARK    3  A    between atoms: O_3  and  C_4
REMARK    4  A    between atoms: C_4  and  C_6
REMARK    5  A    between atoms: C_6  and  S_7
REMARK    6  A    between atoms: S_7  and  C_8
REMARK    7  A    between atoms: C_11  and  C_12
REMARK    8  A    between atoms: C_12  and  N_13
REMARK    9  A    between atoms: N_13  and  C_14
REMARK   10  A    between atoms: N_21  and  C_22
REMARK                            x       y       z     vdW  Elec       q    Type
REMARK                         _______ _______ _______ _____ _____    ______ ____
ROOT
ATOM      1  C   UNL     1       4.418   5.525  17.190  0.00  0.00    +0.000 A 
ATOM      2  N   UNL     1       4.856   6.696  16.787  0.00  0.00    +0.000 NA
ATOM      3  N   UNL     1       4.036   7.650  17.320  0.00  0.00    +0.000 NA
ATOM      4  C   UNL     1       3.112   7.050  18.051  0.00  0.00    +0.000 A 
ATOM      5  N   UNL     1       3.335   5.674  18.044  0.00  0.00    +0.000 N 
ENDROOT
BRANCH   5   6
ATOM      6  C   UNL     1       2.667   4.688  18.827  0.00  0.00    +0.000 A 
ATOM      7  C   UNL     1       1.646   3.910  18.272  0.00  0.00    +0.000 A 
ATOM      8  C   UNL     1       0.870   3.078  19.076  0.00  0.00    +0.000 A 
ATOM      9  C   UNL     1       1.145   2.975  20.435  0.00  0.00    +0.000 A 
ATOM     10  C   UNL     1       2.207   3.691  20.985  0.00  0.00    +0.000 A 
ATOM     11  C   UNL     1       2.964   4.552  20.188  0.00  0.00    +0.000 A 
ENDBRANCH   5   6
BRANCH   1  12
ATOM     12  S   UNL     1       4.972   4.008  16.542  0.00  0.00    +0.000 S 
BRANCH  12  13
ATOM     13  C   UNL     1       6.718   4.370  16.193  0.00  0.00    +0.000 C 
BRANCH  13  14
ATOM     14  C   UNL     1       6.937   4.546  14.702  0.00  0.00    +0.000 C 
ATOM     15  O   UNL     1       7.612   5.424  14.180  0.00  0.00    +0.000 OA
BRANCH  14  16
ATOM     16  O   UNL     1       6.156   3.660  14.014  0.00  0.00    +0.000 OA
BRANCH  16  18
ATOM     17  C   UNL     1       5.003   3.258  11.957  0.00  0.00    +0.000 C 
ATOM     18  C   UNL     1       6.325   3.657  12.587  0.00  0.00    +0.000 C 
ENDBRANCH  16  18
ENDBRANCH  14  16
ENDBRANCH  13  14
ENDBRANCH  12  13
ENDBRANCH   1  12
BRANCH   4  19
ATOM     19  C   UNL     1       2.049   7.772  18.838  0.00  0.00    +0.000 C 
BRANCH  19  20
ATOM     20  N   UNL     1       1.485   8.900  18.099  0.00  0.00    +0.000 N 
ATOM     21  H   UNL     1       2.145   9.290  17.431  0.00  0.00    +0.000 HD
BRANCH  20  22
ATOM     22  C   UNL     1       0.558   9.809  18.589  0.00  0.00    +0.000 A 
ATOM     23  C   UNL     1       0.614  10.386  19.863  0.00  0.00    +0.000 A 
ATOM     24  C   UNL     1      -0.444  11.165  20.360  0.00  0.00    +0.000 A 
ATOM     25  C   UNL     1      -1.582  11.382  19.588  0.00  0.00    +0.000 A 
ATOM     26  C   UNL     1      -1.654  10.822  18.318  0.00  0.00    +0.000 A 
ATOM     27 CL   UNL     1      -3.055  11.073  17.350  0.00  0.00    +0.000 Cl
ATOM     28  C   UNL     1      -0.602  10.040  17.831  0.00  0.00    +0.000 A 
ENDBRANCH  20  22
ENDBRANCH  19  20
ENDBRANCH   4  19
TORSDOF 9
ENDMDL
MODEL 2
REMARK VINA RESULT:      -7.8      0.719      1.182
REMARK  Name = 
REMARK  10 active torsions:
REMARK  status: ('A' for Active; 'I' for Inactive)
REMARK    1  A    between atoms: C_1  and  C_2
REMARK    2  A    between atoms: C_2  and  O_3
REMARK    3  A    between atoms: O_3  and  C_4
REMARK    4  A    between atoms: C_4  and  C_6
REMARK    5  A    between atoms: C_6  and  S_7
REMARK    6  A    between atoms: S_7  and  C_8
REMARK    7  A    between atoms: C_11  and  C_12
REMARK    8  A    between atoms: C_12  and  N_13
REMARK    9  A    between atoms: N_13  and  C_14
REMARK   10  A    between atoms: N_21  and  C_22
REMARK                            x       y       z     vdW  Elec       q    Type
REMARK                         _______ _______ _______ _____ _____    ______ ____
ROOT
ATOM      1  C   UNL     1       4.141   5.592  17.326  0.00  0.00    +0.000 A 
ATOM      2  N   UNL     1       4.601   6.732  16.865  0.00  0.00    +0.000 NA
ATOM      3  N   UNL     1       3.808   7.730  17.359  0.00  0.00    +0.000 NA
ATOM      4  C   UNL     1       2.878   7.186  18.126  0.00  0.00    +0.000 A 
ATOM      5  N   UNL     1       3.069   5.806  18.181  0.00  0.00    +0.000 N 
ENDROOT
BRANCH   5   6
ATOM      6  C   UNL     1       2.386   4.874  19.016  0.00  0.00    +0.000 A 
ATOM      7  C   UNL     1       2.688   4.786  20.379  0.00  0.00    +0.000 A 
ATOM      8  C   UNL     1       2.159   3.760  21.158  0.00  0.00    +0.000 A 
ATOM      9  C   UNL     1       1.278   2.843  20.593  0.00  0.00    +0.000 A 
ATOM     10  C   UNL     1       0.916   2.966  19.253  0.00  0.00    +0.000 A 
ATOM     11  C   UNL     1       1.470   3.973  18.461  0.00  0.00    +0.000 A 
ENDBRANCH   5   6
BRANCH   1  12
ATOM     12  S   UNL     1       4.653   4.035  16.746  0.00  0.00    +0.000 S 
BRANCH  12  13
ATOM     13  C   UNL     1       6.442   4.283  16.549  0.00  0.00    +0.000 C 
BRANCH  13  14
ATOM     14  C   UNL     1       6.782   4.581  15.100  0.00  0.00    +0.000 C 
ATOM     15  O   UNL     1       7.644   5.361  14.716  0.00  0.00    +0.000 OA
BRANCH  14  16
ATOM     16  O   UNL     1       5.889   3.952  14.279  0.00  0.00    +0.000 OA
BRANCH  16  18
ATOM     17  C   UNL     1       5.145   3.287  12.105  0.00  0.00    +0.000 C 
ATOM     18  C   UNL     1       6.344   3.698  12.940  0.00  0.00    +0.000 C 
ENDBRANCH  16  18
ENDBRANCH  14  16
ENDBRANCH  13  14
ENDBRANCH  12  13
ENDBRANCH   1  12
BRANCH   4  19
ATOM     19  C   UNL     1       1.840   7.969  18.886  0.00  0.00    +0.000 C 
BRANCH  19  20
ATOM     20  N   UNL     1       1.930   9.405  18.628  0.00  0.00    +0.000 N 
ATOM     21  H   UNL     1       2.725   9.830  19.101  0.00  0.00    +0.000 HD
BRANCH  20  22
ATOM     22  C   UNL     1       0.859  10.262  18.422  0.00  0.00    +0.000 A 
ATOM     23  C   UNL     1       0.844  11.612  18.788  0.00  0.00    +0.000 A 
ATOM     24  C   UNL     1      -0.330  12.379  18.706  0.00  0.00    +0.000 A 
ATOM     25  C   UNL     1      -1.516  11.806  18.255  0.00  0.00    +0.000 A 
ATOM     26  C   UNL     1      -1.520  10.467  17.882  0.00  0.00    +0.000 A 
ATOM     27 CL   UNL     1      -2.978   9.738  17.328  0.00  0.00    +0.000 Cl
ATOM     28  C   UNL     1      -0.351   9.706  17.973  0.00  0.00    +0.000 A 
ENDBRANCH  20  22
ENDBRANCH  19  20
ENDBRANCH   4  19
TORSDOF 9
ENDMDL
MODEL 3
REMARK VINA RESULT:      -7.8      1.620      2.622
REMARK  Name = 
REMARK  10 active torsions:
REMARK  status: ('A' for Active; 'I' for Inactive)
REMARK    1  A    between atoms: C_1  and  C_2
REMARK    2  A    between atoms: C_2  and  O_3
REMARK    3  A    between atoms: O_3  and  C_4
REMARK    4  A    between atoms: C_4  and  C_6
REMARK    5  A    between atoms: C_6  and  S_7
REMARK    6  A    between atoms: S_7  and  C_8
REMARK    7  A    between atoms: C_11  and  C_12
REMARK    8  A    between atoms: C_12  and  N_13
REMARK    9  A    between atoms: N_13  and  C_14
REMARK   10  A    between atoms: N_21  and  C_22
REMARK                            x       y       z     vdW  Elec       q    Type
REMARK                         _______ _______ _______ _____ _____    ______ ____
ROOT
ATOM      1  C   UNL     1       4.095   5.563  17.390  0.00  0.00    +0.000 A 
ATOM      2  N   UNL     1       4.562   6.676  16.873  0.00  0.00    +0.000 NA
ATOM      3  N   UNL     1       3.783   7.703  17.328  0.00  0.00    +0.000 NA
ATOM      4  C   UNL     1       2.854   7.204  18.126  0.00  0.00    +0.000 A 
ATOM      5  N   UNL     1       3.033   5.826  18.243  0.00  0.00    +0.000 N 
ENDROOT
BRANCH   5   6
ATOM      6  C   UNL     1       2.348   4.940  19.125  0.00  0.00    +0.000 A 
ATOM      7  C   UNL     1       2.662   4.911  20.487  0.00  0.00    +0.000 A 
ATOM      8  C   UNL     1       2.129   3.926  21.317  0.00  0.00    +0.000 A 
ATOM      9  C   UNL     1       1.235   2.995  20.802  0.00  0.00    +0.000 A 
ATOM     10  C   UNL     1       0.861   3.060  19.461  0.00  0.00    +0.000 A 
ATOM     11  C   UNL     1       1.418   4.025  18.619  0.00  0.00    +0.000 A 
ENDBRANCH   5   6
BRANCH   1  12
ATOM     12  S   UNL     1       4.587   3.975  16.877  0.00  0.00    +0.000 S 
BRANCH  12  13
ATOM     13  C   UNL     1       6.290   4.278  16.321  0.00  0.00    +0.000 C 
BRANCH  13  14
ATOM     14  C   UNL     1       7.137   4.807  17.463  0.00  0.00    +0.000 C 
ATOM     15  O   UNL     1       7.248   4.290  18.567  0.00  0.00    +0.000 OA
BRANCH  14  16
ATOM     16  O   UNL     1       7.654   6.027  17.127  0.00  0.00    +0.000 OA
BRANCH  16  18
ATOM     17  C   UNL     1       7.885   8.349  17.653  0.00  0.00    +0.000 C 
ATOM     18  C   UNL     1       7.858   6.940  18.217  0.00  0.00    +0.000 C 
ENDBRANCH  16  18
ENDBRANCH  14  16
ENDBRANCH  13  14
ENDBRANCH  12  13
ENDBRANCH   1  12
BRANCH   4  19
ATOM     19  C   UNL     1       1.830   8.031  18.859  0.00  0.00    +0.000 C 
BRANCH  19  20
ATOM     20  N   UNL     1       1.385   9.182  18.075  0.00  0.00    +0.000 N 
ATOM     21  H   UNL     1       2.151   9.623  17.571  0.00  0.00    +0.000 HD
BRANCH  20  22
ATOM     22  C   UNL     1       0.349  10.041  18.411  0.00  0.00    +0.000 A 
ATOM     23  C   UNL     1       0.393  10.959  19.467  0.00  0.00    +0.000 A 
ATOM     24  C   UNL     1      -0.748  11.678  19.860  0.00  0.00    +0.000 A 
ATOM     25  C   UNL     1      -1.960  11.488  19.203  0.00  0.00    +0.000 A 
ATOM     26  C   UNL     1      -2.024  10.585  18.149  0.00  0.00    +0.000 A 
ATOM     27 CL   UNL     1      -3.515  10.332  17.327  0.00  0.00    +0.000 Cl
ATOM     28  C   UNL     1      -0.887   9.866  17.766  0.00  0.00    +0.000 A 
ENDBRANCH  20  22
ENDBRANCH  19  20
ENDBRANCH   4  19
TORSDOF 9
ENDMDL
MODEL 4
REMARK VINA RESULT:      -7.6      2.144      3.079
REMARK  Name = 
REMARK  10 active torsions:
REMARK  status: ('A' for Active; 'I' for Inactive)
REMARK    1  A    between atoms: C_1  and  C_2
REMARK    2  A    between atoms: C_2  and  O_3
REMARK    3  A    between atoms: O_3  and  C_4
REMARK    4  A    between atoms: C_4  and  C_6
REMARK    5  A    between atoms: C_6  and  S_7
REMARK    6  A    between atoms: S_7  and  C_8
REMARK    7  A    between atoms: C_11  and  C_12
REMARK    8  A    between atoms: C_12  and  N_13
REMARK    9  A    between atoms: N_13  and  C_14
REMARK   10  A    between atoms: N_21  and  C_22
REMARK                            x       y       z     vdW  Elec       q    Type
REMARK                         _______ _______ _______ _____ _____    ______ ____
ROOT
ATOM      1  C   UNL     1       3.951   5.579  17.489  0.00  0.00    +0.000 A 
ATOM      2  N   UNL     1       4.383   6.723  17.011  0.00  0.00    +0.000 NA
ATOM      3  N   UNL     1       3.616   7.715  17.554  0.00  0.00    +0.000 NA
ATOM      4  C   UNL     1       2.730   7.164  18.367  0.00  0.00    +0.000 A 
ATOM      5  N   UNL     1       2.927   5.785  18.403  0.00  0.00    +0.000 N 
ENDROOT
BRANCH   5   6
ATOM      6  C   UNL     1       2.293   4.846  19.268  0.00  0.00    +0.000 A 
ATOM      7  C   UNL     1       2.646   4.773  20.619  0.00  0.00    +0.000 A 
ATOM      8  C   UNL     1       2.165   3.742  21.424  0.00  0.00    +0.000 A 
ATOM      9  C   UNL     1       1.282   2.805  20.896  0.00  0.00    +0.000 A 
ATOM     10  C   UNL     1       0.869   2.912  19.570  0.00  0.00    +0.000 A 
ATOM     11  C   UNL     1       1.375   3.924  18.752  0.00  0.00    +0.000 A 
ENDBRANCH   5   6
BRANCH   1  12
ATOM     12  S   UNL     1       4.435   4.026  16.872  0.00  0.00    +0.000 S 
BRANCH  12  13
ATOM     13  C   UNL     1       6.115   4.373  16.274  0.00  0.00    +0.000 C 
BRANCH  13  14
ATOM     14  C   UNL     1       7.012   4.800  17.422  0.00  0.00    +0.000 C 
ATOM     15  O   UNL     1       7.103   4.234  18.504  0.00  0.00    +0.000 OA
BRANCH  14  16
ATOM     16  O   UNL     1       7.604   5.995  17.124  0.00  0.00    +0.000 OA
BRANCH  16  18
ATOM     17  C   UNL     1       7.944   8.299  17.672  0.00  0.00    +0.000 C 
ATOM     18  C   UNL     1       7.782   6.896  18.229  0.00  0.00    +0.000 C 
ENDBRANCH  16  18
ENDBRANCH  14  16
ENDBRANCH  13  14
ENDBRANCH  12  13
ENDBRANCH   1  12
BRANCH   4  19
ATOM     19  C   UNL     1       1.733   7.939  19.187  0.00  0.00    +0.000 C 
BRANCH  19  20
ATOM     20  N   UNL     1       1.351   9.199  18.550  0.00  0.00    +0.000 N 
ATOM     21  H   UNL     1       1.805   9.325  17.649  0.00  0.00    +0.000 HD
BRANCH  20  22
ATOM     22  C   UNL     1       1.042  10.380  19.209  0.00  0.00    +0.000 A 
ATOM     23  C   UNL     1       1.525  11.641  18.841  0.00  0.00    +0.000 A 
ATOM     24  C   UNL     1       1.311  12.770  19.648  0.00  0.00    +0.000 A 
ATOM     25  C   UNL     1       0.609  12.658  20.845  0.00  0.00    +0.000 A 
ATOM     26  C   UNL     1       0.117  11.415  21.225  0.00  0.00    +0.000 A 
ATOM     27 CL   UNL     1      -0.750  11.254  22.704  0.00  0.00    +0.000 Cl
ATOM     28  C   UNL     1       0.339  10.293  20.422  0.00  0.00    +0.000 A 
ENDBRANCH  20  22
ENDBRANCH  19  20
ENDBRANCH   4  19
TORSDOF 9
ENDMDL
MODEL 5
REMARK VINA RESULT:      -7.6      1.197      1.517
REMARK  Name = 
REMARK  10 active torsions:
REMARK  status: ('A' for Active; 'I' for Inactive)
REMARK    1  A    between atoms: C_1  and  C_2
REMARK    2  A    between atoms: C_2  and  O_3
REMARK    3  A    between atoms: O_3  and  C_4
REMARK    4  A    between atoms: C_4  and  C_6
REMARK    5  A    between atoms: C_6  and  S_7
REMARK    6  A    between atoms: S_7  and  C_8
REMARK    7  A    between atoms: C_11  and  C_12
REMARK    8  A    between atoms: C_12  and  N_13
REMARK    9  A    between atoms: N_13  and  C_14
REMARK   10  A    between atoms: N_21  and  C_22
REMARK                            x       y       z     vdW  Elec       q    Type
REMARK                         _______ _______ _______ _____ _____    ______ ____
ROOT
ATOM      1  C   UNL     1       4.169   5.570  17.488  0.00  0.00    +0.000 A 
ATOM      2  N   UNL     1       4.529   6.752  17.045  0.00  0.00    +0.000 NA
ATOM      3  N   UNL     1       3.675   7.674  17.582  0.00  0.00    +0.000 NA
ATOM      4  C   UNL     1       2.809   7.043  18.358  0.00  0.00    +0.000 A 
ATOM      5  N   UNL     1       3.107   5.681  18.374  0.00  0.00    +0.000 N 
ENDROOT
BRANCH   5   6
ATOM      6  C   UNL     1       2.519   4.681  19.202  0.00  0.00    +0.000 A 
ATOM      7  C   UNL     1       1.531   3.830  18.696  0.00  0.00    +0.000 A 
ATOM      8  C   UNL     1       0.827   2.977  19.543  0.00  0.00    +0.000 A 
ATOM      9  C   UNL     1       1.144   2.927  20.896  0.00  0.00    +0.000 A 
ATOM     10  C   UNL     1       2.176   3.719  21.396  0.00  0.00    +0.000 A 
ATOM     11  C   UNL     1       2.861   4.599  20.557  0.00  0.00    +0.000 A 
ENDBRANCH   5   6
BRANCH   1  12
ATOM     12  S   UNL     1       4.784   4.070  16.858  0.00  0.00    +0.000 S 
BRANCH  12  13
ATOM     13  C   UNL     1       6.553   4.440  16.682  0.00  0.00    +0.000 C 
BRANCH  13  14
ATOM     14  C   UNL     1       6.930   4.557  15.217  0.00  0.00    +0.000 C 
ATOM     15  O   UNL     1       7.598   5.457  14.722  0.00  0.00    +0.000 OA
BRANCH  14  16
ATOM     16  O   UNL     1       6.297   3.582  14.499  0.00  0.00    +0.000 OA
BRANCH  16  18
ATOM     17  C   UNL     1       6.291   3.218  12.135  0.00  0.00    +0.000 C 
ATOM     18  C   UNL     1       5.679   4.011  13.275  0.00  0.00    +0.000 C 
ENDBRANCH  16  18
ENDBRANCH  14  16
ENDBRANCH  13  14
ENDBRANCH  12  13
ENDBRANCH   1  12
BRANCH   4  19
ATOM     19  C   UNL     1       1.735   7.726  19.162  0.00  0.00    +0.000 C 
BRANCH  19  20
ATOM     20  N   UNL     1       1.583   9.135  18.800  0.00  0.00    +0.000 N 
ATOM     21  H   UNL     1       2.473   9.627  18.793  0.00  0.00    +0.000 HD
BRANCH  20  22
ATOM     22  C   UNL     1       0.486   9.934  19.091  0.00  0.00    +0.000 A 
ATOM     23  C   UNL     1      -0.564  10.189  18.202  0.00  0.00    +0.000 A 
ATOM     24  C   UNL     1      -1.556  11.140  18.495  0.00  0.00    +0.000 A 
ATOM     25  C   UNL     1      -1.513  11.856  19.688  0.00  0.00    +0.000 A 
ATOM     26  C   UNL     1      -0.481  11.614  20.586  0.00  0.00    +0.000 A 
ATOM     27 CL   UNL     1      -0.407  12.493  22.064  0.00  0.00    +0.000 Cl
ATOM     28  C   UNL     1       0.508  10.672  20.286  0.00  0.00    +0.000 A 
ENDBRANCH  20  22
ENDBRANCH  19  20
ENDBRANCH   4  19
TORSDOF 9
ENDMDL
MODEL 6
REMARK VINA RESULT:      -7.5      1.818      2.772
REMARK  Name = 
REMARK  10 active torsions:
REMARK  status: ('A' for Active; 'I' for Inactive)
REMARK    1  A    between atoms: C_1  and  C_2
REMARK    2  A    between atoms: C_2  and  O_3
REMARK    3  A    between atoms: O_3  and  C_4
REMARK    4  A    between atoms: C_4  and  C_6
REMARK    5  A    between atoms: C_6  and  S_7
REMARK    6  A    between atoms: S_7  and  C_8
REMARK    7  A    between atoms: C_11  and  C_12
REMARK    8  A    between atoms: C_12  and  N_13
REMARK    9  A    between atoms: N_13  and  C_14
REMARK   10  A    between atoms: N_21  and  C_22
REMARK                            x       y       z     vdW  Elec       q    Type
REMARK                         _______ _______ _______ _____ _____    ______ ____
ROOT
ATOM      1  C   UNL     1       3.857   5.566  17.521  0.00  0.00    +0.000 A 
ATOM      2  N   UNL     1       4.305   6.711  17.060  0.00  0.00    +0.000 NA
ATOM      3  N   UNL     1       3.623   7.710  17.695  0.00  0.00    +0.000 NA
ATOM      4  C   UNL     1       2.772   7.162  18.547  0.00  0.00    +0.000 A 
ATOM      5  N   UNL     1       2.909   5.775  18.513  0.00  0.00    +0.000 N 
ENDROOT
BRANCH   5   6
ATOM      6  C   UNL     1       2.295   4.827  19.382  0.00  0.00    +0.000 A 
ATOM      7  C   UNL     1       2.717   4.702  20.710  0.00  0.00    +0.000 A 
ATOM      8  C   UNL     1       2.250   3.660  21.509  0.00  0.00    +0.000 A 
ATOM      9  C   UNL     1       1.315   2.764  21.002  0.00  0.00    +0.000 A 
ATOM     10  C   UNL     1       0.834   2.923  19.703  0.00  0.00    +0.000 A 
ATOM     11  C   UNL     1       1.325   3.946  18.890  0.00  0.00    +0.000 A 
ENDBRANCH   5   6
BRANCH   1  12
ATOM     12  S   UNL     1       4.226   4.023  16.809  0.00  0.00    +0.000 S 
BRANCH  12  13
ATOM     13  C   UNL     1       5.313   4.500  15.434  0.00  0.00    +0.000 C 
BRANCH  13  14
ATOM     14  C   UNL     1       6.702   4.836  15.945  0.00  0.00    +0.000 C 
ATOM     15  O   UNL     1       7.579   5.404  15.307  0.00  0.00    +0.000 OA
BRANCH  14  16
ATOM     16  O   UNL     1       6.883   4.285  17.183  0.00  0.00    +0.000 OA
BRANCH  16  18
ATOM     17  C   UNL     1       6.912   5.451  19.271  0.00  0.00    +0.000 C 
ATOM     18  C   UNL     1       7.739   5.019  18.074  0.00  0.00    +0.000 C 
ENDBRANCH  16  18
ENDBRANCH  14  16
ENDBRANCH  13  14
ENDBRANCH  12  13
ENDBRANCH   1  12
BRANCH   4  19
ATOM     19  C   UNL     1       1.870   7.942  19.467  0.00  0.00    +0.000 C 
BRANCH  19  20
ATOM     20  N   UNL     1       1.285   9.110  18.810  0.00  0.00    +0.000 N 
ATOM     21  H   UNL     1       1.872   9.459  18.056  0.00  0.00    +0.000 HD
BRANCH  20  22
ATOM     22  C   UNL     1       0.498  10.076  19.421  0.00  0.00    +0.000 A 
ATOM     23  C   UNL     1       0.201  11.323  18.862  0.00  0.00    +0.000 A 
ATOM     24  C   UNL     1      -0.458  12.318  19.603  0.00  0.00    +0.000 A 
ATOM     25  C   UNL     1      -0.831  12.082  20.923  0.00  0.00    +0.000 A 
ATOM     26  C   UNL     1      -0.549  10.848  21.495  0.00  0.00    +0.000 A 
ATOM     27 CL   UNL     1      -0.997  10.538  23.128  0.00  0.00    +0.000 Cl
ATOM     28  C   UNL     1       0.114   9.864  20.756  0.00  0.00    +0.000 A 
ENDBRANCH  20  22
ENDBRANCH  19  20
ENDBRANCH   4  19
TORSDOF 9
ENDMDL
MODEL 7
REMARK VINA RESULT:      -7.5      1.334      1.591
REMARK  Name = 
REMARK  10 active torsions:
REMARK  status: ('A' for Active; 'I' for Inactive)
REMARK    1  A    between atoms: C_1  and  C_2
REMARK    2  A    between atoms: C_2  and  O_3
REMARK    3  A    between atoms: O_3  and  C_4
REMARK    4  A    between atoms: C_4  and  C_6
REMARK    5  A    between atoms: C_6  and  S_7
REMARK    6  A    between atoms: S_7  and  C_8
REMARK    7  A    between atoms: C_11  and  C_12
REMARK    8  A    between atoms: C_12  and  N_13
REMARK    9  A    between atoms: N_13  and  C_14
REMARK   10  A    between atoms: N_21  and  C_22
REMARK                            x       y       z     vdW  Elec       q    Type
REMARK                         _______ _______ _______ _____ _____    ______ ____
ROOT
ATOM      1  C   UNL     1       4.610   5.716  17.528  0.00  0.00    +0.000 A 
ATOM      2  N   UNL     1       5.044   6.901  17.166  0.00  0.00    +0.000 NA
ATOM      3  N   UNL     1       4.081   7.813  17.495  0.00  0.00    +0.000 NA
ATOM      4  C   UNL     1       3.073   7.173  18.065  0.00  0.00    +0.000 A 
ATOM      5  N   UNL     1       3.377   5.816  18.157  0.00  0.00    +0.000 N 
ENDROOT
BRANCH   5   6
ATOM      6  C   UNL     1       2.634   4.811  18.841  0.00  0.00    +0.000 A 
ATOM      7  C   UNL     1       1.690   4.036  18.159  0.00  0.00    +0.000 A 
ATOM      8  C   UNL     1       0.836   3.182  18.855  0.00  0.00    +0.000 A 
ATOM      9  C   UNL     1       0.956   3.055  20.234  0.00  0.00    +0.000 A 
ATOM     10  C   UNL     1       1.941   3.770  20.914  0.00  0.00    +0.000 A 
ATOM     11  C   UNL     1       2.776   4.651  20.224  0.00  0.00    +0.000 A 
ENDBRANCH   5   6
BRANCH   1  12
ATOM     12  S   UNL     1       5.368   4.222  17.060  0.00  0.00    +0.000 S 
BRANCH  12  13
ATOM     13  C   UNL     1       5.272   4.311  15.248  0.00  0.00    +0.000 C 
BRANCH  13  14
ATOM     14  C   UNL     1       6.647   4.556  14.653  0.00  0.00    +0.000 C 
ATOM     15  O   UNL     1       7.457   5.385  15.049  0.00  0.00    +0.000 OA
BRANCH  14  16
ATOM     16  O   UNL     1       6.797   3.811  13.518  0.00  0.00    +0.000 OA
BRANCH  16  18
ATOM     17  C   UNL     1       5.841   2.507  11.754  0.00  0.00    +0.000 C 
ATOM     18  C   UNL     1       5.622   3.673  12.702  0.00  0.00    +0.000 C 
ENDBRANCH  16  18
ENDBRANCH  14  16
ENDBRANCH  13  14
ENDBRANCH  12  13
ENDBRANCH   1  12
BRANCH   4  19
ATOM     19  C   UNL     1       1.838   7.844  18.607  0.00  0.00    +0.000 C 
BRANCH  19  20
ATOM     20  N   UNL     1       1.859   7.947  20.065  0.00  0.00    +0.000 N 
ATOM     21  H   UNL     1       1.993   7.043  20.511  0.00  0.00    +0.000 HD
BRANCH  20  22
ATOM     22  C   UNL     1       1.145   8.863  20.825  0.00  0.00    +0.000 A 
ATOM     23  C   UNL     1       1.033   8.818  22.219  0.00  0.00    +0.000 A 
ATOM     24  C   UNL     1       0.159   9.673  22.910  0.00  0.00    +0.000 A 
ATOM     25  C   UNL     1      -0.624  10.590  22.216  0.00  0.00    +0.000 A 
ATOM     26  C   UNL     1      -0.524  10.654  20.832  0.00  0.00    +0.000 A 
ATOM     27 CL   UNL     1      -1.487  11.778  19.954  0.00  0.00    +0.000 Cl
ATOM     28  C   UNL     1       0.342   9.796  20.147  0.00  0.00    +0.000 A 
ENDBRANCH  20  22
ENDBRANCH  19  20
ENDBRANCH   4  19
TORSDOF 9
ENDMDL
MODEL 8
REMARK VINA RESULT:      -7.5      3.034      4.988
REMARK  Name = 
REMARK  10 active torsions:
REMARK  status: ('A' for Active; 'I' for Inactive)
REMARK    1  A    between atoms: C_1  and  C_2
REMARK    2  A    between atoms: C_2  and  O_3
REMARK    3  A    between atoms: O_3  and  C_4
REMARK    4  A    between atoms: C_4  and  C_6
REMARK    5  A    between atoms: C_6  and  S_7
REMARK    6  A    between atoms: S_7  and  C_8
REMARK    7  A    between atoms: C_11  and  C_12
REMARK    8  A    between atoms: C_12  and  N_13
REMARK    9  A    between atoms: N_13  and  C_14
REMARK   10  A    between atoms: N_21  and  C_22
REMARK                            x       y       z     vdW  Elec       q    Type
REMARK                         _______ _______ _______ _____ _____    ______ ____
ROOT
ATOM      1  C   UNL     1       3.072   3.956  17.452  0.00  0.00    +0.000 A 
ATOM      2  N   UNL     1       1.773   4.104  17.332  0.00  0.00    +0.000 NA
ATOM      3  N   UNL     1       1.457   5.360  17.768  0.00  0.00    +0.000 NA
ATOM      4  C   UNL     1       2.571   5.969  18.140  0.00  0.00    +0.000 A 
ATOM      5  N   UNL     1       3.658   5.126  17.915  0.00  0.00    +0.000 N 
ENDROOT
BRANCH   5   6
ATOM      6  C   UNL     1       5.040   5.453  18.032  0.00  0.00    +0.000 A 
ATOM      7  C   UNL     1       5.745   5.155  19.203  0.00  0.00    +0.000 A 
ATOM      8  C   UNL     1       7.040   5.632  19.392  0.00  0.00    +0.000 A 
ATOM      9  C   UNL     1       7.663   6.366  18.388  0.00  0.00    +0.000 A 
ATOM     10  C   UNL     1       6.995   6.606  17.188  0.00  0.00    +0.000 A 
ATOM     11  C   UNL     1       5.684   6.158  17.009  0.00  0.00    +0.000 A 
ENDBRANCH   5   6
BRANCH   1  12
ATOM     12  S   UNL     1       3.893   2.432  17.287  0.00  0.00    +0.000 S 
BRANCH  12  13
ATOM     13  C   UNL     1       3.367   1.563  18.792  0.00  0.00    +0.000 C 
BRANCH  13  14
ATOM     14  C   UNL     1       4.051   2.149  20.013  0.00  0.00    +0.000 C 
ATOM     15  O   UNL     1       5.144   1.811  20.449  0.00  0.00    +0.000 OA
BRANCH  14  16
ATOM     16  O   UNL     1       3.205   3.020  20.641  0.00  0.00    +0.000 OA
BRANCH  16  18
ATOM     17  C   UNL     1       1.301   2.549  22.010  0.00  0.00    +0.000 C 
ATOM     18  C   UNL     1       1.810   2.683  20.586  0.00  0.00    +0.000 C 
ENDBRANCH  16  18
ENDBRANCH  14  16
ENDBRANCH  13  14
ENDBRANCH  12  13
ENDBRANCH   1  12
BRANCH   4  19
ATOM     19  C   UNL     1       2.637   7.389  18.638  0.00  0.00    +0.000 C 
BRANCH  19  20
ATOM     20  N   UNL     1       2.275   7.498  20.050  0.00  0.00    +0.000 N 
ATOM     21  H   UNL     1       2.186   6.587  20.494  0.00  0.00    +0.000 HD
BRANCH  20  22
ATOM     22  C   UNL     1       1.484   8.490  20.611  0.00  0.00    +0.000 A 
ATOM     23  C   UNL     1       1.046   8.496  21.940  0.00  0.00    +0.000 A 
ATOM     24  C   UNL     1       0.112   9.439  22.398  0.00  0.00    +0.000 A 
ATOM     25  C   UNL     1      -0.406  10.396  21.530  0.00  0.00    +0.000 A 
ATOM     26  C   UNL     1       0.019  10.410  20.208  0.00  0.00    +0.000 A 
ATOM     27 CL   UNL     1      -0.613  11.582  19.117  0.00  0.00    +0.000 Cl
ATOM     28  C   UNL     1       0.944   9.465  19.755  0.00  0.00    +0.000 A 
ENDBRANCH  20  22
ENDBRANCH  19  20
ENDBRANCH   4  19
TORSDOF 9
ENDMDL
MODEL 9
REMARK VINA RESULT:      -7.5      3.154      5.136
REMARK  Name = 
REMARK  10 active torsions:
REMARK  status: ('A' for Active; 'I' for Inactive)
REMARK    1  A    between atoms: C_1  and  C_2
REMARK    2  A    between atoms: C_2  and  O_3
REMARK    3  A    between atoms: O_3  and  C_4
REMARK    4  A    between atoms: C_4  and  C_6
REMARK    5  A    between atoms: C_6  and  S_7
REMARK    6  A    between atoms: S_7  and  C_8
REMARK    7  A    between atoms: C_11  and  C_12
REMARK    8  A    between atoms: C_12  and  N_13
REMARK    9  A    between atoms: N_13  and  C_14
REMARK   10  A    between atoms: N_21  and  C_22
REMARK                            x       y       z     vdW  Elec       q    Type
REMARK                         _______ _______ _______ _____ _____    ______ ____
ROOT
ATOM      1  C   UNL     1       2.913   4.056  17.643  0.00  0.00    +0.000 A 
ATOM      2  N   UNL     1       1.635   4.323  17.509  0.00  0.00    +0.000 NA
ATOM      3  N   UNL     1       1.462   5.657  17.754  0.00  0.00    +0.000 NA
ATOM      4  C   UNL     1       2.642   6.190  18.024  0.00  0.00    +0.000 A 
ATOM      5  N   UNL     1       3.629   5.211  17.923  0.00  0.00    +0.000 N 
ENDROOT
BRANCH   5   6
ATOM      6  C   UNL     1       5.041   5.401  17.982  0.00  0.00    +0.000 A 
ATOM      7  C   UNL     1       5.731   5.233  19.187  0.00  0.00    +0.000 A 
ATOM      8  C   UNL     1       7.073   5.591  19.292  0.00  0.00    +0.000 A 
ATOM      9  C   UNL     1       7.752   6.071  18.177  0.00  0.00    +0.000 A 
ATOM     10  C   UNL     1       7.092   6.173  16.954  0.00  0.00    +0.000 A 
ATOM     11  C   UNL     1       5.738   5.847  16.853  0.00  0.00    +0.000 A 
ENDBRANCH   5   6
BRANCH   1  12
ATOM     12  S   UNL     1       3.565   2.444  17.703  0.00  0.00    +0.000 S 
BRANCH  12  13
ATOM     13  C   UNL     1       2.911   1.839  19.285  0.00  0.00    +0.000 C 
BRANCH  13  14
ATOM     14  C   UNL     1       3.858   2.183  20.420  0.00  0.00    +0.000 C 
ATOM     15  O   UNL     1       5.073   2.031  20.405  0.00  0.00    +0.000 OA
BRANCH  14  16
ATOM     16  O   UNL     1       3.141   2.560  21.521  0.00  0.00    +0.000 OA
BRANCH  16  18
ATOM     17  C   UNL     1       2.080   4.683  21.223  0.00  0.00    +0.000 C 
ATOM     18  C   UNL     1       1.872   3.180  21.256  0.00  0.00    +0.000 C 
ENDBRANCH  16  18
ENDBRANCH  14  16
ENDBRANCH  13  14
ENDBRANCH  12  13
ENDBRANCH   1  12
BRANCH   4  19
ATOM     19  C   UNL     1       2.869   7.653  18.304  0.00  0.00    +0.000 C 
BRANCH  19  20
ATOM     20  N   UNL     1       1.647   8.441  18.155  0.00  0.00    +0.000 N 
ATOM     21  H   UNL     1       1.431   8.632  17.179  0.00  0.00    +0.000 HD
BRANCH  20  22
ATOM     22  C   UNL     1       1.186   9.401  19.044  0.00  0.00    +0.000 A 
ATOM     23  C   UNL     1       1.099  10.768  18.758  0.00  0.00    +0.000 A 
ATOM     24  C   UNL     1       0.787  11.706  19.755  0.00  0.00    +0.000 A 
ATOM     25  C   UNL     1       0.556  11.291  21.064  0.00  0.00    +0.000 A 
ATOM     26  C   UNL     1       0.633   9.938  21.368  0.00  0.00    +0.000 A 
ATOM     27 CL   UNL     1       0.357   9.405  22.981  0.00  0.00    +0.000 Cl
ATOM     28  C   UNL     1       0.952   9.009  20.373  0.00  0.00    +0.000 A 
ENDBRANCH  20  22
ENDBRANCH  19  20
ENDBRANCH   4  19
TORSDOF 9
ENDMDL
