MODEL 1
REMARK VINA RESULT:      -8.3      0.000      0.000
REMARK  Name = 
REMARK  9 active torsions:
REMARK  status: ('A' for Active; 'I' for Inactive)
REMARK    1  A    between atoms: C_1  and  N_2
REMARK    2  A    between atoms: N_2  and  C_3
REMARK    3  A    between atoms: N_2  and  C_4
REMARK    4  A    between atoms: C_4  and  C_5
REMARK    5  A    between atoms: C_8  and  C_9
REMARK    6  A    between atoms: C_11  and  C_12
REMARK    7  A    between atoms: C_14  and  N_15
REMARK    8  A    between atoms: N_15  and  C_16
REMARK    9  A    between atoms: C_16  and  C_17
REMARK                            x       y       z     vdW  Elec       q    Type
REMARK                         _______ _______ _______ _____ _____    ______ ____
ROOT
ATOM      1  C   UNL     1       1.299   7.983  20.494  0.00  0.00    +0.000 A 
ATOM      2  C   UNL     1       1.351   6.798  21.146  0.00  0.00    +0.000 A 
ATOM      3  C   UNL     1       2.027   5.648  20.577  0.00  0.00    +0.000 A 
ATOM      4  C   UNL     1       2.631   5.738  19.359  0.00  0.00    +0.000 A 
ATOM      5  N   UNL     1       2.572   6.987  18.717  0.00  0.00    +0.000 N 
ATOM      6  C   UNL     1       3.115   7.406  17.528  0.00  0.00    +0.000 A 
ATOM      7  N   UNL     1       2.800   8.660  17.298  0.00  0.00    +0.000 NA
ATOM      8  N   UNL     1       2.054   9.103  18.365  0.00  0.00    +0.000 NA
ATOM      9  C   UNL     1       1.930   8.107  19.220  0.00  0.00    +0.000 A 
ENDROOT
BRANCH   1  13
ATOM     10  C   UNL     1      -0.671  11.178  22.502  0.00  0.00    +0.000 A 
ATOM     11  C   UNL     1       0.059  11.420  21.329  0.00  0.00    +0.000 A 
ATOM     12  C   UNL     1       0.690  10.374  20.667  0.00  0.00    +0.000 A 
ATOM     13  C   UNL     1       0.610   9.078  21.181  0.00  0.00    +0.000 A 
ATOM     14  C   UNL     1      -0.096   8.830  22.363  0.00  0.00    +0.000 A 
ATOM     15  C   UNL     1      -0.732   9.877  23.022  0.00  0.00    +0.000 A 
BRANCH  10  16
ATOM     16  C   UNL     1      -1.477  12.292  23.133  0.00  0.00    +0.000 C 
BRANCH  16  18
ATOM     17  C   UNL     1      -3.693  12.508  24.123  0.00  0.00    +0.000 C 
ATOM     18  N   UNL     1      -2.925  12.108  22.938  0.00  0.00    +0.000 NA
ATOM     19  C   UNL     1      -3.377  12.867  21.774  0.00  0.00    +0.000 C 
ENDBRANCH  16  18
ENDBRANCH  10  16
ENDBRANCH   1  13
BRANCH   3  20
ATOM     20  C   UNL     1       2.059   4.328  21.330  0.00  0.00    +0.000 C 
ATOM     21  N   UNL     1       2.085   3.232  21.955  0.00  0.00    +0.000 NA
ENDBRANCH   3  20
BRANCH   4  22
ATOM     22  N   UNL     1       3.323   4.732  18.681  0.00  0.00    +0.000 N 
ATOM     23  H   UNL     1       3.152   4.743  17.675  0.00  0.00    +0.000 HD
BRANCH  22  24
ATOM     24  C   UNL     1       4.731   4.425  18.947  0.00  0.00    +0.000 C 
BRANCH  24  25
ATOM     25  C   UNL     1       5.466   4.416  17.632  0.00  0.00    +0.000 A 
ATOM     26  C   UNL     1       6.847   4.658  17.574  0.00  0.00    +0.000 A 
ATOM     27  C   UNL     1       7.500   4.739  16.342  0.00  0.00    +0.000 A 
ATOM     28  C   UNL     1       6.782   4.582  15.157  0.00  0.00    +0.000 A 
ATOM     29  C   UNL     1       5.413   4.329  15.202  0.00  0.00    +0.000 A 
ATOM     30  C   UNL     1       4.759   4.242  16.431  0.00  0.00    +0.000 A 
ENDBRANCH  24  25
ENDBRANCH  22  24
ENDBRANCH   4  22
TORSDOF 7
ENDMDL
MODEL 2
REMARK VINA RESULT:      -8.2      2.183      4.017
REMARK  Name = 
REMARK  9 active torsions:
REMARK  status: ('A' for Active; 'I' for Inactive)
REMARK    1  A    between atoms: C_1  and  N_2
REMARK    2  A    between atoms: N_2  and  C_3
REMARK    3  A    between atoms: N_2  and  C_4
REMARK    4  A    between atoms: C_4  and  C_5
REMARK    5  A    between atoms: C_8  and  C_9
REMARK    6  A    between atoms: C_11  and  C_12
REMARK    7  A    between atoms: C_14  and  N_15
REMARK    8  A    between atoms: N_15  and  C_16
REMARK    9  A    between atoms: C_16  and  C_17
REMARK                            x       y       z     vdW  Elec       q    Type
REMARK                         _______ _______ _______ _____ _____    ______ ____
ROOT
ATOM      1  C   UNL     1       3.050   6.825  18.265  0.00  0.00    +0.000 A 
ATOM      2  C   UNL     1       4.309   7.240  17.993  0.00  0.00    +0.000 A 
ATOM      3  C   UNL     1       5.295   6.347  17.417  0.00  0.00    +0.000 A 
ATOM      4  C   UNL     1       4.972   5.054  17.135  0.00  0.00    +0.000 A 
ATOM      5  N   UNL     1       3.651   4.660  17.414  0.00  0.00    +0.000 N 
ATOM      6  C   UNL     1       3.013   3.463  17.200  0.00  0.00    +0.000 A 
ATOM      7  N   UNL     1       1.773   3.524  17.628  0.00  0.00    +0.000 NA
ATOM      8  N   UNL     1       1.563   4.794  18.112  0.00  0.00    +0.000 NA
ATOM      9  C   UNL     1       2.681   5.476  17.971  0.00  0.00    +0.000 A 
ENDROOT
BRANCH   1  13
ATOM     10  C   UNL     1       0.421   9.757  19.878  0.00  0.00    +0.000 A 
ATOM     11  C   UNL     1       0.761   9.782  18.519  0.00  0.00    +0.000 A 
ATOM     12  C   UNL     1       1.608   8.815  17.989  0.00  0.00    +0.000 A 
ATOM     13  C   UNL     1       2.136   7.825  18.821  0.00  0.00    +0.000 A 
ATOM     14  C   UNL     1       1.821   7.806  20.184  0.00  0.00    +0.000 A 
ATOM     15  C   UNL     1       0.968   8.771  20.710  0.00  0.00    +0.000 A 
BRANCH  10  16
ATOM     16  C   UNL     1      -0.617  10.719  20.415  0.00  0.00    +0.000 C 
BRANCH  16  18
ATOM     17  C   UNL     1       0.257  12.775  21.387  0.00  0.00    +0.000 C 
ATOM     18  N   UNL     1      -0.166  11.394  21.644  0.00  0.00    +0.000 NA
ATOM     19  C   UNL     1      -1.230  11.378  22.646  0.00  0.00    +0.000 C 
ENDBRANCH  16  18
ENDBRANCH  10  16
ENDBRANCH   1  13
BRANCH   3  20
ATOM     20  C   UNL     1       6.704   6.842  17.134  0.00  0.00    +0.000 C 
ATOM     21  N   UNL     1       7.873   7.253  16.898  0.00  0.00    +0.000 NA
ENDBRANCH   3  20
BRANCH   4  22
ATOM     22  N   UNL     1       5.799   4.076  16.578  0.00  0.00    +0.000 N 
ATOM     23  H   UNL     1       6.200   3.453  17.278  0.00  0.00    +0.000 HD
BRANCH  22  24
ATOM     24  C   UNL     1       5.428   3.315  15.382  0.00  0.00    +0.000 C 
BRANCH  24  25
ATOM     25  C   UNL     1       6.238   3.837  14.223  0.00  0.00    +0.000 A 
ATOM     26  C   UNL     1       7.175   4.865  14.400  0.00  0.00    +0.000 A 
ATOM     27  C   UNL     1       7.852   5.402  13.302  0.00  0.00    +0.000 A 
ATOM     28  C   UNL     1       7.597   4.921  12.020  0.00  0.00    +0.000 A 
ATOM     29  C   UNL     1       6.677   3.892  11.832  0.00  0.00    +0.000 A 
ATOM     30  C   UNL     1       6.005   3.349  12.927  0.00  0.00    +0.000 A 
ENDBRANCH  24  25
ENDBRANCH  22  24
ENDBRANCH   4  22
TORSDOF 7
ENDMDL
MODEL 3
REMARK VINA RESULT:      -8.2      2.244      4.204
REMARK  Name = 
REMARK  9 active torsions:
REMARK  status: ('A' for Active; 'I' for Inactive)
REMARK    1  A    between atoms: C_1  and  N_2
REMARK    2  A    between atoms: N_2  and  C_3
REMARK    3  A    between atoms: N_2  and  C_4
REMARK    4  A    between atoms: C_4  and  C_5
REMARK    5  A    between atoms: C_8  and  C_9
REMARK    6  A    between atoms: C_11  and  C_12
REMARK    7  A    between atoms: C_14  and  N_15
REMARK    8  A    between atoms: N_15  and  C_16
REMARK    9  A    between atoms: C_16  and  C_17
REMARK                            x       y       z     vdW  Elec       q    Type
REMARK                         _______ _______ _______ _____ _____    ______ ____
ROOT
ATOM      1  C   UNL     1       3.069   6.908  18.220  0.00  0.00    +0.000 A 
ATOM      2  C   UNL     1       4.329   7.320  17.945  0.00  0.00    +0.000 A 
ATOM      3  C   UNL     1       5.318   6.417  17.390  0.00  0.00    +0.000 A 
ATOM      4  C   UNL     1       4.997   5.118  17.131  0.00  0.00    +0.000 A 
ATOM      5  N   UNL     1       3.675   4.728  17.413  0.00  0.00    +0.000 N 
ATOM      6  C   UNL     1       3.040   3.527  17.219  0.00  0.00    +0.000 A 
ATOM      7  N   UNL     1       1.797   3.595  17.640  0.00  0.00    +0.000 NA
ATOM      8  N   UNL     1       1.584   4.873  18.100  0.00  0.00    +0.000 NA
ATOM      9  C   UNL     1       2.703   5.554  17.950  0.00  0.00    +0.000 A 
ENDROOT
BRANCH   1  13
ATOM     10  C   UNL     1       0.378   9.816  19.775  0.00  0.00    +0.000 A 
ATOM     11  C   UNL     1       0.927   8.837  20.615  0.00  0.00    +0.000 A 
ATOM     12  C   UNL     1       1.817   7.897  20.109  0.00  0.00    +0.000 A 
ATOM     13  C   UNL     1       2.152   7.917  18.753  0.00  0.00    +0.000 A 
ATOM     14  C   UNL     1       1.592   8.875  17.902  0.00  0.00    +0.000 A 
ATOM     15  C   UNL     1       0.706   9.820  18.412  0.00  0.00    +0.000 A 
BRANCH  10  16
ATOM     16  C   UNL     1      -0.469  10.925  20.360  0.00  0.00    +0.000 C 
BRANCH  16  18
ATOM     17  C   UNL     1       0.260  12.901  21.585  0.00  0.00    +0.000 C 
ATOM     18  N   UNL     1       0.089  11.444  21.620  0.00  0.00    +0.000 NA
ATOM     19  C   UNL     1      -0.769  11.071  22.743  0.00  0.00    +0.000 C 
ENDBRANCH  16  18
ENDBRANCH  10  16
ENDBRANCH   1  13
BRANCH   3  20
ATOM     20  C   UNL     1       6.728   6.908  17.103  0.00  0.00    +0.000 C 
ATOM     21  N   UNL     1       7.897   7.316  16.864  0.00  0.00    +0.000 NA
ENDBRANCH   3  20
BRANCH   4  22
ATOM     22  N   UNL     1       5.827   4.131  16.596  0.00  0.00    +0.000 N 
ATOM     23  H   UNL     1       6.245   3.535  17.311  0.00  0.00    +0.000 HD
BRANCH  22  24
ATOM     24  C   UNL     1       5.449   3.326  15.432  0.00  0.00    +0.000 C 
BRANCH  24  25
ATOM     25  C   UNL     1       6.149   3.890  14.222  0.00  0.00    +0.000 A 
ATOM     26  C   UNL     1       5.889   3.391  12.937  0.00  0.00    +0.000 A 
ATOM     27  C   UNL     1       6.611   3.858  11.837  0.00  0.00    +0.000 A 
ATOM     28  C   UNL     1       7.601   4.824  12.009  0.00  0.00    +0.000 A 
ATOM     29  C   UNL     1       7.861   5.335  13.278  0.00  0.00    +0.000 A 
ATOM     30  C   UNL     1       7.137   4.876  14.378  0.00  0.00    +0.000 A 
ENDBRANCH  24  25
ENDBRANCH  22  24
ENDBRANCH   4  22
TORSDOF 7
ENDMDL
MODEL 4
REMARK VINA RESULT:      -8.1      0.556      1.006
REMARK  Name = 
REMARK  9 active torsions:
REMARK  status: ('A' for Active; 'I' for Inactive)
REMARK    1  A    between atoms: C_1  and  N_2
REMARK    2  A    between atoms: N_2  and  C_3
REMARK    3  A    between atoms: N_2  and  C_4
REMARK    4  A    between atoms: C_4  and  C_5
REMARK    5  A    between atoms: C_8  and  C_9
REMARK    6  A    between atoms: C_11  and  C_12
REMARK    7  A    between atoms: C_14  and  N_15
REMARK    8  A    between atoms: N_15  and  C_16
REMARK    9  A    between atoms: C_16  and  C_17
REMARK                            x       y       z     vdW  Elec       q    Type
REMARK                         _______ _______ _______ _____ _____    ______ ____
ROOT
ATOM      1  C   UNL     1       1.332   7.806  20.431  0.00  0.00    +0.000 A 
ATOM      2  C   UNL     1       1.362   6.626  21.095  0.00  0.00    +0.000 A 
ATOM      3  C   UNL     1       2.068   5.475  20.565  0.00  0.00    +0.000 A 
ATOM      4  C   UNL     1       2.723   5.558  19.373  0.00  0.00    +0.000 A 
ATOM      5  N   UNL     1       2.685   6.803  18.719  0.00  0.00    +0.000 N 
ATOM      6  C   UNL     1       3.278   7.214  17.551  0.00  0.00    +0.000 A 
ATOM      7  N   UNL     1       2.966   8.465  17.297  0.00  0.00    +0.000 NA
ATOM      8  N   UNL     1       2.173   8.912  18.327  0.00  0.00    +0.000 NA
ATOM      9  C   UNL     1       2.017   7.923  19.184  0.00  0.00    +0.000 A 
ENDROOT
BRANCH   1  13
ATOM     10  C   UNL     1      -0.798  10.969  22.321  0.00  0.00    +0.000 A 
ATOM     11  C   UNL     1      -0.238   9.937  23.086  0.00  0.00    +0.000 A 
ATOM     12  C   UNL     1       0.470   8.911  22.469  0.00  0.00    +0.000 A 
ATOM     13  C   UNL     1       0.608   8.902  21.079  0.00  0.00    +0.000 A 
ATOM     14  C   UNL     1       0.033   9.915  20.306  0.00  0.00    +0.000 A 
ATOM     15  C   UNL     1      -0.670  10.944  20.925  0.00  0.00    +0.000 A 
BRANCH  10  16
ATOM     16  C   UNL     1      -1.436  12.157  23.008  0.00  0.00    +0.000 C 
BRANCH  16  18
ATOM     17  C   UNL     1      -3.804  12.653  22.717  0.00  0.00    +0.000 C 
ATOM     18  N   UNL     1      -2.453  12.807  22.164  0.00  0.00    +0.000 NA
ATOM     19  C   UNL     1      -2.141  14.225  22.001  0.00  0.00    +0.000 C 
ENDBRANCH  16  18
ENDBRANCH  10  16
ENDBRANCH   1  13
BRANCH   3  20
ATOM     20  C   UNL     1       2.073   4.161  21.329  0.00  0.00    +0.000 C 
ATOM     21  N   UNL     1       2.078   3.071  21.964  0.00  0.00    +0.000 NA
ENDBRANCH   3  20
BRANCH   4  22
ATOM     22  N   UNL     1       3.449   4.551  18.734  0.00  0.00    +0.000 N 
ATOM     23  H   UNL     1       3.226   4.472  17.742  0.00  0.00    +0.000 HD
BRANCH  22  24
ATOM     24  C   UNL     1       4.886   4.360  18.942  0.00  0.00    +0.000 C 
BRANCH  24  25
ATOM     25  C   UNL     1       5.561   4.364  17.595  0.00  0.00    +0.000 A 
ATOM     26  C   UNL     1       6.913   4.716  17.464  0.00  0.00    +0.000 A 
ATOM     27  C   UNL     1       7.501   4.806  16.201  0.00  0.00    +0.000 A 
ATOM     28  C   UNL     1       6.747   4.549  15.057  0.00  0.00    +0.000 A 
ATOM     29  C   UNL     1       5.407   4.187  15.175  0.00  0.00    +0.000 A 
ATOM     30  C   UNL     1       4.818   4.090  16.436  0.00  0.00    +0.000 A 
ENDBRANCH  24  25
ENDBRANCH  22  24
ENDBRANCH   4  22
TORSDOF 7
ENDMDL
MODEL 5
REMARK VINA RESULT:      -8.1      2.480      4.178
REMARK  Name = 
REMARK  9 active torsions:
REMARK  status: ('A' for Active; 'I' for Inactive)
REMARK    1  A    between atoms: C_1  and  N_2
REMARK    2  A    between atoms: N_2  and  C_3
REMARK    3  A    between atoms: N_2  and  C_4
REMARK    4  A    between atoms: C_4  and  C_5
REMARK    5  A    between atoms: C_8  and  C_9
REMARK    6  A    between atoms: C_11  and  C_12
REMARK    7  A    between atoms: C_14  and  N_15
REMARK    8  A    between atoms: N_15  and  C_16
REMARK    9  A    between atoms: C_16  and  C_17
REMARK                            x       y       z     vdW  Elec       q    Type
REMARK                         _______ _______ _______ _____ _____    ______ ____
ROOT
ATOM      1  C   UNL     1       3.075   6.876  18.216  0.00  0.00    +0.000 A 
ATOM      2  C   UNL     1       4.335   7.295  17.951  0.00  0.00    +0.000 A 
ATOM      3  C   UNL     1       5.335   6.395  17.410  0.00  0.00    +0.000 A 
ATOM      4  C   UNL     1       5.025   5.093  17.156  0.00  0.00    +0.000 A 
ATOM      5  N   UNL     1       3.703   4.696  17.428  0.00  0.00    +0.000 N 
ATOM      6  C   UNL     1       3.077   3.489  17.236  0.00  0.00    +0.000 A 
ATOM      7  N   UNL     1       1.831   3.552  17.645  0.00  0.00    +0.000 NA
ATOM      8  N   UNL     1       1.605   4.831  18.095  0.00  0.00    +0.000 NA
ATOM      9  C   UNL     1       2.721   5.518  17.952  0.00  0.00    +0.000 A 
ENDROOT
BRANCH   1  13
ATOM     10  C   UNL     1       0.404   9.828  19.722  0.00  0.00    +0.000 A 
ATOM     11  C   UNL     1       0.767   9.825  18.368  0.00  0.00    +0.000 A 
ATOM     12  C   UNL     1       1.628   8.852  17.874  0.00  0.00    +0.000 A 
ATOM     13  C   UNL     1       2.147   7.883  18.736  0.00  0.00    +0.000 A 
ATOM     14  C   UNL     1       1.810   7.891  20.093  0.00  0.00    +0.000 A 
ATOM     15  C   UNL     1       0.943   8.863  20.584  0.00  0.00    +0.000 A 
BRANCH  10  16
ATOM     16  C   UNL     1      -0.648  10.795  20.220  0.00  0.00    +0.000 C 
BRANCH  16  18
ATOM     17  C   UNL     1      -1.485  13.038  19.766  0.00  0.00    +0.000 C 
ATOM     18  N   UNL     1      -0.295  12.196  19.932  0.00  0.00    +0.000 NA
ATOM     19  C   UNL     1       0.549  12.732  20.998  0.00  0.00    +0.000 C 
ENDBRANCH  16  18
ENDBRANCH  10  16
ENDBRANCH   1  13
BRANCH   3  20
ATOM     20  C   UNL     1       6.744   6.893  17.133  0.00  0.00    +0.000 C 
ATOM     21  N   UNL     1       7.914   7.306  16.904  0.00  0.00    +0.000 NA
ENDBRANCH   3  20
BRANCH   4  22
ATOM     22  N   UNL     1       5.867   4.108  16.635  0.00  0.00    +0.000 N 
ATOM     23  H   UNL     1       6.284   3.522  17.357  0.00  0.00    +0.000 HD
BRANCH  22  24
ATOM     24  C   UNL     1       5.501   3.290  15.475  0.00  0.00    +0.000 C 
BRANCH  24  25
ATOM     25  C   UNL     1       6.167   3.877  14.257  0.00  0.00    +0.000 A 
ATOM     26  C   UNL     1       5.868   3.404  12.971  0.00  0.00    +0.000 A 
ATOM     27  C   UNL     1       6.559   3.892  11.860  0.00  0.00    +0.000 A 
ATOM     28  C   UNL     1       7.556   4.852  12.021  0.00  0.00    +0.000 A 
ATOM     29  C   UNL     1       7.855   5.338  13.292  0.00  0.00    +0.000 A 
ATOM     30  C   UNL     1       7.162   4.857  14.403  0.00  0.00    +0.000 A 
ENDBRANCH  24  25
ENDBRANCH  22  24
ENDBRANCH   4  22
TORSDOF 7
ENDMDL
MODEL 6
REMARK VINA RESULT:      -8.1      2.557      4.109
REMARK  Name = 
REMARK  9 active torsions:
REMARK  status: ('A' for Active; 'I' for Inactive)
REMARK    1  A    between atoms: C_1  and  N_2
REMARK    2  A    between atoms: N_2  and  C_3
REMARK    3  A    between atoms: N_2  and  C_4
REMARK    4  A    between atoms: C_4  and  C_5
REMARK    5  A    between atoms: C_8  and  C_9
REMARK    6  A    between atoms: C_11  and  C_12
REMARK    7  A    between atoms: C_14  and  N_15
REMARK    8  A    between atoms: N_15  and  C_16
REMARK    9  A    between atoms: C_16  and  C_17
REMARK                            x       y       z     vdW  Elec       q    Type
REMARK                         _______ _______ _______ _____ _____    ______ ____
ROOT
ATOM      1  C   UNL     1       3.040   6.882  18.201  0.00  0.00    +0.000 A 
ATOM      2  C   UNL     1       4.300   7.300  17.936  0.00  0.00    +0.000 A 
ATOM      3  C   UNL     1       5.300   6.399  17.396  0.00  0.00    +0.000 A 
ATOM      4  C   UNL     1       4.988   5.097  17.142  0.00  0.00    +0.000 A 
ATOM      5  N   UNL     1       3.667   4.701  17.414  0.00  0.00    +0.000 N 
ATOM      6  C   UNL     1       3.040   3.494  17.223  0.00  0.00    +0.000 A 
ATOM      7  N   UNL     1       1.793   3.558  17.632  0.00  0.00    +0.000 NA
ATOM      8  N   UNL     1       1.568   4.838  18.081  0.00  0.00    +0.000 NA
ATOM      9  C   UNL     1       2.684   5.525  17.937  0.00  0.00    +0.000 A 
ENDROOT
BRANCH   1  13
ATOM     10  C   UNL     1       0.370   9.837  19.704  0.00  0.00    +0.000 A 
ATOM     11  C   UNL     1       0.720   9.822  18.346  0.00  0.00    +0.000 A 
ATOM     12  C   UNL     1       1.580   8.848  17.854  0.00  0.00    +0.000 A 
ATOM     13  C   UNL     1       2.112   7.890  18.720  0.00  0.00    +0.000 A 
ATOM     14  C   UNL     1       1.788   7.910  20.080  0.00  0.00    +0.000 A 
ATOM     15  C   UNL     1       0.922   8.883  20.570  0.00  0.00    +0.000 A 
BRANCH  10  16
ATOM     16  C   UNL     1      -0.681  10.804  20.203  0.00  0.00    +0.000 C 
BRANCH  16  18
ATOM     17  C   UNL     1      -2.336  11.791  18.711  0.00  0.00    +0.000 C 
ATOM     18  N   UNL     1      -0.964  11.869  19.225  0.00  0.00    +0.000 NA
ATOM     19  C   UNL     1      -0.733  13.181  19.828  0.00  0.00    +0.000 C 
ENDBRANCH  16  18
ENDBRANCH  10  16
ENDBRANCH   1  13
BRANCH   3  20
ATOM     20  C   UNL     1       6.709   6.896  17.118  0.00  0.00    +0.000 C 
ATOM     21  N   UNL     1       7.879   7.309  16.889  0.00  0.00    +0.000 NA
ENDBRANCH   3  20
BRANCH   4  22
ATOM     22  N   UNL     1       5.830   4.111  16.622  0.00  0.00    +0.000 N 
ATOM     23  H   UNL     1       6.224   3.507  17.343  0.00  0.00    +0.000 HD
BRANCH  22  24
ATOM     24  C   UNL     1       5.480   3.319  15.440  0.00  0.00    +0.000 C 
BRANCH  24  25
ATOM     25  C   UNL     1       6.264   3.852  14.268  0.00  0.00    +0.000 A 
ATOM     26  C   UNL     1       7.230   4.854  14.440  0.00  0.00    +0.000 A 
ATOM     27  C   UNL     1       7.883   5.404  13.334  0.00  0.00    +0.000 A 
ATOM     28  C   UNL     1       7.577   4.962  12.049  0.00  0.00    +0.000 A 
ATOM     29  C   UNL     1       6.629   3.959  11.866  0.00  0.00    +0.000 A 
ATOM     30  C   UNL     1       5.979   3.403  12.969  0.00  0.00    +0.000 A 
ENDBRANCH  24  25
ENDBRANCH  22  24
ENDBRANCH   4  22
TORSDOF 7
ENDMDL
MODEL 7
REMARK VINA RESULT:      -8.0      2.525      4.212
REMARK  Name = 
REMARK  9 active torsions:
REMARK  status: ('A' for Active; 'I' for Inactive)
REMARK    1  A    between atoms: C_1  and  N_2
REMARK    2  A    between atoms: N_2  and  C_3
REMARK    3  A    between atoms: N_2  and  C_4
REMARK    4  A    between atoms: C_4  and  C_5
REMARK    5  A    between atoms: C_8  and  C_9
REMARK    6  A    between atoms: C_11  and  C_12
REMARK    7  A    between atoms: C_14  and  N_15
REMARK    8  A    between atoms: N_15  and  C_16
REMARK    9  A    between atoms: C_16  and  C_17
REMARK                            x       y       z     vdW  Elec       q    Type
REMARK                         _______ _______ _______ _____ _____    ______ ____
ROOT
ATOM      1  C   UNL     1       3.038   6.897  18.178  0.00  0.00    +0.000 A 
ATOM      2  C   UNL     1       4.302   7.302  17.913  0.00  0.00    +0.000 A 
ATOM      3  C   UNL     1       5.293   6.392  17.374  0.00  0.00    +0.000 A 
ATOM      4  C   UNL     1       4.970   5.092  17.122  0.00  0.00    +0.000 A 
ATOM      5  N   UNL     1       3.645   4.709  17.394  0.00  0.00    +0.000 N 
ATOM      6  C   UNL     1       3.007   3.508  17.204  0.00  0.00    +0.000 A 
ATOM      7  N   UNL     1       1.761   3.583  17.613  0.00  0.00    +0.000 NA
ATOM      8  N   UNL     1       1.548   4.866  18.060  0.00  0.00    +0.000 NA
ATOM      9  C   UNL     1       2.670   5.542  17.916  0.00  0.00    +0.000 A 
ENDROOT
BRANCH   1  13
ATOM     10  C   UNL     1       0.342   9.825  19.686  0.00  0.00    +0.000 A 
ATOM     11  C   UNL     1       0.915   8.880  20.547  0.00  0.00    +0.000 A 
ATOM     12  C   UNL     1       1.807   7.932  20.056  0.00  0.00    +0.000 A 
ATOM     13  C   UNL     1       2.119   7.913  18.695  0.00  0.00    +0.000 A 
ATOM     14  C   UNL     1       1.535   8.838  17.824  0.00  0.00    +0.000 A 
ATOM     15  C   UNL     1       0.647   9.789  18.318  0.00  0.00    +0.000 A 
BRANCH  10  16
ATOM     16  C   UNL     1      -0.507  10.944  20.250  0.00  0.00    +0.000 C 
BRANCH  16  18
ATOM     17  C   UNL     1      -1.001  13.311  19.957  0.00  0.00    +0.000 C 
ATOM     18  N   UNL     1       0.034  12.273  19.919  0.00  0.00    +0.000 NA
ATOM     19  C   UNL     1       1.118  12.618  20.836  0.00  0.00    +0.000 C 
ENDBRANCH  16  18
ENDBRANCH  10  16
ENDBRANCH   1  13
BRANCH   3  20
ATOM     20  C   UNL     1       6.707   6.876  17.096  0.00  0.00    +0.000 C 
ATOM     21  N   UNL     1       7.880   7.279  16.866  0.00  0.00    +0.000 NA
ENDBRANCH   3  20
BRANCH   4  22
ATOM     22  N   UNL     1       5.803   4.098  16.603  0.00  0.00    +0.000 N 
ATOM     23  H   UNL     1       6.175   3.479  17.323  0.00  0.00    +0.000 HD
BRANCH  22  24
ATOM     24  C   UNL     1       5.459   3.326  15.406  0.00  0.00    +0.000 C 
BRANCH  24  25
ATOM     25  C   UNL     1       6.276   3.854  14.255  0.00  0.00    +0.000 A 
ATOM     26  C   UNL     1       7.193   4.900  14.439  0.00  0.00    +0.000 A 
ATOM     27  C   UNL     1       7.876   5.442  13.348  0.00  0.00    +0.000 A 
ATOM     28  C   UNL     1       7.648   4.949  12.064  0.00  0.00    +0.000 A 
ATOM     29  C   UNL     1       6.749   3.903  11.871  0.00  0.00    +0.000 A 
ATOM     30  C   UNL     1       6.070   3.355  12.959  0.00  0.00    +0.000 A 
ENDBRANCH  24  25
ENDBRANCH  22  24
ENDBRANCH   4  22
TORSDOF 7
ENDMDL
MODEL 8
REMARK VINA RESULT:      -8.0      0.761      1.317
REMARK  Name = 
REMARK  9 active torsions:
REMARK  status: ('A' for Active; 'I' for Inactive)
REMARK    1  A    between atoms: C_1  and  N_2
REMARK    2  A    between atoms: N_2  and  C_3
REMARK    3  A    between atoms: N_2  and  C_4
REMARK    4  A    between atoms: C_4  and  C_5
REMARK    5  A    between atoms: C_8  and  C_9
REMARK    6  A    between atoms: C_11  and  C_12
REMARK    7  A    between atoms: C_14  and  N_15
REMARK    8  A    between atoms: N_15  and  C_16
REMARK    9  A    between atoms: C_16  and  C_17
REMARK                            x       y       z     vdW  Elec       q    Type
REMARK                         _______ _______ _______ _____ _____    ______ ____
ROOT
ATOM      1  C   UNL     1       1.350   7.720  20.448  0.00  0.00    +0.000 A 
ATOM      2  C   UNL     1       1.341   6.541  21.114  0.00  0.00    +0.000 A 
ATOM      3  C   UNL     1       2.029   5.373  20.598  0.00  0.00    +0.000 A 
ATOM      4  C   UNL     1       2.707   5.439  19.418  0.00  0.00    +0.000 A 
ATOM      5  N   UNL     1       2.709   6.683  18.761  0.00  0.00    +0.000 N 
ATOM      6  C   UNL     1       3.331   7.078  17.603  0.00  0.00    +0.000 A 
ATOM      7  N   UNL     1       3.053   8.335  17.342  0.00  0.00    +0.000 NA
ATOM      8  N   UNL     1       2.252   8.803  18.358  0.00  0.00    +0.000 NA
ATOM      9  C   UNL     1       2.059   7.819  19.213  0.00  0.00    +0.000 A 
ENDROOT
BRANCH   1  13
ATOM     10  C   UNL     1      -0.741  10.937  22.291  0.00  0.00    +0.000 A 
ATOM     11  C   UNL     1      -0.381   9.806  23.037  0.00  0.00    +0.000 A 
ATOM     12  C   UNL     1       0.315   8.762  22.438  0.00  0.00    +0.000 A 
ATOM     13  C   UNL     1       0.641   8.834  21.081  0.00  0.00    +0.000 A 
ATOM     14  C   UNL     1       0.265   9.947  20.323  0.00  0.00    +0.000 A 
ATOM     15  C   UNL     1      -0.426  10.994  20.926  0.00  0.00    +0.000 A 
BRANCH  10  16
ATOM     16  C   UNL     1      -1.363  12.131  22.982  0.00  0.00    +0.000 C 
BRANCH  16  18
ATOM     17  C   UNL     1      -3.438  12.687  24.131  0.00  0.00    +0.000 C 
ATOM     18  N   UNL     1      -2.835  12.098  22.931  0.00  0.00    +0.000 NA
ATOM     19  C   UNL     1      -3.313  12.796  21.740  0.00  0.00    +0.000 C 
ENDBRANCH  16  18
ENDBRANCH  10  16
ENDBRANCH   1  13
BRANCH   3  20
ATOM     20  C   UNL     1       1.991   4.061  21.364  0.00  0.00    +0.000 C 
ATOM     21  N   UNL     1       1.961   2.972  22.000  0.00  0.00    +0.000 NA
ENDBRANCH   3  20
BRANCH   4  22
ATOM     22  N   UNL     1       3.420   4.414  18.793  0.00  0.00    +0.000 N 
ATOM     23  H   UNL     1       3.416   4.493  17.776  0.00  0.00    +0.000 HD
BRANCH  22  24
ATOM     24  C   UNL     1       4.737   3.972  19.257  0.00  0.00    +0.000 C 
BRANCH  24  25
ATOM     25  C   UNL     1       5.786   4.750  18.505  0.00  0.00    +0.000 A 
ATOM     26  C   UNL     1       6.650   5.631  19.173  0.00  0.00    +0.000 A 
ATOM     27  C   UNL     1       7.554   6.415  18.453  0.00  0.00    +0.000 A 
ATOM     28  C   UNL     1       7.604   6.331  17.063  0.00  0.00    +0.000 A 
ATOM     29  C   UNL     1       6.760   5.451  16.390  0.00  0.00    +0.000 A 
ATOM     30  C   UNL     1       5.859   4.662  17.106  0.00  0.00    +0.000 A 
ENDBRANCH  24  25
ENDBRANCH  22  24
ENDBRANCH   4  22
TORSDOF 7
ENDMDL
MODEL 9
REMARK VINA RESULT:      -7.9      0.870      1.687
REMARK  Name = 
REMARK  9 active torsions:
REMARK  status: ('A' for Active; 'I' for Inactive)
REMARK    1  A    between atoms: C_1  and  N_2
REMARK    2  A    between atoms: N_2  and  C_3
REMARK    3  A    between atoms: N_2  and  C_4
REMARK    4  A    between atoms: C_4  and  C_5
REMARK    5  A    between atoms: C_8  and  C_9
REMARK    6  A    between atoms: C_11  and  C_12
REMARK    7  A    between atoms: C_14  and  N_15
REMARK    8  A    between atoms: N_15  and  C_16
REMARK    9  A    between atoms: C_16  and  C_17
REMARK                            x       y       z     vdW  Elec       q    Type
REMARK                         _______ _______ _______ _____ _____    ______ ____
ROOT
ATOM      1  C   UNL     1       1.143   8.110  20.437  0.00  0.00    +0.000 A 
ATOM      2  C   UNL     1       1.219   6.926  21.088  0.00  0.00    +0.000 A 
ATOM      3  C   UNL     1       1.958   5.805  20.540  0.00  0.00    +0.000 A 
ATOM      4  C   UNL     1       2.599   5.921  19.343  0.00  0.00    +0.000 A 
ATOM      5  N   UNL     1       2.513   7.170  18.702  0.00  0.00    +0.000 N 
ATOM      6  C   UNL     1       3.080   7.613  17.532  0.00  0.00    +0.000 A 
ATOM      7  N   UNL     1       2.724   8.854  17.294  0.00  0.00    +0.000 NA
ATOM      8  N   UNL     1       1.926   9.265  18.336  0.00  0.00    +0.000 NA
ATOM      9  C   UNL     1       1.812   8.262  19.184  0.00  0.00    +0.000 A 
ENDROOT
BRANCH   1  13
ATOM     10  C   UNL     1      -1.073  11.181  22.380  0.00  0.00    +0.000 A 
ATOM     11  C   UNL     1      -0.404  10.205  23.132  0.00  0.00    +0.000 A 
ATOM     12  C   UNL     1       0.331   9.211  22.497  0.00  0.00    +0.000 A 
ATOM     13  C   UNL     1       0.390   9.175  21.102  0.00  0.00    +0.000 A 
ATOM     14  C   UNL     1      -0.293  10.130  20.342  0.00  0.00    +0.000 A 
ATOM     15  C   UNL     1      -1.024  11.128  20.980  0.00  0.00    +0.000 A 
BRANCH  10  16
ATOM     16  C   UNL     1      -1.744  12.344  23.078  0.00  0.00    +0.000 C 
BRANCH  16  18
ATOM     17  C   UNL     1      -0.200  14.016  22.207  0.00  0.00    +0.000 C 
ATOM     18  N   UNL     1      -0.792  13.418  23.409  0.00  0.00    +0.000 NA
ATOM     19  C   UNL     1      -1.454  14.450  24.204  0.00  0.00    +0.000 C 
ENDBRANCH  16  18
ENDBRANCH  10  16
ENDBRANCH   1  13
BRANCH   3  20
ATOM     20  C   UNL     1       2.016   4.485  21.291  0.00  0.00    +0.000 C 
ATOM     21  N   UNL     1       2.063   3.388  21.914  0.00  0.00    +0.000 NA
ENDBRANCH   3  20
BRANCH   4  22
ATOM     22  N   UNL     1       3.352   4.945  18.688  0.00  0.00    +0.000 N 
ATOM     23  H   UNL     1       3.147   4.892  17.690  0.00  0.00    +0.000 HD
BRANCH  22  24
ATOM     24  C   UNL     1       4.789   4.771  18.914  0.00  0.00    +0.000 C 
BRANCH  24  25
ATOM     25  C   UNL     1       5.472   4.708  17.572  0.00  0.00    +0.000 A 
ATOM     26  C   UNL     1       4.742   4.469  16.399  0.00  0.00    +0.000 A 
ATOM     27  C   UNL     1       5.398   4.320  15.175  0.00  0.00    +0.000 A 
ATOM     28  C   UNL     1       6.787   4.405  15.111  0.00  0.00    +0.000 A 
ATOM     29  C   UNL     1       7.523   4.653  16.267  0.00  0.00    +0.000 A 
ATOM     30  C   UNL     1       6.870   4.808  17.490  0.00  0.00    +0.000 A 
ENDBRANCH  24  25
ENDBRANCH  22  24
ENDBRANCH   4  22
TORSDOF 7
ENDMDL
