MODEL 1
REMARK VINA RESULT:      -8.4      0.000      0.000
REMARK  Name = 
REMARK  2 active torsions:
REMARK  status: ('A' for Active; 'I' for Inactive)
REMARK    1  A    between atoms: O_1  and  C_2
REMARK    2  A    between atoms: N_8  and  C_9
REMARK                            x       y       z     vdW  Elec       q    Type
REMARK                         _______ _______ _______ _____ _____    ______ ____
ROOT
ATOM      1  C   UNL     1       7.505   5.662  19.652  0.00  0.00    +0.000 A 
ATOM      2  C   UNL     1       8.118   6.407  18.652  0.00  0.00    +0.000 A 
ATOM      3  C   UNL     1       7.357   6.817  17.557  0.00  0.00    +0.000 A 
ATOM      4  C   UNL     1       6.008   6.447  17.535  0.00  0.00    +0.000 A 
ATOM      5  N   UNL     1       5.041   6.702  16.609  0.00  0.00    +0.000 NA
ATOM      6  C   UNL     1       3.966   6.113  17.084  0.00  0.00    +0.000 A 
ATOM      7  N   UNL     1       4.182   5.439  18.274  0.00  0.00    +0.000 N 
ATOM      8  C   UNL     1       5.510   5.698  18.598  0.00  0.00    +0.000 A 
ATOM      9  N   UNL     1       6.213   5.278  19.675  0.00  0.00    +0.000 NA
ENDROOT
BRANCH   7  10
ATOM     10  C   UNL     1       3.218   4.707  19.034  0.00  0.00    +0.000 A 
ATOM     11  C   UNL     1       2.531   5.375  20.069  0.00  0.00    +0.000 A 
ATOM     12  C   UNL     1       1.527   4.732  20.802  0.00  0.00    +0.000 A 
ATOM     13  C   UNL     1       1.200   3.411  20.521  0.00  0.00    +0.000 A 
ATOM     14  C   UNL     1       1.893   2.734  19.525  0.00  0.00    +0.000 A 
ATOM     15  F   UNL     1       1.578   1.448  19.305  0.00  0.00    +0.000 F 
ATOM     16  C   UNL     1       2.906   3.357  18.782  0.00  0.00    +0.000 A 
ATOM     17 CL   UNL     1       3.793   2.333  17.701  0.00  0.00    +0.000 Cl
ENDBRANCH   7  10
BRANCH   1  18
ATOM     18  O   UNL     1       8.228   5.252  20.737  0.00  0.00    +0.000 OA
ATOM     19  H   UNL     1       9.147   5.529  20.612  0.00  0.00    +0.000 HD
ENDBRANCH   1  18
TORSDOF 2
ENDMDL
MODEL 2
REMARK VINA RESULT:      -8.3      1.475      1.934
REMARK  Name = 
REMARK  2 active torsions:
REMARK  status: ('A' for Active; 'I' for Inactive)
REMARK    1  A    between atoms: O_1  and  C_2
REMARK    2  A    between atoms: N_8  and  C_9
REMARK                            x       y       z     vdW  Elec       q    Type
REMARK                         _______ _______ _______ _____ _____    ______ ____
ROOT
ATOM      1  C   UNL     1       7.580   5.730  19.656  0.00  0.00    +0.000 A 
ATOM      2  C   UNL     1       8.225   6.666  18.855  0.00  0.00    +0.000 A 
ATOM      3  C   UNL     1       7.599   7.094  17.685  0.00  0.00    +0.000 A 
ATOM      4  C   UNL     1       6.345   6.549  17.387  0.00  0.00    +0.000 A 
ATOM      5  N   UNL     1       5.515   6.778  16.331  0.00  0.00    +0.000 NA
ATOM      6  C   UNL     1       4.481   5.995  16.550  0.00  0.00    +0.000 A 
ATOM      7  N   UNL     1       4.602   5.221  17.691  0.00  0.00    +0.000 N 
ATOM      8  C   UNL     1       5.803   5.619  18.270  0.00  0.00    +0.000 A 
ATOM      9  N   UNL     1       6.376   5.174  19.412  0.00  0.00    +0.000 NA
ENDROOT
BRANCH   7  10
ATOM     10  C   UNL     1       3.651   4.280  18.196  0.00  0.00    +0.000 A 
ATOM     11  C   UNL     1       3.711   2.951  17.731  0.00  0.00    +0.000 A 
ATOM     12  C   UNL     1       2.853   1.968  18.239  0.00  0.00    +0.000 A 
ATOM     13  C   UNL     1       1.917   2.298  19.211  0.00  0.00    +0.000 A 
ATOM     14  C   UNL     1       1.829   3.612  19.653  0.00  0.00    +0.000 A 
ATOM     15  F   UNL     1       0.889   3.906  20.565  0.00  0.00    +0.000 F 
ATOM     16  C   UNL     1       2.675   4.614  19.154  0.00  0.00    +0.000 A 
ATOM     17 CL   UNL     1       2.325   6.231  19.673  0.00  0.00    +0.000 Cl
ENDBRANCH   7  10
BRANCH   1  18
ATOM     18  O   UNL     1       8.172   5.297  20.810  0.00  0.00    +0.000 OA
ATOM     19  H   UNL     1       8.895   5.902  21.025  0.00  0.00    +0.000 HD
ENDBRANCH   1  18
TORSDOF 2
ENDMDL
MODEL 3
REMARK VINA RESULT:      -7.6      1.666      1.701
REMARK  Name = 
REMARK  2 active torsions:
REMARK  status: ('A' for Active; 'I' for Inactive)
REMARK    1  A    between atoms: O_1  and  C_2
REMARK    2  A    between atoms: N_8  and  C_9
REMARK                            x       y       z     vdW  Elec       q    Type
REMARK                         _______ _______ _______ _____ _____    ______ ____
ROOT
ATOM      1  C   UNL     1       7.299   5.311  19.358  0.00  0.00    +0.000 A 
ATOM      2  C   UNL     1       7.966   5.351  18.139  0.00  0.00    +0.000 A 
ATOM      3  C   UNL     1       7.287   4.946  16.989  0.00  0.00    +0.000 A 
ATOM      4  C   UNL     1       5.963   4.521  17.138  0.00  0.00    +0.000 A 
ATOM      5  N   UNL     1       5.071   4.078  16.207  0.00  0.00    +0.000 NA
ATOM      6  C   UNL     1       3.985   3.805  16.895  0.00  0.00    +0.000 A 
ATOM      7  N   UNL     1       4.124   4.010  18.257  0.00  0.00    +0.000 N 
ATOM      8  C   UNL     1       5.406   4.528  18.414  0.00  0.00    +0.000 A 
ATOM      9  N   UNL     1       6.028   4.908  19.553  0.00  0.00    +0.000 NA
ENDROOT
BRANCH   7  10
ATOM     10  C   UNL     1       3.129   3.806  19.263  0.00  0.00    +0.000 A 
ATOM     11  C   UNL     1       1.982   4.626  19.250  0.00  0.00    +0.000 A 
ATOM     12  C   UNL     1       0.942   4.429  20.165  0.00  0.00    +0.000 A 
ATOM     13  C   UNL     1       1.033   3.418  21.113  0.00  0.00    +0.000 A 
ATOM     14  C   UNL     1       2.173   2.624  21.155  0.00  0.00    +0.000 A 
ATOM     15  F   UNL     1       2.247   1.681  22.107  0.00  0.00    +0.000 F 
ATOM     16  C   UNL     1       3.230   2.807  20.251  0.00  0.00    +0.000 A 
ATOM     17 CL   UNL     1       4.651   1.859  20.542  0.00  0.00    +0.000 Cl
ENDBRANCH   7  10
BRANCH   1  18
ATOM     18  O   UNL     1       7.941   5.706  20.499  0.00  0.00    +0.000 OA
ATOM     19  H   UNL     1       8.054   4.931  21.067  0.00  0.00    +0.000 HD
ENDBRANCH   1  18
TORSDOF 2
ENDMDL
MODEL 4
REMARK VINA RESULT:      -7.6      2.071      2.333
REMARK  Name = 
REMARK  2 active torsions:
REMARK  status: ('A' for Active; 'I' for Inactive)
REMARK    1  A    between atoms: O_1  and  C_2
REMARK    2  A    between atoms: N_8  and  C_9
REMARK                            x       y       z     vdW  Elec       q    Type
REMARK                         _______ _______ _______ _____ _____    ______ ____
ROOT
ATOM      1  C   UNL     1       7.304   5.170  19.318  0.00  0.00    +0.000 A 
ATOM      2  C   UNL     1       8.060   5.119  18.153  0.00  0.00    +0.000 A 
ATOM      3  C   UNL     1       7.445   4.709  16.970  0.00  0.00    +0.000 A 
ATOM      4  C   UNL     1       6.089   4.370  17.032  0.00  0.00    +0.000 A 
ATOM      5  N   UNL     1       5.243   3.944  16.052  0.00  0.00    +0.000 NA
ATOM      6  C   UNL     1       4.093   3.765  16.665  0.00  0.00    +0.000 A 
ATOM      7  N   UNL     1       4.144   4.017  18.025  0.00  0.00    +0.000 N 
ATOM      8  C   UNL     1       5.440   4.462  18.261  0.00  0.00    +0.000 A 
ATOM      9  N   UNL     1       5.999   4.851  19.430  0.00  0.00    +0.000 NA
ENDROOT
BRANCH   7  10
ATOM     10  C   UNL     1       3.066   3.914  18.958  0.00  0.00    +0.000 A 
ATOM     11  C   UNL     1       2.663   2.631  19.381  0.00  0.00    +0.000 A 
ATOM     12  C   UNL     1       1.662   2.468  20.345  0.00  0.00    +0.000 A 
ATOM     13  C   UNL     1       1.040   3.582  20.895  0.00  0.00    +0.000 A 
ATOM     14  C   UNL     1       1.407   4.850  20.461  0.00  0.00    +0.000 A 
ATOM     15  F   UNL     1       0.761   5.904  20.985  0.00  0.00    +0.000 F 
ATOM     16  C   UNL     1       2.404   5.036  19.494  0.00  0.00    +0.000 A 
ATOM     17 CL   UNL     1       2.624   6.661  18.932  0.00  0.00    +0.000 Cl
ENDBRANCH   7  10
BRANCH   1  18
ATOM     18  O   UNL     1       7.883   5.572  20.489  0.00  0.00    +0.000 OA
ATOM     19  H   UNL     1       8.745   5.138  20.566  0.00  0.00    +0.000 HD
ENDBRANCH   1  18
TORSDOF 2
ENDMDL
MODEL 5
REMARK VINA RESULT:      -7.6      1.375      1.429
REMARK  Name = 
REMARK  2 active torsions:
REMARK  status: ('A' for Active; 'I' for Inactive)
REMARK    1  A    between atoms: O_1  and  C_2
REMARK    2  A    between atoms: N_8  and  C_9
REMARK                            x       y       z     vdW  Elec       q    Type
REMARK                         _______ _______ _______ _____ _____    ______ ____
ROOT
ATOM      1  C   UNL     1       6.919   4.945  17.759  0.00  0.00    +0.000 A 
ATOM      2  C   UNL     1       7.205   6.108  17.053  0.00  0.00    +0.000 A 
ATOM      3  C   UNL     1       6.201   7.065  16.900  0.00  0.00    +0.000 A 
ATOM      4  C   UNL     1       4.955   6.790  17.474  0.00  0.00    +0.000 A 
ATOM      5  N   UNL     1       3.810   7.529  17.485  0.00  0.00    +0.000 NA
ATOM      6  C   UNL     1       2.950   6.793  18.154  0.00  0.00    +0.000 A 
ATOM      7  N   UNL     1       3.461   5.572  18.560  0.00  0.00    +0.000 N 
ATOM      8  C   UNL     1       4.793   5.588  18.158  0.00  0.00    +0.000 A 
ATOM      9  N   UNL     1       5.736   4.634  18.327  0.00  0.00    +0.000 NA
ENDROOT
BRANCH   7  10
ATOM     10  C   UNL     1       2.779   4.558  19.301  0.00  0.00    +0.000 A 
ATOM     11  C   UNL     1       2.627   4.730  20.692  0.00  0.00    +0.000 A 
ATOM     12  C   UNL     1       1.908   3.808  21.461  0.00  0.00    +0.000 A 
ATOM     13  C   UNL     1       1.339   2.694  20.856  0.00  0.00    +0.000 A 
ATOM     14  C   UNL     1       1.510   2.498  19.491  0.00  0.00    +0.000 A 
ATOM     15  F   UNL     1       0.979   1.393  18.944  0.00  0.00    +0.000 F 
ATOM     16  C   UNL     1       2.230   3.408  18.702  0.00  0.00    +0.000 A 
ATOM     17 CL   UNL     1       2.504   2.936  17.057  0.00  0.00    +0.000 Cl
ENDBRANCH   7  10
BRANCH   1  18
ATOM     18  O   UNL     1       7.886   3.994  17.926  0.00  0.00    +0.000 OA
ATOM     19  H   UNL     1       7.468   3.123  17.869  0.00  0.00    +0.000 HD
ENDBRANCH   1  18
TORSDOF 2
ENDMDL
MODEL 6
REMARK VINA RESULT:      -7.4      1.868      2.258
REMARK  Name = 
REMARK  2 active torsions:
REMARK  status: ('A' for Active; 'I' for Inactive)
REMARK    1  A    between atoms: O_1  and  C_2
REMARK    2  A    between atoms: N_8  and  C_9
REMARK                            x       y       z     vdW  Elec       q    Type
REMARK                         _______ _______ _______ _____ _____    ______ ____
ROOT
ATOM      1  C   UNL     1       7.129   4.973  17.686  0.00  0.00    +0.000 A 
ATOM      2  C   UNL     1       7.476   6.257  17.283  0.00  0.00    +0.000 A 
ATOM      3  C   UNL     1       6.473   7.221  17.175  0.00  0.00    +0.000 A 
ATOM      4  C   UNL     1       5.166   6.829  17.483  0.00  0.00    +0.000 A 
ATOM      5  N   UNL     1       4.006   7.545  17.468  0.00  0.00    +0.000 NA
ATOM      6  C   UNL     1       3.083   6.684  17.834  0.00  0.00    +0.000 A 
ATOM      7  N   UNL     1       3.571   5.408  18.058  0.00  0.00    +0.000 N 
ATOM      8  C   UNL     1       4.946   5.511  17.877  0.00  0.00    +0.000 A 
ATOM      9  N   UNL     1       5.887   4.547  17.991  0.00  0.00    +0.000 NA
ENDROOT
BRANCH   7  10
ATOM     10  C   UNL     1       2.822   4.261  18.465  0.00  0.00    +0.000 A 
ATOM     11  C   UNL     1       2.776   3.147  17.602  0.00  0.00    +0.000 A 
ATOM     12  C   UNL     1       2.118   1.969  17.976  0.00  0.00    +0.000 A 
ATOM     13  C   UNL     1       1.487   1.888  19.211  0.00  0.00    +0.000 A 
ATOM     14  C   UNL     1       1.498   2.992  20.055  0.00  0.00    +0.000 A 
ATOM     15  F   UNL     1       0.848   2.893  21.225  0.00  0.00    +0.000 F 
ATOM     16  C   UNL     1       2.148   4.183  19.700  0.00  0.00    +0.000 A 
ATOM     17 CL   UNL     1       1.924   5.521  20.778  0.00  0.00    +0.000 Cl
ENDBRANCH   7  10
BRANCH   1  18
ATOM     18  O   UNL     1       8.094   4.012  17.803  0.00  0.00    +0.000 OA
ATOM     19  H   UNL     1       8.545   4.136  18.651  0.00  0.00    +0.000 HD
ENDBRANCH   1  18
TORSDOF 2
ENDMDL
MODEL 7
REMARK VINA RESULT:      -7.3      3.191      5.630
REMARK  Name = 
REMARK  2 active torsions:
REMARK  status: ('A' for Active; 'I' for Inactive)
REMARK    1  A    between atoms: O_1  and  C_2
REMARK    2  A    between atoms: N_8  and  C_9
REMARK                            x       y       z     vdW  Elec       q    Type
REMARK                         _______ _______ _______ _____ _____    ______ ____
ROOT
ATOM      1  C   UNL     1       2.069   5.597  20.176  0.00  0.00    +0.000 A 
ATOM      2  C   UNL     1       1.220   4.637  20.714  0.00  0.00    +0.000 A 
ATOM      3  C   UNL     1       1.360   3.311  20.303  0.00  0.00    +0.000 A 
ATOM      4  C   UNL     1       2.357   3.028  19.364  0.00  0.00    +0.000 A 
ATOM      5  N   UNL     1       2.717   1.845  18.791  0.00  0.00    +0.000 NA
ATOM      6  C   UNL     1       3.703   2.158  17.979  0.00  0.00    +0.000 A 
ATOM      7  N   UNL     1       3.994   3.511  17.955  0.00  0.00    +0.000 N 
ATOM      8  C   UNL     1       3.146   4.079  18.900  0.00  0.00    +0.000 A 
ATOM      9  N   UNL     1       3.042   5.376  19.269  0.00  0.00    +0.000 NA
ENDROOT
BRANCH   7  10
ATOM     10  C   UNL     1       5.005   4.158  17.180  0.00  0.00    +0.000 A 
ATOM     11  C   UNL     1       4.994   3.985  15.781  0.00  0.00    +0.000 A 
ATOM     12  C   UNL     1       5.915   4.649  14.962  0.00  0.00    +0.000 A 
ATOM     13  C   UNL     1       6.868   5.487  15.527  0.00  0.00    +0.000 A 
ATOM     14  C   UNL     1       6.908   5.640  16.908  0.00  0.00    +0.000 A 
ATOM     15  F   UNL     1       7.864   6.428  17.424  0.00  0.00    +0.000 F 
ATOM     16  C   UNL     1       5.998   4.981  17.747  0.00  0.00    +0.000 A 
ATOM     17 CL   UNL     1       6.287   5.134  19.449  0.00  0.00    +0.000 Cl
ENDBRANCH   7  10
BRANCH   1  18
ATOM     18  O   UNL     1       1.955   6.902  20.565  0.00  0.00    +0.000 OA
ATOM     19  H   UNL     1       1.904   7.452  19.771  0.00  0.00    +0.000 HD
ENDBRANCH   1  18
TORSDOF 2
ENDMDL
MODEL 8
REMARK VINA RESULT:      -7.2      2.852      3.538
REMARK  Name = 
REMARK  2 active torsions:
REMARK  status: ('A' for Active; 'I' for Inactive)
REMARK    1  A    between atoms: O_1  and  C_2
REMARK    2  A    between atoms: N_8  and  C_9
REMARK                            x       y       z     vdW  Elec       q    Type
REMARK                         _______ _______ _______ _____ _____    ______ ____
ROOT
ATOM      1  C   UNL     1       5.672   4.296  14.899  0.00  0.00    +0.000 A 
ATOM      2  C   UNL     1       6.969   4.778  15.032  0.00  0.00    +0.000 A 
ATOM      3  C   UNL     1       7.470   5.011  16.313  0.00  0.00    +0.000 A 
ATOM      4  C   UNL     1       6.626   4.742  17.396  0.00  0.00    +0.000 A 
ATOM      5  N   UNL     1       6.843   4.872  18.735  0.00  0.00    +0.000 NA
ATOM      6  C   UNL     1       5.715   4.489  19.290  0.00  0.00    +0.000 A 
ATOM      7  N   UNL     1       4.735   4.144  18.376  0.00  0.00    +0.000 N 
ATOM      8  C   UNL     1       5.346   4.261  17.132  0.00  0.00    +0.000 A 
ATOM      9  N   UNL     1       4.820   4.025  15.908  0.00  0.00    +0.000 NA
ENDROOT
BRANCH   7  10
ATOM     10  C   UNL     1       3.411   3.690  18.666  0.00  0.00    +0.000 A 
ATOM     11  C   UNL     1       3.025   2.411  18.216  0.00  0.00    +0.000 A 
ATOM     12  C   UNL     1       1.767   1.883  18.529  0.00  0.00    +0.000 A 
ATOM     13  C   UNL     1       0.871   2.626  19.286  0.00  0.00    +0.000 A 
ATOM     14  C   UNL     1       1.228   3.901  19.707  0.00  0.00    +0.000 A 
ATOM     15  F   UNL     1       0.326   4.608  20.405  0.00  0.00    +0.000 F 
ATOM     16  C   UNL     1       2.482   4.452  19.402  0.00  0.00    +0.000 A 
ATOM     17 CL   UNL     1       2.710   6.112  19.845  0.00  0.00    +0.000 Cl
ENDBRANCH   7  10
BRANCH   1  18
ATOM     18  O   UNL     1       5.159   4.056  13.655  0.00  0.00    +0.000 OA
ATOM     19  H   UNL     1       4.665   3.224  13.686  0.00  0.00    +0.000 HD
ENDBRANCH   1  18
TORSDOF 2
ENDMDL
MODEL 9
REMARK VINA RESULT:      -7.1      1.322      1.364
REMARK  Name = 
REMARK  2 active torsions:
REMARK  status: ('A' for Active; 'I' for Inactive)
REMARK    1  A    between atoms: O_1  and  C_2
REMARK    2  A    between atoms: N_8  and  C_9
REMARK                            x       y       z     vdW  Elec       q    Type
REMARK                         _______ _______ _______ _____ _____    ______ ____
ROOT
ATOM      1  C   UNL     1       7.462   5.215  19.510  0.00  0.00    +0.000 A 
ATOM      2  C   UNL     1       8.260   5.088  18.379  0.00  0.00    +0.000 A 
ATOM      3  C   UNL     1       7.657   4.747  17.168  0.00  0.00    +0.000 A 
ATOM      4  C   UNL     1       6.271   4.552  17.169  0.00  0.00    +0.000 A 
ATOM      5  N   UNL     1       5.429   4.219  16.150  0.00  0.00    +0.000 NA
ATOM      6  C   UNL     1       4.241   4.161  16.711  0.00  0.00    +0.000 A 
ATOM      7  N   UNL     1       4.258   4.403  18.074  0.00  0.00    +0.000 N 
ATOM      8  C   UNL     1       5.583   4.710  18.369  0.00  0.00    +0.000 A 
ATOM      9  N   UNL     1       6.127   5.036  19.563  0.00  0.00    +0.000 NA
ENDROOT
BRANCH   7  10
ATOM     10  C   UNL     1       3.136   4.412  18.959  0.00  0.00    +0.000 A 
ATOM     11  C   UNL     1       2.811   5.614  19.620  0.00  0.00    +0.000 A 
ATOM     12  C   UNL     1       1.683   5.705  20.444  0.00  0.00    +0.000 A 
ATOM     13  C   UNL     1       0.868   4.595  20.629  0.00  0.00    +0.000 A 
ATOM     14  C   UNL     1       1.198   3.396  20.009  0.00  0.00    +0.000 A 
ATOM     15  F   UNL     1       0.411   2.333  20.239  0.00  0.00    +0.000 F 
ATOM     16  C   UNL     1       2.325   3.282  19.182  0.00  0.00    +0.000 A 
ATOM     17 CL   UNL     1       2.699   1.684  18.624  0.00  0.00    +0.000 Cl
ENDBRANCH   7  10
BRANCH   1  18
ATOM     18  O   UNL     1       8.029   5.552  20.708  0.00  0.00    +0.000 OA
ATOM     19  H   UNL     1       8.105   6.516  20.747  0.00  0.00    +0.000 HD
ENDBRANCH   1  18
TORSDOF 2
ENDMDL
