MODEL 1
REMARK VINA RESULT:      -9.8      0.000      0.000
REMARK  Name = 
REMARK  7 active torsions:
REMARK  status: ('A' for Active; 'I' for Inactive)
REMARK    1  A    between atoms: C_1  and  C_2
REMARK    2  A    between atoms: N_7  and  C_8
REMARK    3  A    between atoms: C_8  and  C_9
REMARK    4  A    between atoms: N_11  and  C_12
REMARK    5  A    between atoms: C_15  and  O_16
REMARK    6  A    between atoms: O_16  and  C_17
REMARK    7  A    between atoms: C_28  and  C_29
REMARK                            x       y       z     vdW  Elec       q    Type
REMARK                         _______ _______ _______ _____ _____    ______ ____
ROOT
ATOM      1  C   UNL     1       2.014   9.602  18.497  0.00  0.00    +0.000 C 
ENDROOT
BRANCH   1   8
ATOM      2  C   UNL     1       3.968   2.411  19.920  0.00  0.00    +0.000 C 
ATOM      3  C   UNL     1       3.443   3.808  19.739  0.00  0.00    +0.000 A 
ATOM      4  S   UNL     1       2.224   4.305  20.836  0.00  0.00    +0.000 S 
ATOM      5  C   UNL     1       2.189   5.876  20.211  0.00  0.00    +0.000 A 
ATOM      6  N   UNL     1       1.402   6.815  20.796  0.00  0.00    +0.000 NA
ATOM      7  C   UNL     1       1.419   7.971  20.217  0.00  0.00    +0.000 A 
ATOM      8  N   UNL     1       2.157   8.280  19.094  0.00  0.00    +0.000 N 
ATOM      9  C   UNL     1       2.984   7.342  18.470  0.00  0.00    +0.000 A 
ATOM     10  O   UNL     1       3.613   7.624  17.452  0.00  0.00    +0.000 OA
ATOM     11  C   UNL     1       3.019   6.029  19.116  0.00  0.00    +0.000 A 
ATOM     12  C   UNL     1       3.785   4.818  18.831  0.00  0.00    +0.000 A 
BRANCH  12  13
ATOM     13  C   UNL     1       4.849   4.625  17.821  0.00  0.00    +0.000 A 
ATOM     14  C   UNL     1       4.531   4.306  16.494  0.00  0.00    +0.000 A 
ATOM     15  C   UNL     1       5.525   4.155  15.519  0.00  0.00    +0.000 A 
ATOM     16  C   UNL     1       6.858   4.385  15.839  0.00  0.00    +0.000 A 
ATOM     17  C   UNL     1       7.201   4.714  17.144  0.00  0.00    +0.000 A 
ATOM     18  C   UNL     1       6.211   4.792  18.131  0.00  0.00    +0.000 A 
ENDBRANCH  12  13
ENDBRANCH   1   8
BRANCH   1  19
ATOM     19  C   UNL     1       0.599  10.132  18.697  0.00  0.00    +0.000 C 
ATOM     20  O   UNL     1       0.276  10.634  19.770  0.00  0.00    +0.000 OA
ATOM     21  N   UNL     1      -0.239   9.954  17.608  0.00  0.00    +0.000 N 
ATOM     22  H   UNL     1       0.060   9.294  16.894  0.00  0.00    +0.000 HD
BRANCH  21  23
ATOM     23  C   UNL     1      -1.601  10.317  17.616  0.00  0.00    +0.000 A 
ATOM     24  C   UNL     1      -2.526   9.793  16.707  0.00  0.00    +0.000 A 
ATOM     25  C   UNL     1      -3.872  10.174  16.766  0.00  0.00    +0.000 A 
ATOM     26  C   UNL     1      -4.294  11.104  17.718  0.00  0.00    +0.000 A 
ATOM     27  C   UNL     1      -3.357  11.681  18.576  0.00  0.00    +0.000 A 
ATOM     28  C   UNL     1      -2.030  11.244  18.568  0.00  0.00    +0.000 A 
BRANCH  26  29
ATOM     29  O   UNL     1      -5.631  11.435  17.701  0.00  0.00    +0.000 OA
BRANCH  29  30
ATOM     30  C   UNL     1      -6.378  11.299  18.853  0.00  0.00    +0.000 A 
ATOM     31  C   UNL     1      -6.762   9.997  19.188  0.00  0.00    +0.000 A 
ATOM     32  C   UNL     1      -7.529   9.764  20.333  0.00  0.00    +0.000 A 
ATOM     33  C   UNL     1      -7.915  10.831  21.144  0.00  0.00    +0.000 A 
ATOM     34  C   UNL     1      -7.508  12.126  20.830  0.00  0.00    +0.000 A 
ATOM     35  C   UNL     1      -6.717  12.356  19.703  0.00  0.00    +0.000 A 
ENDBRANCH  29  30
ENDBRANCH  26  29
ENDBRANCH  21  23
ENDBRANCH   1  19
TORSDOF 6
ENDMDL
MODEL 2
REMARK VINA RESULT:      -9.7      3.416     10.620
REMARK  Name = 
REMARK  7 active torsions:
REMARK  status: ('A' for Active; 'I' for Inactive)
REMARK    1  A    between atoms: C_1  and  C_2
REMARK    2  A    between atoms: N_7  and  C_8
REMARK    3  A    between atoms: C_8  and  C_9
REMARK    4  A    between atoms: N_11  and  C_12
REMARK    5  A    between atoms: C_15  and  O_16
REMARK    6  A    between atoms: O_16  and  C_17
REMARK    7  A    between atoms: C_28  and  C_29
REMARK                            x       y       z     vdW  Elec       q    Type
REMARK                         _______ _______ _______ _____ _____    ______ ____
ROOT
ATOM      1  C   UNL     1      -1.949  11.920  17.501  0.00  0.00    +0.000 C 
ENDROOT
BRANCH   1   8
ATOM      2  C   UNL     1      -7.891  12.429  22.190  0.00  0.00    +0.000 C 
ATOM      3  C   UNL     1      -6.806  12.212  21.173  0.00  0.00    +0.000 A 
ATOM      4  S   UNL     1      -7.269  11.398  19.737  0.00  0.00    +0.000 S 
ATOM      5  C   UNL     1      -5.742  11.593  19.038  0.00  0.00    +0.000 A 
ATOM      6  N   UNL     1      -5.528  11.183  17.761  0.00  0.00    +0.000 NA
ATOM      7  C   UNL     1      -4.317  11.342  17.337  0.00  0.00    +0.000 A 
ATOM      8  N   UNL     1      -3.287  11.878  18.079  0.00  0.00    +0.000 N 
ATOM      9  C   UNL     1      -3.470  12.319  19.394  0.00  0.00    +0.000 A 
ATOM     10  O   UNL     1      -2.533  12.767  20.052  0.00  0.00    +0.000 OA
ATOM     11  C   UNL     1      -4.836  12.186  19.899  0.00  0.00    +0.000 A 
ATOM     12  C   UNL     1      -5.454  12.577  21.164  0.00  0.00    +0.000 A 
BRANCH  12  13
ATOM     13  C   UNL     1      -4.848  13.332  22.283  0.00  0.00    +0.000 A 
ATOM     14  C   UNL     1      -4.299  12.664  23.386  0.00  0.00    +0.000 A 
ATOM     15  C   UNL     1      -3.691  13.363  24.437  0.00  0.00    +0.000 A 
ATOM     16  C   UNL     1      -3.561  14.746  24.374  0.00  0.00    +0.000 A 
ATOM     17  C   UNL     1      -4.085  15.432  23.286  0.00  0.00    +0.000 A 
ATOM     18  C   UNL     1      -4.756  14.736  22.274  0.00  0.00    +0.000 A 
ENDBRANCH  12  13
ENDBRANCH   1   8
BRANCH   1  19
ATOM     19  C   UNL     1      -1.228  10.595  17.719  0.00  0.00    +0.000 C 
ATOM     20  O   UNL     1      -1.738   9.546  17.334  0.00  0.00    +0.000 OA
ATOM     21  N   UNL     1      -0.024  10.702  18.396  0.00  0.00    +0.000 N 
ATOM     22  H   UNL     1       0.155  11.572  18.892  0.00  0.00    +0.000 HD
BRANCH  21  23
ATOM     23  C   UNL     1       0.762   9.587  18.752  0.00  0.00    +0.000 A 
ATOM     24  C   UNL     1       0.815   9.089  20.058  0.00  0.00    +0.000 A 
ATOM     25  C   UNL     1       1.600   7.969  20.358  0.00  0.00    +0.000 A 
ATOM     26  C   UNL     1       2.359   7.359  19.357  0.00  0.00    +0.000 A 
ATOM     27  C   UNL     1       2.363   7.901  18.072  0.00  0.00    +0.000 A 
ATOM     28  C   UNL     1       1.520   8.971  17.755  0.00  0.00    +0.000 A 
BRANCH  26  29
ATOM     29  O   UNL     1       3.114   6.271  19.737  0.00  0.00    +0.000 OA
BRANCH  29  30
ATOM     30  C   UNL     1       2.502   5.045  19.903  0.00  0.00    +0.000 A 
ATOM     31  C   UNL     1       2.099   4.395  18.733  0.00  0.00    +0.000 A 
ATOM     32  C   UNL     1       1.462   3.152  18.805  0.00  0.00    +0.000 A 
ATOM     33  C   UNL     1       1.226   2.559  20.045  0.00  0.00    +0.000 A 
ATOM     34  C   UNL     1       1.654   3.190  21.211  0.00  0.00    +0.000 A 
ATOM     35  C   UNL     1       2.317   4.417  21.138  0.00  0.00    +0.000 A 
ENDBRANCH  29  30
ENDBRANCH  26  29
ENDBRANCH  21  23
ENDBRANCH   1  19
TORSDOF 6
ENDMDL
MODEL 3
REMARK VINA RESULT:      -9.7      0.194      1.181
REMARK  Name = 
REMARK  7 active torsions:
REMARK  status: ('A' for Active; 'I' for Inactive)
REMARK    1  A    between atoms: C_1  and  C_2
REMARK    2  A    between atoms: N_7  and  C_8
REMARK    3  A    between atoms: C_8  and  C_9
REMARK    4  A    between atoms: N_11  and  C_12
REMARK    5  A    between atoms: C_15  and  O_16
REMARK    6  A    between atoms: O_16  and  C_17
REMARK    7  A    between atoms: C_28  and  C_29
REMARK                            x       y       z     vdW  Elec       q    Type
REMARK                         _______ _______ _______ _____ _____    ______ ____
ROOT
ATOM      1  C   UNL     1       2.094   9.660  18.357  0.00  0.00    +0.000 C 
ENDROOT
BRANCH   1   8
ATOM      2  C   UNL     1       4.014   2.470  19.833  0.00  0.00    +0.000 C 
ATOM      3  C   UNL     1       3.496   3.868  19.642  0.00  0.00    +0.000 A 
ATOM      4  S   UNL     1       2.281   4.381  20.736  0.00  0.00    +0.000 S 
ATOM      5  C   UNL     1       2.253   5.946  20.099  0.00  0.00    +0.000 A 
ATOM      6  N   UNL     1       1.471   6.894  20.678  0.00  0.00    +0.000 NA
ATOM      7  C   UNL     1       1.493   8.046  20.090  0.00  0.00    +0.000 A 
ATOM      8  N   UNL     1       2.231   8.342  18.964  0.00  0.00    +0.000 N 
ATOM      9  C   UNL     1       3.053   7.395  18.346  0.00  0.00    +0.000 A 
ATOM     10  O   UNL     1       3.682   7.666  17.325  0.00  0.00    +0.000 OA
ATOM     11  C   UNL     1       3.082   6.087  19.002  0.00  0.00    +0.000 A 
ATOM     12  C   UNL     1       3.842   4.870  18.725  0.00  0.00    +0.000 A 
BRANCH  12  13
ATOM     13  C   UNL     1       4.903   4.664  17.716  0.00  0.00    +0.000 A 
ATOM     14  C   UNL     1       6.254   4.835  18.049  0.00  0.00    +0.000 A 
ATOM     15  C   UNL     1       7.272   4.609  17.114  0.00  0.00    +0.000 A 
ATOM     16  C   UNL     1       6.963   4.142  15.842  0.00  0.00    +0.000 A 
ATOM     17  C   UNL     1       5.633   3.951  15.489  0.00  0.00    +0.000 A 
ATOM     18  C   UNL     1       4.615   4.248  16.403  0.00  0.00    +0.000 A 
ENDBRANCH  12  13
ENDBRANCH   1   8
BRANCH   1  19
ATOM     19  C   UNL     1       0.678  10.192  18.541  0.00  0.00    +0.000 C 
ATOM     20  O   UNL     1       0.373  10.787  19.570  0.00  0.00    +0.000 OA
ATOM     21  N   UNL     1      -0.182   9.906  17.492  0.00  0.00    +0.000 N 
ATOM     22  H   UNL     1       0.110   9.187  16.834  0.00  0.00    +0.000 HD
BRANCH  21  23
ATOM     23  C   UNL     1      -1.548  10.254  17.499  0.00  0.00    +0.000 A 
ATOM     24  C   UNL     1      -2.412   9.932  16.448  0.00  0.00    +0.000 A 
ATOM     25  C   UNL     1      -3.765  10.287  16.509  0.00  0.00    +0.000 A 
ATOM     26  C   UNL     1      -4.254  10.993  17.610  0.00  0.00    +0.000 A 
ATOM     27  C   UNL     1      -3.375  11.378  18.623  0.00  0.00    +0.000 A 
ATOM     28  C   UNL     1      -2.043  10.957  18.599  0.00  0.00    +0.000 A 
BRANCH  26  29
ATOM     29  O   UNL     1      -5.593  11.316  17.587  0.00  0.00    +0.000 OA
BRANCH  29  30
ATOM     30  C   UNL     1      -6.360  11.112  18.716  0.00  0.00    +0.000 A 
ATOM     31  C   UNL     1      -6.767  12.260  19.400  0.00  0.00    +0.000 A 
ATOM     32  C   UNL     1      -7.539  12.150  20.560  0.00  0.00    +0.000 A 
ATOM     33  C   UNL     1      -7.903  10.892  21.039  0.00  0.00    +0.000 A 
ATOM     34  C   UNL     1      -7.526   9.746  20.343  0.00  0.00    +0.000 A 
ATOM     35  C   UNL     1      -6.780   9.857  19.167  0.00  0.00    +0.000 A 
ENDBRANCH  29  30
ENDBRANCH  26  29
ENDBRANCH  21  23
ENDBRANCH   1  19
TORSDOF 6
ENDMDL
MODEL 4
REMARK VINA RESULT:      -9.6      0.718      1.091
REMARK  Name = 
REMARK  7 active torsions:
REMARK  status: ('A' for Active; 'I' for Inactive)
REMARK    1  A    between atoms: C_1  and  C_2
REMARK    2  A    between atoms: N_7  and  C_8
REMARK    3  A    between atoms: C_8  and  C_9
REMARK    4  A    between atoms: N_11  and  C_12
REMARK    5  A    between atoms: C_15  and  O_16
REMARK    6  A    between atoms: O_16  and  C_17
REMARK    7  A    between atoms: C_28  and  C_29
REMARK                            x       y       z     vdW  Elec       q    Type
REMARK                         _______ _______ _______ _____ _____    ______ ____
ROOT
ATOM      1  C   UNL     1       2.129   9.035  19.139  0.00  0.00    +0.000 C 
ENDROOT
BRANCH   1   8
ATOM      2  C   UNL     1       3.919   1.671  18.766  0.00  0.00    +0.000 C 
ATOM      3  C   UNL     1       3.424   3.082  18.930  0.00  0.00    +0.000 A 
ATOM      4  S   UNL     1       2.203   3.323  20.107  0.00  0.00    +0.000 S 
ATOM      5  C   UNL     1       2.208   4.999  19.887  0.00  0.00    +0.000 A 
ATOM      6  N   UNL     1       1.432   5.784  20.679  0.00  0.00    +0.000 NA
ATOM      7  C   UNL     1       1.480   7.046  20.402  0.00  0.00    +0.000 A 
ATOM      8  N   UNL     1       2.238   7.603  19.394  0.00  0.00    +0.000 N 
ATOM      9  C   UNL     1       3.054   6.829  18.564  0.00  0.00    +0.000 A 
ATOM     10  O   UNL     1       3.700   7.338  17.651  0.00  0.00    +0.000 OA
ATOM     11  C   UNL     1       3.053   5.398  18.868  0.00  0.00    +0.000 A 
ATOM     12  C   UNL     1       3.798   4.276  18.300  0.00  0.00    +0.000 A 
BRANCH  12  13
ATOM     13  C   UNL     1       4.870   4.312  17.281  0.00  0.00    +0.000 A 
ATOM     14  C   UNL     1       4.569   4.190  15.918  0.00  0.00    +0.000 A 
ATOM     15  C   UNL     1       5.569   4.257  14.939  0.00  0.00    +0.000 A 
ATOM     16  C   UNL     1       6.886   4.516  15.301  0.00  0.00    +0.000 A 
ATOM     17  C   UNL     1       7.211   4.654  16.645  0.00  0.00    +0.000 A 
ATOM     18  C   UNL     1       6.219   4.513  17.624  0.00  0.00    +0.000 A 
ENDBRANCH  12  13
ENDBRANCH   1   8
BRANCH   1  19
ATOM     19  C   UNL     1       0.682   9.494  19.265  0.00  0.00    +0.000 C 
ATOM     20  O   UNL     1       0.092   9.385  20.337  0.00  0.00    +0.000 OA
ATOM     21  N   UNL     1       0.131   9.982  18.090  0.00  0.00    +0.000 N 
ATOM     22  H   UNL     1       0.622   9.772  17.225  0.00  0.00    +0.000 HD
BRANCH  21  23
ATOM     23  C   UNL     1      -1.212  10.396  17.983  0.00  0.00    +0.000 A 
ATOM     24  C   UNL     1      -1.741  11.442  18.747  0.00  0.00    +0.000 A 
ATOM     25  C   UNL     1      -3.079  11.826  18.593  0.00  0.00    +0.000 A 
ATOM     26  C   UNL     1      -3.903  11.145  17.694  0.00  0.00    +0.000 A 
ATOM     27  C   UNL     1      -3.394  10.055  16.987  0.00  0.00    +0.000 A 
ATOM     28  C   UNL     1      -2.040   9.722  17.083  0.00  0.00    +0.000 A 
BRANCH  26  29
ATOM     29  O   UNL     1      -5.208  11.576  17.611  0.00  0.00    +0.000 OA
BRANCH  29  30
ATOM     30  C   UNL     1      -6.040  11.437  18.703  0.00  0.00    +0.000 A 
ATOM     31  C   UNL     1      -6.463  10.137  18.995  0.00  0.00    +0.000 A 
ATOM     32  C   UNL     1      -7.314   9.903  20.078  0.00  0.00    +0.000 A 
ATOM     33  C   UNL     1      -7.746  10.966  20.870  0.00  0.00    +0.000 A 
ATOM     34  C   UNL     1      -7.302  12.259  20.602  0.00  0.00    +0.000 A 
ATOM     35  C   UNL     1      -6.427  12.490  19.538  0.00  0.00    +0.000 A 
ENDBRANCH  29  30
ENDBRANCH  26  29
ENDBRANCH  21  23
ENDBRANCH   1  19
TORSDOF 6
ENDMDL
MODEL 5
REMARK VINA RESULT:      -9.5      3.724     10.817
REMARK  Name = 
REMARK  7 active torsions:
REMARK  status: ('A' for Active; 'I' for Inactive)
REMARK    1  A    between atoms: C_1  and  C_2
REMARK    2  A    between atoms: N_7  and  C_8
REMARK    3  A    between atoms: C_8  and  C_9
REMARK    4  A    between atoms: N_11  and  C_12
REMARK    5  A    between atoms: C_15  and  O_16
REMARK    6  A    between atoms: O_16  and  C_17
REMARK    7  A    between atoms: C_28  and  C_29
REMARK                            x       y       z     vdW  Elec       q    Type
REMARK                         _______ _______ _______ _____ _____    ______ ____
ROOT
ATOM      1  C   UNL     1      -2.030  12.186  18.136  0.00  0.00    +0.000 C 
ENDROOT
BRANCH   1   8
ATOM      2  C   UNL     1      -7.591  12.961  23.239  0.00  0.00    +0.000 C 
ATOM      3  C   UNL     1      -6.585  12.682  22.157  0.00  0.00    +0.000 A 
ATOM      4  S   UNL     1      -7.137  11.738  20.838  0.00  0.00    +0.000 S 
ATOM      5  C   UNL     1      -5.677  11.906  20.002  0.00  0.00    +0.000 A 
ATOM      6  N   UNL     1      -5.554  11.392  18.751  0.00  0.00    +0.000 NA
ATOM      7  C   UNL     1      -4.386  11.542  18.216  0.00  0.00    +0.000 A 
ATOM      8  N   UNL     1      -3.316  12.164  18.824  0.00  0.00    +0.000 N 
ATOM      9  C   UNL     1      -3.406  12.711  20.107  0.00  0.00    +0.000 A 
ATOM     10  O   UNL     1      -2.434  13.236  20.646  0.00  0.00    +0.000 OA
ATOM     11  C   UNL     1      -4.724  12.592  20.732  0.00  0.00    +0.000 A 
ATOM     12  C   UNL     1      -5.250  13.076  22.007  0.00  0.00    +0.000 A 
BRANCH  12  13
ATOM     13  C   UNL     1      -4.579  13.938  23.005  0.00  0.00    +0.000 A 
ATOM     14  C   UNL     1      -4.775  15.326  23.002  0.00  0.00    +0.000 A 
ATOM     15  C   UNL     1      -4.175  16.151  23.962  0.00  0.00    +0.000 A 
ATOM     16  C   UNL     1      -3.418  15.596  24.987  0.00  0.00    +0.000 A 
ATOM     17  C   UNL     1      -3.218  14.222  25.021  0.00  0.00    +0.000 A 
ATOM     18  C   UNL     1      -3.759  13.409  24.018  0.00  0.00    +0.000 A 
ENDBRANCH  12  13
ENDBRANCH   1   8
BRANCH   1  19
ATOM     19  C   UNL     1      -1.342  10.830  18.241  0.00  0.00    +0.000 C 
ATOM     20  O   UNL     1      -1.918   9.816  17.856  0.00  0.00    +0.000 OA
ATOM     21  N   UNL     1      -0.084  10.870  18.822  0.00  0.00    +0.000 N 
ATOM     22  H   UNL     1       0.164  11.711  19.336  0.00  0.00    +0.000 HD
BRANCH  21  23
ATOM     23  C   UNL     1       0.688   9.716  19.067  0.00  0.00    +0.000 A 
ATOM     24  C   UNL     1       0.797   9.139  20.336  0.00  0.00    +0.000 A 
ATOM     25  C   UNL     1       1.564   7.983  20.525  0.00  0.00    +0.000 A 
ATOM     26  C   UNL     1       2.251   7.416  19.450  0.00  0.00    +0.000 A 
ATOM     27  C   UNL     1       2.201   8.034  18.201  0.00  0.00    +0.000 A 
ATOM     28  C   UNL     1       1.373   9.142  17.995  0.00  0.00    +0.000 A 
BRANCH  26  29
ATOM     29  O   UNL     1       2.993   6.288  19.723  0.00  0.00    +0.000 OA
BRANCH  29  30
ATOM     30  C   UNL     1       2.407   5.044  19.605  0.00  0.00    +0.000 A 
ATOM     31  C   UNL     1       1.963   4.458  20.793  0.00  0.00    +0.000 A 
ATOM     32  C   UNL     1       1.365   3.195  20.771  0.00  0.00    +0.000 A 
ATOM     33  C   UNL     1       1.212   2.515  19.563  0.00  0.00    +0.000 A 
ATOM     34  C   UNL     1       1.625   3.110  18.373  0.00  0.00    +0.000 A 
ATOM     35  C   UNL     1       2.195   4.385  18.390  0.00  0.00    +0.000 A 
ENDBRANCH  29  30
ENDBRANCH  26  29
ENDBRANCH  21  23
ENDBRANCH   1  19
TORSDOF 6
ENDMDL
MODEL 6
REMARK VINA RESULT:      -9.5      3.722     10.777
REMARK  Name = 
REMARK  7 active torsions:
REMARK  status: ('A' for Active; 'I' for Inactive)
REMARK    1  A    between atoms: C_1  and  C_2
REMARK    2  A    between atoms: N_7  and  C_8
REMARK    3  A    between atoms: C_8  and  C_9
REMARK    4  A    between atoms: N_11  and  C_12
REMARK    5  A    between atoms: C_15  and  O_16
REMARK    6  A    between atoms: O_16  and  C_17
REMARK    7  A    between atoms: C_28  and  C_29
REMARK                            x       y       z     vdW  Elec       q    Type
REMARK                         _______ _______ _______ _____ _____    ______ ____
ROOT
ATOM      1  C   UNL     1      -1.973  12.176  18.154  0.00  0.00    +0.000 C 
ENDROOT
BRANCH   1   8
ATOM      2  C   UNL     1      -7.564  12.968  23.221  0.00  0.00    +0.000 C 
ATOM      3  C   UNL     1      -6.552  12.686  22.146  0.00  0.00    +0.000 A 
ATOM      4  S   UNL     1      -7.097  11.742  20.824  0.00  0.00    +0.000 S 
ATOM      5  C   UNL     1      -5.632  11.907  19.997  0.00  0.00    +0.000 A 
ATOM      6  N   UNL     1      -5.502  11.392  18.747  0.00  0.00    +0.000 NA
ATOM      7  C   UNL     1      -4.331  11.538  18.220  0.00  0.00    +0.000 A 
ATOM      8  N   UNL     1      -3.263  12.158  18.833  0.00  0.00    +0.000 N 
ATOM      9  C   UNL     1      -3.360  12.706  20.116  0.00  0.00    +0.000 A 
ATOM     10  O   UNL     1      -2.390  13.229  20.660  0.00  0.00    +0.000 OA
ATOM     11  C   UNL     1      -4.681  12.590  20.733  0.00  0.00    +0.000 A 
ATOM     12  C   UNL     1      -5.214  13.077  22.004  0.00  0.00    +0.000 A 
BRANCH  12  13
ATOM     13  C   UNL     1      -4.548  13.938  23.006  0.00  0.00    +0.000 A 
ATOM     14  C   UNL     1      -4.734  15.327  22.997  0.00  0.00    +0.000 A 
ATOM     15  C   UNL     1      -4.138  16.151  23.959  0.00  0.00    +0.000 A 
ATOM     16  C   UNL     1      -3.395  15.594  24.994  0.00  0.00    +0.000 A 
ATOM     17  C   UNL     1      -3.204  14.219  25.034  0.00  0.00    +0.000 A 
ATOM     18  C   UNL     1      -3.741  13.406  24.028  0.00  0.00    +0.000 A 
ENDBRANCH  12  13
ENDBRANCH   1   8
BRANCH   1  19
ATOM     19  C   UNL     1      -1.291  10.817  18.258  0.00  0.00    +0.000 C 
ATOM     20  O   UNL     1      -1.904   9.796  17.958  0.00  0.00    +0.000 OA
ATOM     21  N   UNL     1       0.007  10.863  18.741  0.00  0.00    +0.000 N 
ATOM     22  H   UNL     1       0.302  11.720  19.203  0.00  0.00    +0.000 HD
BRANCH  21  23
ATOM     23  C   UNL     1       0.784   9.710  18.971  0.00  0.00    +0.000 A 
ATOM     24  C   UNL     1       1.504   9.072  17.956  0.00  0.00    +0.000 A 
ATOM     25  C   UNL     1       2.274   7.936  18.239  0.00  0.00    +0.000 A 
ATOM     26  C   UNL     1       2.304   7.417  19.534  0.00  0.00    +0.000 A 
ATOM     27  C   UNL     1       1.527   8.011  20.530  0.00  0.00    +0.000 A 
ATOM     28  C   UNL     1       0.821   9.188  20.266  0.00  0.00    +0.000 A 
BRANCH  26  29
ATOM     29  O   UNL     1       3.074   6.291  19.727  0.00  0.00    +0.000 OA
BRANCH  29  30
ATOM     30  C   UNL     1       2.460   5.067  19.888  0.00  0.00    +0.000 A 
ATOM     31  C   UNL     1       2.060   4.419  18.716  0.00  0.00    +0.000 A 
ATOM     32  C   UNL     1       1.421   3.177  18.784  0.00  0.00    +0.000 A 
ATOM     33  C   UNL     1       1.178   2.584  20.022  0.00  0.00    +0.000 A 
ATOM     34  C   UNL     1       1.602   3.212  21.190  0.00  0.00    +0.000 A 
ATOM     35  C   UNL     1       2.268   4.437  21.122  0.00  0.00    +0.000 A 
ENDBRANCH  29  30
ENDBRANCH  26  29
ENDBRANCH  21  23
ENDBRANCH   1  19
TORSDOF 6
ENDMDL
MODEL 7
REMARK VINA RESULT:      -9.4      0.905      1.692
REMARK  Name = 
REMARK  7 active torsions:
REMARK  status: ('A' for Active; 'I' for Inactive)
REMARK    1  A    between atoms: C_1  and  C_2
REMARK    2  A    between atoms: N_7  and  C_8
REMARK    3  A    between atoms: C_8  and  C_9
REMARK    4  A    between atoms: N_11  and  C_12
REMARK    5  A    between atoms: C_15  and  O_16
REMARK    6  A    between atoms: O_16  and  C_17
REMARK    7  A    between atoms: C_28  and  C_29
REMARK                            x       y       z     vdW  Elec       q    Type
REMARK                         _______ _______ _______ _____ _____    ______ ____
ROOT
ATOM      1  C   UNL     1       2.100   8.905  19.543  0.00  0.00    +0.000 C 
ENDROOT
BRANCH   1   8
ATOM      2  C   UNL     1       3.746   1.597  18.340  0.00  0.00    +0.000 C 
ATOM      3  C   UNL     1       3.277   2.990  18.659  0.00  0.00    +0.000 A 
ATOM      4  S   UNL     1       2.036   3.119  19.833  0.00  0.00    +0.000 S 
ATOM      5  C   UNL     1       2.079   4.809  19.812  0.00  0.00    +0.000 A 
ATOM      6  N   UNL     1       1.303   5.513  20.675  0.00  0.00    +0.000 NA
ATOM      7  C   UNL     1       1.383   6.798  20.550  0.00  0.00    +0.000 A 
ATOM      8  N   UNL     1       2.174   7.452  19.629  0.00  0.00    +0.000 N 
ATOM      9  C   UNL     1       2.991   6.761  18.730  0.00  0.00    +0.000 A 
ATOM     10  O   UNL     1       3.668   7.359  17.896  0.00  0.00    +0.000 OA
ATOM     11  C   UNL     1       2.955   5.305  18.863  0.00  0.00    +0.000 A 
ATOM     12  C   UNL     1       3.689   4.241  18.182  0.00  0.00    +0.000 A 
BRANCH  12  13
ATOM     13  C   UNL     1       4.784   4.371  17.195  0.00  0.00    +0.000 A 
ATOM     14  C   UNL     1       6.110   4.541  17.612  0.00  0.00    +0.000 A 
ATOM     15  C   UNL     1       7.162   4.632  16.691  0.00  0.00    +0.000 A 
ATOM     16  C   UNL     1       6.914   4.487  15.331  0.00  0.00    +0.000 A 
ATOM     17  C   UNL     1       5.609   4.305  14.890  0.00  0.00    +0.000 A 
ATOM     18  C   UNL     1       4.554   4.288  15.809  0.00  0.00    +0.000 A 
ENDBRANCH  12  13
ENDBRANCH   1   8
BRANCH   1  19
ATOM     19  C   UNL     1       0.655   9.377  19.651  0.00  0.00    +0.000 C 
ATOM     20  O   UNL     1       0.023   9.192  20.687  0.00  0.00    +0.000 OA
ATOM     21  N   UNL     1       0.158   9.967  18.499  0.00  0.00    +0.000 N 
ATOM     22  H   UNL     1       0.679   9.820  17.639  0.00  0.00    +0.000 HD
BRANCH  21  23
ATOM     23  C   UNL     1      -1.175  10.411  18.375  0.00  0.00    +0.000 A 
ATOM     24  C   UNL     1      -1.696  11.453  19.149  0.00  0.00    +0.000 A 
ATOM     25  C   UNL     1      -3.023  11.867  18.978  0.00  0.00    +0.000 A 
ATOM     26  C   UNL     1      -3.843  11.221  18.051  0.00  0.00    +0.000 A 
ATOM     27  C   UNL     1      -3.343  10.135  17.332  0.00  0.00    +0.000 A 
ATOM     28  C   UNL     1      -1.998   9.772  17.447  0.00  0.00    +0.000 A 
BRANCH  26  29
ATOM     29  O   UNL     1      -5.138  11.680  17.952  0.00  0.00    +0.000 OA
BRANCH  29  30
ATOM     30  C   UNL     1      -6.056  11.337  18.923  0.00  0.00    +0.000 A 
ATOM     31  C   UNL     1      -6.520  12.381  19.729  0.00  0.00    +0.000 A 
ATOM     32  C   UNL     1      -7.444  12.126  20.745  0.00  0.00    +0.000 A 
ATOM     33  C   UNL     1      -7.906  10.828  20.960  0.00  0.00    +0.000 A 
ATOM     34  C   UNL     1      -7.470   9.790  20.139  0.00  0.00    +0.000 A 
ATOM     35  C   UNL     1      -6.569  10.050  19.104  0.00  0.00    +0.000 A 
ENDBRANCH  29  30
ENDBRANCH  26  29
ENDBRANCH  21  23
ENDBRANCH   1  19
TORSDOF 6
ENDMDL
MODEL 8
REMARK VINA RESULT:      -9.4      3.527     10.460
REMARK  Name = 
REMARK  7 active torsions:
REMARK  status: ('A' for Active; 'I' for Inactive)
REMARK    1  A    between atoms: C_1  and  C_2
REMARK    2  A    between atoms: N_7  and  C_8
REMARK    3  A    between atoms: C_8  and  C_9
REMARK    4  A    between atoms: N_11  and  C_12
REMARK    5  A    between atoms: C_15  and  O_16
REMARK    6  A    between atoms: O_16  and  C_17
REMARK    7  A    between atoms: C_28  and  C_29
REMARK                            x       y       z     vdW  Elec       q    Type
REMARK                         _______ _______ _______ _____ _____    ______ ____
ROOT
ATOM      1  C   UNL     1      -0.256  13.363  20.481  0.00  0.00    +0.000 C 
ENDROOT
BRANCH   1   8
ATOM      2  C   UNL     1      -7.240  12.587  23.342  0.00  0.00    +0.000 C 
ATOM      3  C   UNL     1      -5.807  12.791  22.934  0.00  0.00    +0.000 A 
ATOM      4  S   UNL     1      -4.672  12.941  24.208  0.00  0.00    +0.000 S 
ATOM      5  C   UNL     1      -3.361  13.003  23.142  0.00  0.00    +0.000 A 
ATOM      6  N   UNL     1      -2.096  13.041  23.633  0.00  0.00    +0.000 NA
ATOM      7  C   UNL     1      -1.169  13.126  22.735  0.00  0.00    +0.000 A 
ATOM      8  N   UNL     1      -1.393  13.181  21.375  0.00  0.00    +0.000 N 
ATOM      9  C   UNL     1      -2.681  13.137  20.833  0.00  0.00    +0.000 A 
ATOM     10  O   UNL     1      -2.864  13.216  19.620  0.00  0.00    +0.000 OA
ATOM     11  C   UNL     1      -3.755  13.006  21.817  0.00  0.00    +0.000 A 
ATOM     12  C   UNL     1      -5.203  12.861  21.672  0.00  0.00    +0.000 A 
BRANCH  12  13
ATOM     13  C   UNL     1      -5.987  12.708  20.427  0.00  0.00    +0.000 A 
ATOM     14  C   UNL     1      -6.537  13.825  19.783  0.00  0.00    +0.000 A 
ATOM     15  C   UNL     1      -7.251  13.700  18.585  0.00  0.00    +0.000 A 
ATOM     16  C   UNL     1      -7.375  12.459  17.970  0.00  0.00    +0.000 A 
ATOM     17  C   UNL     1      -6.829  11.337  18.580  0.00  0.00    +0.000 A 
ATOM     18  C   UNL     1      -6.179  11.457  19.814  0.00  0.00    +0.000 A 
ENDBRANCH  12  13
ENDBRANCH   1   8
BRANCH   1  19
ATOM     19  C   UNL     1       0.651  12.139  20.508  0.00  0.00    +0.000 C 
ATOM     20  O   UNL     1       1.747  12.197  21.057  0.00  0.00    +0.000 OA
ATOM     21  N   UNL     1       0.140  11.033  19.845  0.00  0.00    +0.000 N 
ATOM     22  H   UNL     1      -0.639  11.189  19.211  0.00  0.00    +0.000 HD
BRANCH  21  23
ATOM     23  C   UNL     1       0.852   9.825  19.702  0.00  0.00    +0.000 A 
ATOM     24  C   UNL     1       1.493   9.465  18.512  0.00  0.00    +0.000 A 
ATOM     25  C   UNL     1       2.201   8.260  18.424  0.00  0.00    +0.000 A 
ATOM     26  C   UNL     1       2.246   7.394  19.518  0.00  0.00    +0.000 A 
ATOM     27  C   UNL     1       1.545   7.720  20.680  0.00  0.00    +0.000 A 
ATOM     28  C   UNL     1       0.905   8.957  20.794  0.00  0.00    +0.000 A 
BRANCH  26  29
ATOM     29  O   UNL     1       2.952   6.224  19.346  0.00  0.00    +0.000 OA
BRANCH  29  30
ATOM     30  C   UNL     1       2.287   5.017  19.396  0.00  0.00    +0.000 A 
ATOM     31  C   UNL     1       2.095   4.470  20.667  0.00  0.00    +0.000 A 
ATOM     32  C   UNL     1       1.439   3.244  20.813  0.00  0.00    +0.000 A 
ATOM     33  C   UNL     1       0.975   2.562  19.689  0.00  0.00    +0.000 A 
ATOM     34  C   UNL     1       1.136   3.119  18.422  0.00  0.00    +0.000 A 
ATOM     35  C   UNL     1       1.765   4.358  18.278  0.00  0.00    +0.000 A 
ENDBRANCH  29  30
ENDBRANCH  26  29
ENDBRANCH  21  23
ENDBRANCH   1  19
TORSDOF 6
ENDMDL
MODEL 9
REMARK VINA RESULT:      -9.3      4.055     10.641
REMARK  Name = 
REMARK  7 active torsions:
REMARK  status: ('A' for Active; 'I' for Inactive)
REMARK    1  A    between atoms: C_1  and  C_2
REMARK    2  A    between atoms: N_7  and  C_8
REMARK    3  A    between atoms: C_8  and  C_9
REMARK    4  A    between atoms: N_11  and  C_12
REMARK    5  A    between atoms: C_15  and  O_16
REMARK    6  A    between atoms: O_16  and  C_17
REMARK    7  A    between atoms: C_28  and  C_29
REMARK                            x       y       z     vdW  Elec       q    Type
REMARK                         _______ _______ _______ _____ _____    ______ ____
ROOT
ATOM      1  C   UNL     1      -1.310  12.519  18.259  0.00  0.00    +0.000 C 
ENDROOT
BRANCH   1   8
ATOM      2  C   UNL     1      -2.192  15.952  24.967  0.00  0.00    +0.000 C 
ATOM      3  C   UNL     1      -1.894  15.389  23.605  0.00  0.00    +0.000 A 
ATOM      4  S   UNL     1      -0.438  15.915  22.872  0.00  0.00    +0.000 S 
ATOM      5  C   UNL     1      -0.639  14.887  21.545  0.00  0.00    +0.000 A 
ATOM      6  N   UNL     1       0.333  14.809  20.600  0.00  0.00    +0.000 NA
ATOM      7  C   UNL     1       0.063  14.023  19.610  0.00  0.00    +0.000 A 
ATOM      8  N   UNL     1      -1.103  13.300  19.473  0.00  0.00    +0.000 N 
ATOM      9  C   UNL     1      -2.122  13.349  20.428  0.00  0.00    +0.000 A 
ATOM     10  O   UNL     1      -3.168  12.721  20.277  0.00  0.00    +0.000 OA
ATOM     11  C   UNL     1      -1.839  14.202  21.583  0.00  0.00    +0.000 A 
ATOM     12  C   UNL     1      -2.590  14.473  22.807  0.00  0.00    +0.000 A 
BRANCH  12  13
ATOM     13  C   UNL     1      -3.853  13.850  23.263  0.00  0.00    +0.000 A 
ATOM     14  C   UNL     1      -3.840  12.783  24.171  0.00  0.00    +0.000 A 
ATOM     15  C   UNL     1      -5.028  12.206  24.638  0.00  0.00    +0.000 A 
ATOM     16  C   UNL     1      -6.258  12.730  24.257  0.00  0.00    +0.000 A 
ATOM     17  C   UNL     1      -6.299  13.796  23.367  0.00  0.00    +0.000 A 
ATOM     18  C   UNL     1      -5.111  14.322  22.846  0.00  0.00    +0.000 A 
ENDBRANCH  12  13
ENDBRANCH   1   8
BRANCH   1  19
ATOM     19  C   UNL     1      -0.835  11.084  18.457  0.00  0.00    +0.000 C 
ATOM     20  O   UNL     1      -1.653  10.174  18.559  0.00  0.00    +0.000 OA
ATOM     21  N   UNL     1       0.541  10.942  18.543  0.00  0.00    +0.000 N 
ATOM     22  H   UNL     1       1.085  11.784  18.714  0.00  0.00    +0.000 HD
BRANCH  21  23
ATOM     23  C   UNL     1       1.174   9.707  18.789  0.00  0.00    +0.000 A 
ATOM     24  C   UNL     1       1.839   8.990  17.789  0.00  0.00    +0.000 A 
ATOM     25  C   UNL     1       2.465   7.773  18.088  0.00  0.00    +0.000 A 
ATOM     26  C   UNL     1       2.404   7.254  19.382  0.00  0.00    +0.000 A 
ATOM     27  C   UNL     1       1.678   7.934  20.361  0.00  0.00    +0.000 A 
ATOM     28  C   UNL     1       1.119   9.185  20.083  0.00  0.00    +0.000 A 
BRANCH  26  29
ATOM     29  O   UNL     1       3.035   6.047  19.590  0.00  0.00    +0.000 OA
BRANCH  29  30
ATOM     30  C   UNL     1       2.321   4.875  19.449  0.00  0.00    +0.000 A 
ATOM     31  C   UNL     1       2.495   4.189  18.244  0.00  0.00    +0.000 A 
ATOM     32  C   UNL     1       1.804   2.996  18.009  0.00  0.00    +0.000 A 
ATOM     33  C   UNL     1       0.938   2.489  18.977  0.00  0.00    +0.000 A 
ATOM     34  C   UNL     1       0.787   3.153  20.192  0.00  0.00    +0.000 A 
ATOM     35  C   UNL     1       1.499   4.329  20.439  0.00  0.00    +0.000 A 
ENDBRANCH  29  30
ENDBRANCH  26  29
ENDBRANCH  21  23
ENDBRANCH   1  19
TORSDOF 6
ENDMDL
