MODEL 1
REMARK VINA RESULT:      -7.2      0.000      0.000
REMARK  Name = 
REMARK  9 active torsions:
REMARK  status: ('A' for Active; 'I' for Inactive)
REMARK    1  A    between atoms: C_1  and  C_2
REMARK    2  A    between atoms: C_5  and  S_6
REMARK    3  A    between atoms: S_6  and  C_7
REMARK    4  A    between atoms: C_7  and  C_18
REMARK    5  A    between atoms: C_8  and  C_9
REMARK    6  A    between atoms: C_12  and  N_13
REMARK    7  A    between atoms: N_13  and  C_14
REMARK    8  A    between atoms: N_13  and  C_15
REMARK    9  A    between atoms: C_18  and  C_20
REMARK                            x       y       z     vdW  Elec       q    Type
REMARK                         _______ _______ _______ _____ _____    ______ ____
ROOT
ATOM      1  C   UNL     1       5.445   5.562  16.692  0.00  0.00    +0.000 C 
ATOM      2  C   UNL     1       6.684   5.767  17.185  0.00  0.00    +0.000 C 
ENDROOT
BRANCH   2   3
ATOM      3  C   UNL     1       7.293   6.986  17.744  0.00  0.00    +0.000 A 
ATOM      4  C   UNL     1       8.160   6.881  18.835  0.00  0.00    +0.000 A 
ATOM      5  C   UNL     1       8.879   7.999  19.300  0.00  0.00    +0.000 A 
ATOM      6  C   UNL     1       8.770   9.262  18.699  0.00  0.00    +0.000 A 
ATOM      7  C   UNL     1       7.864   9.345  17.625  0.00  0.00    +0.000 A 
ATOM      8  C   UNL     1       7.142   8.235  17.149  0.00  0.00    +0.000 A 
BRANCH   6   9
ATOM      9  N   UNL     1       9.475  10.373  19.143  0.00  0.00    +0.000 N 
ATOM     10  C   UNL     1       9.299  10.878  20.503  0.00  0.00    +0.000 C 
ATOM     11  C   UNL     1      10.130  11.302  18.226  0.00  0.00    +0.000 C 
ENDBRANCH   6   9
ENDBRANCH   2   3
BRANCH   1  12
ATOM     12  C   UNL     1       4.431   6.670  16.559  0.00  0.00    +0.000 C 
ATOM     13  O   UNL     1       4.267   7.245  15.482  0.00  0.00    +0.000 OA
BRANCH  12  14
ATOM     14  C   UNL     1       3.541   7.071  17.698  0.00  0.00    +0.000 A 
ATOM     15  C   UNL     1       3.501   6.401  18.930  0.00  0.00    +0.000 A 
ATOM     16  C   UNL     1       2.641   6.832  19.949  0.00  0.00    +0.000 A 
ATOM     17  C   UNL     1       1.848   7.962  19.760  0.00  0.00    +0.000 A 
ATOM     18 BR   UNL     1       0.719   8.563  21.151  0.00  0.00    +0.000 Br
ATOM     19  C   UNL     1       1.898   8.661  18.557  0.00  0.00    +0.000 A 
ATOM     20  C   UNL     1       2.741   8.215  17.532  0.00  0.00    +0.000 A 
ENDBRANCH  12  14
ENDBRANCH   1  12
BRANCH   1  21
ATOM     21  S   UNL     1       4.936   3.938  16.332  0.00  0.00    +0.000 S 
BRANCH  21  26
ATOM     22  C   UNL     1       1.296   2.755  21.071  0.00  0.00    +0.000 C 
ATOM     23  C   UNL     1       2.157   2.944  19.857  0.00  0.00    +0.000 A 
ATOM     24  C   UNL     1       3.546   2.900  19.963  0.00  0.00    +0.000 A 
ATOM     25  C   UNL     1       4.344   3.153  18.844  0.00  0.00    +0.000 A 
ATOM     26  C   UNL     1       3.777   3.458  17.593  0.00  0.00    +0.000 A 
ATOM     27  C   UNL     1       2.387   3.481  17.482  0.00  0.00    +0.000 A 
ATOM     28  C   UNL     1       1.582   3.223  18.606  0.00  0.00    +0.000 A 
ENDBRANCH  21  26
ENDBRANCH   1  21
TORSDOF 6
ENDMDL
MODEL 2
REMARK VINA RESULT:      -6.8      0.286      1.148
REMARK  Name = 
REMARK  9 active torsions:
REMARK  status: ('A' for Active; 'I' for Inactive)
REMARK    1  A    between atoms: C_1  and  C_2
REMARK    2  A    between atoms: C_5  and  S_6
REMARK    3  A    between atoms: S_6  and  C_7
REMARK    4  A    between atoms: C_7  and  C_18
REMARK    5  A    between atoms: C_8  and  C_9
REMARK    6  A    between atoms: C_12  and  N_13
REMARK    7  A    between atoms: N_13  and  C_14
REMARK    8  A    between atoms: N_13  and  C_15
REMARK    9  A    between atoms: C_18  and  C_20
REMARK                            x       y       z     vdW  Elec       q    Type
REMARK                         _______ _______ _______ _____ _____    ______ ____
ROOT
ATOM      1  C   UNL     1       5.392   5.402  16.706  0.00  0.00    +0.000 C 
ATOM      2  C   UNL     1       6.668   5.504  17.132  0.00  0.00    +0.000 C 
ENDROOT
BRANCH   2   3
ATOM      3  C   UNL     1       7.412   6.673  17.632  0.00  0.00    +0.000 A 
ATOM      4  C   UNL     1       7.306   7.892  16.957  0.00  0.00    +0.000 A 
ATOM      5  C   UNL     1       7.876   9.066  17.486  0.00  0.00    +0.000 A 
ATOM      6  C   UNL     1       8.568   9.078  18.706  0.00  0.00    +0.000 A 
ATOM      7  C   UNL     1       8.688   7.830  19.346  0.00  0.00    +0.000 A 
ATOM      8  C   UNL     1       8.121   6.650  18.828  0.00  0.00    +0.000 A 
BRANCH   6   9
ATOM      9  N   UNL     1       9.132  10.227  19.243  0.00  0.00    +0.000 N 
ATOM     10  C   UNL     1      10.033  11.062  18.450  0.00  0.00    +0.000 C 
ATOM     11  C   UNL     1       9.171  10.482  20.680  0.00  0.00    +0.000 C 
ENDBRANCH   6   9
ENDBRANCH   2   3
BRANCH   1  12
ATOM     12  C   UNL     1       4.476   6.595  16.597  0.00  0.00    +0.000 C 
ATOM     13  O   UNL     1       4.395   7.230  15.544  0.00  0.00    +0.000 OA
BRANCH  12  14
ATOM     14  C   UNL     1       3.584   7.015  17.728  0.00  0.00    +0.000 A 
ATOM     15  C   UNL     1       3.574   6.394  18.986  0.00  0.00    +0.000 A 
ATOM     16  C   UNL     1       2.710   6.841  19.995  0.00  0.00    +0.000 A 
ATOM     17  C   UNL     1       1.883   7.939  19.768  0.00  0.00    +0.000 A 
ATOM     18 BR   UNL     1       0.749   8.563  21.146  0.00  0.00    +0.000 Br
ATOM     19  C   UNL     1       1.903   8.590  18.538  0.00  0.00    +0.000 A 
ATOM     20  C   UNL     1       2.750   8.129  17.524  0.00  0.00    +0.000 A 
ENDBRANCH  12  14
ENDBRANCH   1  12
BRANCH   1  21
ATOM     21  S   UNL     1       4.722   3.825  16.410  0.00  0.00    +0.000 S 
BRANCH  21  26
ATOM     22  C   UNL     1       1.571   2.902  21.542  0.00  0.00    +0.000 C 
ATOM     23  C   UNL     1       2.302   3.027  20.237  0.00  0.00    +0.000 A 
ATOM     24  C   UNL     1       3.690   2.914  20.193  0.00  0.00    +0.000 A 
ATOM     25  C   UNL     1       4.371   3.110  18.988  0.00  0.00    +0.000 A 
ATOM     26  C   UNL     1       3.686   3.423  17.801  0.00  0.00    +0.000 A 
ATOM     27  C   UNL     1       2.296   3.515  17.841  0.00  0.00    +0.000 A 
ATOM     28  C   UNL     1       1.607   3.316  19.051  0.00  0.00    +0.000 A 
ENDBRANCH  21  26
ENDBRANCH   1  21
TORSDOF 6
ENDMDL
MODEL 3
REMARK VINA RESULT:      -6.8      5.609      8.624
REMARK  Name = 
REMARK  9 active torsions:
REMARK  status: ('A' for Active; 'I' for Inactive)
REMARK    1  A    between atoms: C_1  and  C_2
REMARK    2  A    between atoms: C_5  and  S_6
REMARK    3  A    between atoms: S_6  and  C_7
REMARK    4  A    between atoms: C_7  and  C_18
REMARK    5  A    between atoms: C_8  and  C_9
REMARK    6  A    between atoms: C_12  and  N_13
REMARK    7  A    between atoms: N_13  and  C_14
REMARK    8  A    between atoms: N_13  and  C_15
REMARK    9  A    between atoms: C_18  and  C_20
REMARK                            x       y       z     vdW  Elec       q    Type
REMARK                         _______ _______ _______ _____ _____    ______ ____
ROOT
ATOM      1  C   UNL     1       0.970   9.717  18.599  0.00  0.00    +0.000 C 
ATOM      2  C   UNL     1      -0.152   9.582  17.863  0.00  0.00    +0.000 C 
ENDROOT
BRANCH   2   3
ATOM      3  C   UNL     1      -1.430  10.311  17.938  0.00  0.00    +0.000 A 
ATOM      4  C   UNL     1      -2.581   9.736  17.391  0.00  0.00    +0.000 A 
ATOM      5  C   UNL     1      -3.845  10.328  17.577  0.00  0.00    +0.000 A 
ATOM      6  C   UNL     1      -4.018  11.508  18.315  0.00  0.00    +0.000 A 
ATOM      7  C   UNL     1      -2.838  12.082  18.824  0.00  0.00    +0.000 A 
ATOM      8  C   UNL     1      -1.569  11.499  18.648  0.00  0.00    +0.000 A 
BRANCH   6   9
ATOM      9  N   UNL     1      -5.258  12.101  18.510  0.00  0.00    +0.000 N 
ATOM     10  C   UNL     1      -6.043  12.589  17.377  0.00  0.00    +0.000 C 
ATOM     11  C   UNL     1      -5.691  12.600  19.813  0.00  0.00    +0.000 C 
ENDBRANCH   6   9
ENDBRANCH   2   3
BRANCH   1  12
ATOM     12  C   UNL     1       1.067  10.670  19.764  0.00  0.00    +0.000 C 
ATOM     13  O   UNL     1       0.797  10.294  20.906  0.00  0.00    +0.000 OA
BRANCH  12  14
ATOM     14  C   UNL     1       1.554  12.079  19.597  0.00  0.00    +0.000 A 
ATOM     15  C   UNL     1       1.574  13.026  20.632  0.00  0.00    +0.000 A 
ATOM     16  C   UNL     1       2.042  14.326  20.400  0.00  0.00    +0.000 A 
ATOM     17  C   UNL     1       2.536  14.675  19.144  0.00  0.00    +0.000 A 
ATOM     18 BR   UNL     1       3.204  16.418  18.848  0.00  0.00    +0.000 Br
ATOM     19  C   UNL     1       2.557  13.739  18.114  0.00  0.00    +0.000 A 
ATOM     20  C   UNL     1       2.067  12.448  18.341  0.00  0.00    +0.000 A 
ENDBRANCH  12  14
ENDBRANCH   1  12
BRANCH   1  21
ATOM     21  S   UNL     1       2.412   8.877  18.106  0.00  0.00    +0.000 S 
BRANCH  21  26
ATOM     22  C   UNL     1       1.405   3.390  20.555  0.00  0.00    +0.000 C 
ATOM     23  C   UNL     1       1.766   4.709  19.936  0.00  0.00    +0.000 A 
ATOM     24  C   UNL     1       1.773   5.871  20.705  0.00  0.00    +0.000 A 
ATOM     25  C   UNL     1       2.033   7.107  20.106  0.00  0.00    +0.000 A 
ATOM     26  C   UNL     1       2.291   7.214  18.728  0.00  0.00    +0.000 A 
ATOM     27  C   UNL     1       2.305   6.049  17.963  0.00  0.00    +0.000 A 
ATOM     28  C   UNL     1       2.047   4.804  18.562  0.00  0.00    +0.000 A 
ENDBRANCH  21  26
ENDBRANCH   1  21
TORSDOF 6
ENDMDL
MODEL 4
REMARK VINA RESULT:      -6.8      5.773      8.969
REMARK  Name = 
REMARK  9 active torsions:
REMARK  status: ('A' for Active; 'I' for Inactive)
REMARK    1  A    between atoms: C_1  and  C_2
REMARK    2  A    between atoms: C_5  and  S_6
REMARK    3  A    between atoms: S_6  and  C_7
REMARK    4  A    between atoms: C_7  and  C_18
REMARK    5  A    between atoms: C_8  and  C_9
REMARK    6  A    between atoms: C_12  and  N_13
REMARK    7  A    between atoms: N_13  and  C_14
REMARK    8  A    between atoms: N_13  and  C_15
REMARK    9  A    between atoms: C_18  and  C_20
REMARK                            x       y       z     vdW  Elec       q    Type
REMARK                         _______ _______ _______ _____ _____    ______ ____
ROOT
ATOM      1  C   UNL     1       0.608  10.266  18.238  0.00  0.00    +0.000 C 
ATOM      2  C   UNL     1      -0.453   9.638  17.690  0.00  0.00    +0.000 C 
ENDROOT
BRANCH   2   3
ATOM      3  C   UNL     1      -1.854  10.076  17.565  0.00  0.00    +0.000 A 
ATOM      4  C   UNL     1      -2.786   9.675  18.526  0.00  0.00    +0.000 A 
ATOM      5  C   UNL     1      -4.095  10.194  18.527  0.00  0.00    +0.000 A 
ATOM      6  C   UNL     1      -4.529  11.133  17.580  0.00  0.00    +0.000 A 
ATOM      7  C   UNL     1      -3.579  11.492  16.605  0.00  0.00    +0.000 A 
ATOM      8  C   UNL     1      -2.267  10.983  16.594  0.00  0.00    +0.000 A 
BRANCH   6   9
ATOM      9  N   UNL     1      -5.814  11.657  17.570  0.00  0.00    +0.000 N 
ATOM     10  C   UNL     1      -6.070  13.006  17.066  0.00  0.00    +0.000 C 
ATOM     11  C   UNL     1      -6.899  11.087  18.364  0.00  0.00    +0.000 C 
ENDBRANCH   6   9
ENDBRANCH   2   3
BRANCH   1  12
ATOM     12  C   UNL     1       0.492  11.599  18.934  0.00  0.00    +0.000 C 
ATOM     13  O   UNL     1       1.140  12.570  18.541  0.00  0.00    +0.000 OA
BRANCH  12  14
ATOM     14  C   UNL     1      -0.456  11.817  20.076  0.00  0.00    +0.000 A 
ATOM     15  C   UNL     1      -1.514  12.737  20.047  0.00  0.00    +0.000 A 
ATOM     16  C   UNL     1      -2.360  12.887  21.155  0.00  0.00    +0.000 A 
ATOM     17  C   UNL     1      -2.180  12.087  22.282  0.00  0.00    +0.000 A 
ATOM     18 BR   UNL     1      -3.347  12.265  23.758  0.00  0.00    +0.000 Br
ATOM     19  C   UNL     1      -1.157  11.144  22.316  0.00  0.00    +0.000 A 
ATOM     20  C   UNL     1      -0.300  11.011  21.218  0.00  0.00    +0.000 A 
ENDBRANCH  12  14
ENDBRANCH   1  12
BRANCH   1  21
ATOM     21  S   UNL     1       2.197   9.596  18.012  0.00  0.00    +0.000 S 
BRANCH  21  26
ATOM     22  C   UNL     1       1.561   4.229  20.822  0.00  0.00    +0.000 C 
ATOM     23  C   UNL     1       1.835   5.538  20.141  0.00  0.00    +0.000 A 
ATOM     24  C   UNL     1       1.496   6.740  20.759  0.00  0.00    +0.000 A 
ATOM     25  C   UNL     1       1.682   7.951  20.086  0.00  0.00    +0.000 A 
ATOM     26  C   UNL     1       2.208   7.993  18.783  0.00  0.00    +0.000 A 
ATOM     27  C   UNL     1       2.568   6.792  18.173  0.00  0.00    +0.000 A 
ATOM     28  C   UNL     1       2.385   5.572  18.848  0.00  0.00    +0.000 A 
ENDBRANCH  21  26
ENDBRANCH   1  21
TORSDOF 6
ENDMDL
MODEL 5
REMARK VINA RESULT:      -6.7      5.554      8.748
REMARK  Name = 
REMARK  9 active torsions:
REMARK  status: ('A' for Active; 'I' for Inactive)
REMARK    1  A    between atoms: C_1  and  C_2
REMARK    2  A    between atoms: C_5  and  S_6
REMARK    3  A    between atoms: S_6  and  C_7
REMARK    4  A    between atoms: C_7  and  C_18
REMARK    5  A    between atoms: C_8  and  C_9
REMARK    6  A    between atoms: C_12  and  N_13
REMARK    7  A    between atoms: N_13  and  C_14
REMARK    8  A    between atoms: N_13  and  C_15
REMARK    9  A    between atoms: C_18  and  C_20
REMARK                            x       y       z     vdW  Elec       q    Type
REMARK                         _______ _______ _______ _____ _____    ______ ____
ROOT
ATOM      1  C   UNL     1       0.870   9.647  18.709  0.00  0.00    +0.000 C 
ATOM      2  C   UNL     1      -0.100   9.957  17.825  0.00  0.00    +0.000 C 
ENDROOT
BRANCH   2   3
ATOM      3  C   UNL     1      -1.499  10.359  18.051  0.00  0.00    +0.000 A 
ATOM      4  C   UNL     1      -1.779  11.663  18.471  0.00  0.00    +0.000 A 
ATOM      5  C   UNL     1      -3.104  12.130  18.551  0.00  0.00    +0.000 A 
ATOM      6  C   UNL     1      -4.203  11.326  18.214  0.00  0.00    +0.000 A 
ATOM      7  C   UNL     1      -3.893  10.008  17.828  0.00  0.00    +0.000 A 
ATOM      8  C   UNL     1      -2.572   9.530  17.741  0.00  0.00    +0.000 A 
BRANCH   6   9
ATOM      9  N   UNL     1      -5.516  11.773  18.283  0.00  0.00    +0.000 N 
ATOM     10  C   UNL     1      -6.070  12.635  17.241  0.00  0.00    +0.000 C 
ATOM     11  C   UNL     1      -6.293  11.733  19.519  0.00  0.00    +0.000 C 
ENDBRANCH   6   9
ENDBRANCH   2   3
BRANCH   1  12
ATOM     12  C   UNL     1       0.623   9.588  20.196  0.00  0.00    +0.000 C 
ATOM     13  O   UNL     1       0.796   8.540  20.820  0.00  0.00    +0.000 OA
BRANCH  12  14
ATOM     14  C   UNL     1       0.226  10.803  20.982  0.00  0.00    +0.000 A 
ATOM     15  C   UNL     1       0.754  12.084  20.759  0.00  0.00    +0.000 A 
ATOM     16  C   UNL     1       0.337  13.173  21.536  0.00  0.00    +0.000 A 
ATOM     17  C   UNL     1      -0.644  12.998  22.511  0.00  0.00    +0.000 A 
ATOM     18 BR   UNL     1      -1.232  14.478  23.529  0.00  0.00    +0.000 Br
ATOM     19  C   UNL     1      -1.204  11.742  22.724  0.00  0.00    +0.000 A 
ATOM     20  C   UNL     1      -0.770  10.651  21.964  0.00  0.00    +0.000 A 
ENDBRANCH  12  14
ENDBRANCH   1  12
BRANCH   1  21
ATOM     21  S   UNL     1       2.502   9.452  18.142  0.00  0.00    +0.000 S 
BRANCH  21  26
ATOM     22  C   UNL     1       4.000   3.578  17.535  0.00  0.00    +0.000 C 
ATOM     23  C   UNL     1       3.552   5.009  17.598  0.00  0.00    +0.000 A 
ATOM     24  C   UNL     1       4.410   6.034  17.204  0.00  0.00    +0.000 A 
ATOM     25  C   UNL     1       4.016   7.369  17.338  0.00  0.00    +0.000 A 
ATOM     26  C   UNL     1       2.760   7.713  17.868  0.00  0.00    +0.000 A 
ATOM     27  C   UNL     1       1.893   6.686  18.241  0.00  0.00    +0.000 A 
ATOM     28  C   UNL     1       2.286   5.343  18.105  0.00  0.00    +0.000 A 
ENDBRANCH  21  26
ENDBRANCH   1  21
TORSDOF 6
ENDMDL
MODEL 6
REMARK VINA RESULT:      -6.6      5.645      8.686
REMARK  Name = 
REMARK  9 active torsions:
REMARK  status: ('A' for Active; 'I' for Inactive)
REMARK    1  A    between atoms: C_1  and  C_2
REMARK    2  A    between atoms: C_5  and  S_6
REMARK    3  A    between atoms: S_6  and  C_7
REMARK    4  A    between atoms: C_7  and  C_18
REMARK    5  A    between atoms: C_8  and  C_9
REMARK    6  A    between atoms: C_12  and  N_13
REMARK    7  A    between atoms: N_13  and  C_14
REMARK    8  A    between atoms: N_13  and  C_15
REMARK    9  A    between atoms: C_18  and  C_20
REMARK                            x       y       z     vdW  Elec       q    Type
REMARK                         _______ _______ _______ _____ _____    ______ ____
ROOT
ATOM      1  C   UNL     1       0.931   9.708  18.532  0.00  0.00    +0.000 C 
ATOM      2  C   UNL     1      -0.218   9.568  17.840  0.00  0.00    +0.000 C 
ENDROOT
BRANCH   2   3
ATOM      3  C   UNL     1      -1.467  10.346  17.907  0.00  0.00    +0.000 A 
ATOM      4  C   UNL     1      -2.477  10.103  16.972  0.00  0.00    +0.000 A 
ATOM      5  C   UNL     1      -3.740  10.713  17.095  0.00  0.00    +0.000 A 
ATOM      6  C   UNL     1      -4.052  11.583  18.150  0.00  0.00    +0.000 A 
ATOM      7  C   UNL     1      -3.005  11.835  19.056  0.00  0.00    +0.000 A 
ATOM      8  C   UNL     1      -1.739  11.230  18.946  0.00  0.00    +0.000 A 
BRANCH   6   9
ATOM      9  N   UNL     1      -5.294  12.189  18.287  0.00  0.00    +0.000 N 
ATOM     10  C   UNL     1      -6.039  12.096  19.542  0.00  0.00    +0.000 C 
ATOM     11  C   UNL     1      -6.084  12.624  17.140  0.00  0.00    +0.000 C 
ENDBRANCH   6   9
ENDBRANCH   2   3
BRANCH   1  12
ATOM     12  C   UNL     1       1.097  10.727  19.632  0.00  0.00    +0.000 C 
ATOM     13  O   UNL     1       0.926  10.411  20.810  0.00  0.00    +0.000 OA
BRANCH  12  14
ATOM     14  C   UNL     1       1.538  12.133  19.349  0.00  0.00    +0.000 A 
ATOM     15  C   UNL     1       2.304  12.501  18.233  0.00  0.00    +0.000 A 
ATOM     16  C   UNL     1       2.681  13.836  18.036  0.00  0.00    +0.000 A 
ATOM     17  C   UNL     1       2.258  14.819  18.929  0.00  0.00    +0.000 A 
ATOM     18 BR   UNL     1       2.736  16.624  18.637  0.00  0.00    +0.000 Br
ATOM     19  C   UNL     1       1.469  14.479  20.024  0.00  0.00    +0.000 A 
ATOM     20  C   UNL     1       1.112  13.142  20.232  0.00  0.00    +0.000 A 
ENDBRANCH  12  14
ENDBRANCH   1  12
BRANCH   1  21
ATOM     21  S   UNL     1       2.327   8.789  18.050  0.00  0.00    +0.000 S 
BRANCH  21  26
ATOM     22  C   UNL     1       2.505   3.170  20.400  0.00  0.00    +0.000 C 
ATOM     23  C   UNL     1       2.344   4.553  19.837  0.00  0.00    +0.000 A 
ATOM     24  C   UNL     1       2.574   4.795  18.484  0.00  0.00    +0.000 A 
ATOM     25  C   UNL     1       2.498   6.097  17.982  0.00  0.00    +0.000 A 
ATOM     26  C   UNL     1       2.193   7.188  18.816  0.00  0.00    +0.000 A 
ATOM     27  C   UNL     1       1.942   6.943  20.165  0.00  0.00    +0.000 A 
ATOM     28  C   UNL     1       2.014   5.633  20.673  0.00  0.00    +0.000 A 
ENDBRANCH  21  26
ENDBRANCH   1  21
TORSDOF 6
ENDMDL
MODEL 7
REMARK VINA RESULT:      -6.6      5.922      9.012
REMARK  Name = 
REMARK  9 active torsions:
REMARK  status: ('A' for Active; 'I' for Inactive)
REMARK    1  A    between atoms: C_1  and  C_2
REMARK    2  A    between atoms: C_5  and  S_6
REMARK    3  A    between atoms: S_6  and  C_7
REMARK    4  A    between atoms: C_7  and  C_18
REMARK    5  A    between atoms: C_8  and  C_9
REMARK    6  A    between atoms: C_12  and  N_13
REMARK    7  A    between atoms: N_13  and  C_14
REMARK    8  A    between atoms: N_13  and  C_15
REMARK    9  A    between atoms: C_18  and  C_20
REMARK                            x       y       z     vdW  Elec       q    Type
REMARK                         _______ _______ _______ _____ _____    ______ ____
ROOT
ATOM      1  C   UNL     1       0.353   9.646  19.467  0.00  0.00    +0.000 C 
ATOM      2  C   UNL     1      -0.353   9.924  18.351  0.00  0.00    +0.000 C 
ENDROOT
BRANCH   2   3
ATOM      3  C   UNL     1      -1.718  10.455  18.200  0.00  0.00    +0.000 A 
ATOM      4  C   UNL     1      -2.699   9.663  17.597  0.00  0.00    +0.000 A 
ATOM      5  C   UNL     1      -4.046  10.071  17.571  0.00  0.00    +0.000 A 
ATOM      6  C   UNL     1      -4.474  11.278  18.145  0.00  0.00    +0.000 A 
ATOM      7  C   UNL     1      -3.460  12.070  18.714  0.00  0.00    +0.000 A 
ATOM      8  C   UNL     1      -2.110  11.672  18.749  0.00  0.00    +0.000 A 
BRANCH   6   9
ATOM      9  N   UNL     1      -5.799  11.692  18.132  0.00  0.00    +0.000 N 
ATOM     10  C   UNL     1      -6.843  10.886  18.762  0.00  0.00    +0.000 C 
ATOM     11  C   UNL     1      -6.289  12.718  17.216  0.00  0.00    +0.000 C 
ENDBRANCH   6   9
ENDBRANCH   2   3
BRANCH   1  12
ATOM     12  C   UNL     1      -0.232   9.779  20.851  0.00  0.00    +0.000 C 
ATOM     13  O   UNL     1      -0.513   8.778  21.512  0.00  0.00    +0.000 OA
BRANCH  12  14
ATOM     14  C   UNL     1      -0.430  11.116  21.502  0.00  0.00    +0.000 A 
ATOM     15  C   UNL     1      -1.351  11.353  22.533  0.00  0.00    +0.000 A 
ATOM     16  C   UNL     1      -1.482  12.632  23.092  0.00  0.00    +0.000 A 
ATOM     17  C   UNL     1      -0.663  13.671  22.654  0.00  0.00    +0.000 A 
ATOM     18 BR   UNL     1      -0.817  15.383  23.439  0.00  0.00    +0.000 Br
ATOM     19  C   UNL     1       0.280  13.447  21.656  0.00  0.00    +0.000 A 
ATOM     20  C   UNL     1       0.394  12.176  21.082  0.00  0.00    +0.000 A 
ENDBRANCH  12  14
ENDBRANCH   1  12
BRANCH   1  21
ATOM     21  S   UNL     1       2.043   9.262  19.325  0.00  0.00    +0.000 S 
BRANCH  21  26
ATOM     22  C   UNL     1       1.861   3.172  19.355  0.00  0.00    +0.000 C 
ATOM     23  C   UNL     1       2.023   4.664  19.333  0.00  0.00    +0.000 A 
ATOM     24  C   UNL     1       1.793   5.415  20.484  0.00  0.00    +0.000 A 
ATOM     25  C   UNL     1       1.870   6.810  20.438  0.00  0.00    +0.000 A 
ATOM     26  C   UNL     1       2.176   7.489  19.245  0.00  0.00    +0.000 A 
ATOM     27  C   UNL     1       2.427   6.736  18.099  0.00  0.00    +0.000 A 
ATOM     28  C   UNL     1       2.353   5.333  18.143  0.00  0.00    +0.000 A 
ENDBRANCH  21  26
ENDBRANCH   1  21
TORSDOF 6
ENDMDL
MODEL 8
REMARK VINA RESULT:      -6.6      4.916      8.570
REMARK  Name = 
REMARK  9 active torsions:
REMARK  status: ('A' for Active; 'I' for Inactive)
REMARK    1  A    between atoms: C_1  and  C_2
REMARK    2  A    between atoms: C_5  and  S_6
REMARK    3  A    between atoms: S_6  and  C_7
REMARK    4  A    between atoms: C_7  and  C_18
REMARK    5  A    between atoms: C_8  and  C_9
REMARK    6  A    between atoms: C_12  and  N_13
REMARK    7  A    between atoms: N_13  and  C_14
REMARK    8  A    between atoms: N_13  and  C_15
REMARK    9  A    between atoms: C_18  and  C_20
REMARK                            x       y       z     vdW  Elec       q    Type
REMARK                         _______ _______ _______ _____ _____    ______ ____
ROOT
ATOM      1  C   UNL     1       1.659  10.327  18.484  0.00  0.00    +0.000 C 
ATOM      2  C   UNL     1       2.490   9.278  18.646  0.00  0.00    +0.000 C 
ENDROOT
BRANCH   2   3
ATOM      3  C   UNL     1       2.190   7.864  18.934  0.00  0.00    +0.000 A 
ATOM      4  C   UNL     1       2.358   6.909  17.928  0.00  0.00    +0.000 A 
ATOM      5  C   UNL     1       2.229   5.534  18.205  0.00  0.00    +0.000 A 
ATOM      6  C   UNL     1       1.934   5.054  19.489  0.00  0.00    +0.000 A 
ATOM      7  C   UNL     1       1.737   6.040  20.474  0.00  0.00    +0.000 A 
ATOM      8  C   UNL     1       1.865   7.417  20.210  0.00  0.00    +0.000 A 
BRANCH   6   9
ATOM      9  N   UNL     1       1.809   3.702  19.779  0.00  0.00    +0.000 N 
ATOM     10  C   UNL     1       1.115   2.800  18.861  0.00  0.00    +0.000 C 
ATOM     11  C   UNL     1       2.014   3.167  21.122  0.00  0.00    +0.000 C 
ENDBRANCH   6   9
ENDBRANCH   2   3
BRANCH   1  12
ATOM     12  C   UNL     1       0.166  10.215  18.664  0.00  0.00    +0.000 C 
ATOM     13  O   UNL     1      -0.518   9.587  17.855  0.00  0.00    +0.000 OA
BRANCH  12  14
ATOM     14  C   UNL     1      -0.534  10.797  19.857  0.00  0.00    +0.000 A 
ATOM     15  C   UNL     1      -0.172  10.525  21.184  0.00  0.00    +0.000 A 
ATOM     16  C   UNL     1      -0.875  11.105  22.249  0.00  0.00    +0.000 A 
ATOM     17  C   UNL     1      -1.917  11.995  21.993  0.00  0.00    +0.000 A 
ATOM     18 BR   UNL     1      -2.836  12.805  23.432  0.00  0.00    +0.000 Br
ATOM     19  C   UNL     1      -2.269  12.304  20.682  0.00  0.00    +0.000 A 
ATOM     20  C   UNL     1      -1.581  11.707  19.620  0.00  0.00    +0.000 A 
ENDBRANCH  12  14
ENDBRANCH   1  12
BRANCH   1  21
ATOM     21  S   UNL     1       2.303  11.835  17.903  0.00  0.00    +0.000 S 
BRANCH  21  26
ATOM     22  C   UNL     1      -0.091  16.002  21.647  0.00  0.00    +0.000 C 
ATOM     23  C   UNL     1       0.601  15.035  20.732  0.00  0.00    +0.000 A 
ATOM     24  C   UNL     1       0.248  14.962  19.386  0.00  0.00    +0.000 A 
ATOM     25  C   UNL     1       0.841  14.006  18.555  0.00  0.00    +0.000 A 
ATOM     26  C   UNL     1       1.798  13.100  19.047  0.00  0.00    +0.000 A 
ATOM     27  C   UNL     1       2.166  13.187  20.389  0.00  0.00    +0.000 A 
ATOM     28  C   UNL     1       1.574  14.149  21.226  0.00  0.00    +0.000 A 
ENDBRANCH  21  26
ENDBRANCH   1  21
TORSDOF 6
ENDMDL
MODEL 9
REMARK VINA RESULT:      -6.6      5.877      8.435
REMARK  Name = 
REMARK  9 active torsions:
REMARK  status: ('A' for Active; 'I' for Inactive)
REMARK    1  A    between atoms: C_1  and  C_2
REMARK    2  A    between atoms: C_5  and  S_6
REMARK    3  A    between atoms: S_6  and  C_7
REMARK    4  A    between atoms: C_7  and  C_18
REMARK    5  A    between atoms: C_8  and  C_9
REMARK    6  A    between atoms: C_12  and  N_13
REMARK    7  A    between atoms: N_13  and  C_14
REMARK    8  A    between atoms: N_13  and  C_15
REMARK    9  A    between atoms: C_18  and  C_20
REMARK                            x       y       z     vdW  Elec       q    Type
REMARK                         _______ _______ _______ _____ _____    ______ ____
ROOT
ATOM      1  C   UNL     1      -1.115  12.585  20.428  0.00  0.00    +0.000 C 
ATOM      2  C   UNL     1      -0.619  13.545  19.622  0.00  0.00    +0.000 C 
ENDROOT
BRANCH   2   3
ATOM      3  C   UNL     1       0.768  14.003  19.432  0.00  0.00    +0.000 A 
ATOM      4  C   UNL     1       1.531  13.467  18.392  0.00  0.00    +0.000 A 
ATOM      5  C   UNL     1       2.803  13.986  18.084  0.00  0.00    +0.000 A 
ATOM      6  C   UNL     1       3.366  15.058  18.791  0.00  0.00    +0.000 A 
ATOM      7  C   UNL     1       2.590  15.555  19.855  0.00  0.00    +0.000 A 
ATOM      8  C   UNL     1       1.315  15.047  20.172  0.00  0.00    +0.000 A 
BRANCH   6   9
ATOM      9  N   UNL     1       4.617  15.584  18.497  0.00  0.00    +0.000 N 
ATOM     10  C   UNL     1       5.652  14.756  17.880  0.00  0.00    +0.000 C 
ATOM     11  C   UNL     1       5.102  16.828  19.088  0.00  0.00    +0.000 C 
ENDBRANCH   6   9
ENDBRANCH   2   3
BRANCH   1  12
ATOM     12  C   UNL     1      -0.254  11.817  21.400  0.00  0.00    +0.000 C 
ATOM     13  O   UNL     1      -0.112  12.211  22.559  0.00  0.00    +0.000 OA
BRANCH  12  14
ATOM     14  C   UNL     1       0.404  10.522  21.024  0.00  0.00    +0.000 A 
ATOM     15  C   UNL     1       0.592   9.455  21.915  0.00  0.00    +0.000 A 
ATOM     16  C   UNL     1       1.218   8.275  21.491  0.00  0.00    +0.000 A 
ATOM     17  C   UNL     1       1.619   8.136  20.164  0.00  0.00    +0.000 A 
ATOM     18 BR   UNL     1       2.426   6.527  19.588  0.00  0.00    +0.000 Br
ATOM     19  C   UNL     1       1.410   9.171  19.256  0.00  0.00    +0.000 A 
ATOM     20  C   UNL     1       0.806  10.358  19.686  0.00  0.00    +0.000 A 
ENDBRANCH  12  14
ENDBRANCH   1  12
BRANCH   1  21
ATOM     21  S   UNL     1      -2.776  12.101  20.247  0.00  0.00    +0.000 S 
BRANCH  21  26
ATOM     22  C   UNL     1      -3.402   9.882  14.608  0.00  0.00    +0.000 C 
ATOM     23  C   UNL     1      -3.240  10.536  15.949  0.00  0.00    +0.000 A 
ATOM     24  C   UNL     1      -2.087  10.324  16.702  0.00  0.00    +0.000 A 
ATOM     25  C   UNL     1      -1.974  10.873  17.982  0.00  0.00    +0.000 A 
ATOM     26  C   UNL     1      -3.008  11.645  18.543  0.00  0.00    +0.000 A 
ATOM     27  C   UNL     1      -4.153  11.874  17.781  0.00  0.00    +0.000 A 
ATOM     28  C   UNL     1      -4.267  11.326  16.491  0.00  0.00    +0.000 A 
ENDBRANCH  21  26
ENDBRANCH   1  21
TORSDOF 6
ENDMDL
