MODEL 1
REMARK VINA RESULT:      -7.3      0.000      0.000
REMARK  Name = 
REMARK  14 active torsions:
REMARK  status: ('A' for Active; 'I' for Inactive)
REMARK    1  A    between atoms: C_1  and  C_2
REMARK    2  A    between atoms: C_2  and  C_3
REMARK    3  A    between atoms: C_3  and  C_4
REMARK    4  A    between atoms: C_3  and  C_5
REMARK    5  A    between atoms: C_5  and  N_6
REMARK    6  A    between atoms: C_5  and  C_14
REMARK    7  A    between atoms: C_7  and  O_9
REMARK    8  A    between atoms: O_9  and  C_10
REMARK    9  A    between atoms: C_10  and  C_11
REMARK   10  A    between atoms: C_10  and  C_12
REMARK   11  A    between atoms: C_10  and  C_13
REMARK   12  A    between atoms: N_16  and  C_17
REMARK   13  A    between atoms: C_18  and  O_19
REMARK   14  A    between atoms: C_23  and  O_24
REMARK                            x       y       z     vdW  Elec       q    Type
REMARK                         _______ _______ _______ _____ _____    ______ ____
ROOT
ATOM      1  C   UNL     1       2.249   7.209  19.412  0.00  0.00    +0.000 C 
ATOM      2  O   UNL     1       2.868   7.941  18.608  0.00  0.00    +0.000 OA
ATOM      3  N   UNL     1       1.301   7.712  20.299  0.00  0.00    +0.000 N 
ATOM      4  H   UNL     1       0.747   7.071  20.867  0.00  0.00    +0.000 HD
ENDROOT
BRANCH   3   5
ATOM      5  C   UNL     1       0.989   9.083  20.456  0.00  0.00    +0.000 A 
ATOM      6  C   UNL     1       0.579   9.861  19.433  0.00  0.00    +0.000 A 
ATOM      7  C   UNL     1       0.139  11.234  19.620  0.00  0.00    +0.000 A 
ATOM      8  C   UNL     1      -0.427  12.007  18.591  0.00  0.00    +0.000 A 
ATOM      9  C   UNL     1      -0.932  13.284  18.854  0.00  0.00    +0.000 A 
ATOM     10  C   UNL     1      -0.839  13.805  20.143  0.00  0.00    +0.000 A 
ATOM     11  C   UNL     1      -0.273  13.060  21.167  0.00  0.00    +0.000 A 
ATOM     12  C   UNL     1       0.195  11.779  20.894  0.00  0.00    +0.000 A 
ATOM     13  O   UNL     1       0.725  11.032  21.972  0.00  0.00    +0.000 OA
ATOM     14  C   UNL     1       1.199   9.742  21.798  0.00  0.00    +0.000 A 
ATOM     15  O   UNL     1       1.759   9.150  22.735  0.00  0.00    +0.000 OA
BRANCH   6  16
ATOM     16  O   UNL     1       0.556   9.457  18.108  0.00  0.00    +0.000 OA
ATOM     17  H   UNL     1       0.778   8.517  18.073  0.00  0.00    +0.000 HD
ENDBRANCH   6  16
BRANCH  10  18
ATOM     18  O   UNL     1      -1.306  15.047  20.446  0.00  0.00    +0.000 OA
ATOM     19  H   UNL     1      -0.747  15.440  21.137  0.00  0.00    +0.000 HD
ENDBRANCH  10  18
ENDBRANCH   3   5
BRANCH   1  20
ATOM     20  C   UNL     1       2.532   5.707  19.414  0.00  0.00    +0.000 C 
BRANCH  20  21
ATOM     21  N   UNL     1       3.962   5.477  19.644  0.00  0.00    +0.000 N 
ATOM     22  C   UNL     1       4.656   4.678  18.789  0.00  0.00    +0.000 C 
ATOM     23  O   UNL     1       4.092   4.184  17.810  0.00  0.00    +0.000 OA
ATOM     24  H   UNL     1       4.512   6.099  20.208  0.00  0.00    +0.000 HD
BRANCH  22  25
ATOM     25  O   UNL     1       5.958   4.522  19.142  0.00  0.00    +0.000 OA
BRANCH  25  26
ATOM     26  C   UNL     1       6.949   5.326  18.429  0.00  0.00    +0.000 C 
ATOM     27  C   UNL     1       8.016   5.847  19.403  0.00  0.00    +0.000 C 
ATOM     28  C   UNL     1       7.604   4.463  17.323  0.00  0.00    +0.000 C 
ATOM     29  C   UNL     1       6.280   6.514  17.729  0.00  0.00    +0.000 C 
ENDBRANCH  25  26
ENDBRANCH  22  25
ENDBRANCH  20  21
BRANCH  20  30
ATOM     30  C   UNL     1       1.663   4.855  20.405  0.00  0.00    +0.000 C 
ATOM     31  C   UNL     1       2.489   4.301  21.574  0.00  0.00    +0.000 C 
BRANCH  30  33
ATOM     32  C   UNL     1       1.492   2.381  19.648  0.00  0.00    +0.000 C 
ATOM     33  C   UNL     1       0.793   3.742  19.765  0.00  0.00    +0.000 C 
ENDBRANCH  30  33
ENDBRANCH  20  30
ENDBRANCH   1  20
TORSDOF 9
ENDMDL
MODEL 2
REMARK VINA RESULT:      -6.9      2.375      8.366
REMARK  Name = 
REMARK  14 active torsions:
REMARK  status: ('A' for Active; 'I' for Inactive)
REMARK    1  A    between atoms: C_1  and  C_2
REMARK    2  A    between atoms: C_2  and  C_3
REMARK    3  A    between atoms: C_3  and  C_4
REMARK    4  A    between atoms: C_3  and  C_5
REMARK    5  A    between atoms: C_5  and  N_6
REMARK    6  A    between atoms: C_5  and  C_14
REMARK    7  A    between atoms: C_7  and  O_9
REMARK    8  A    between atoms: O_9  and  C_10
REMARK    9  A    between atoms: C_10  and  C_11
REMARK   10  A    between atoms: C_10  and  C_12
REMARK   11  A    between atoms: C_10  and  C_13
REMARK   12  A    between atoms: N_16  and  C_17
REMARK   13  A    between atoms: C_18  and  O_19
REMARK   14  A    between atoms: C_23  and  O_24
REMARK                            x       y       z     vdW  Elec       q    Type
REMARK                         _______ _______ _______ _____ _____    ______ ____
ROOT
ATOM      1  C   UNL     1       0.736  10.590  20.725  0.00  0.00    +0.000 C 
ATOM      2  O   UNL     1       1.753  10.566  21.454  0.00  0.00    +0.000 OA
ATOM      3  N   UNL     1       0.545   9.690  19.681  0.00  0.00    +0.000 N 
ATOM      4  H   UNL     1      -0.341   9.678  19.176  0.00  0.00    +0.000 HD
ENDROOT
BRANCH   3   5
ATOM      5  C   UNL     1       1.488   8.718  19.271  0.00  0.00    +0.000 A 
ATOM      6  C   UNL     1       1.786   7.631  20.014  0.00  0.00    +0.000 A 
ATOM      7  C   UNL     1       2.659   6.571  19.535  0.00  0.00    +0.000 A 
ATOM      8  C   UNL     1       2.862   5.368  20.235  0.00  0.00    +0.000 A 
ATOM      9  C   UNL     1       3.625   4.338  19.676  0.00  0.00    +0.000 A 
ATOM     10  C   UNL     1       4.218   4.525  18.428  0.00  0.00    +0.000 A 
ATOM     11  C   UNL     1       4.037   5.710  17.730  0.00  0.00    +0.000 A 
ATOM     12  C   UNL     1       3.247   6.710  18.287  0.00  0.00    +0.000 A 
ATOM     13  O   UNL     1       3.048   7.887  17.528  0.00  0.00    +0.000 OA
ATOM     14  C   UNL     1       2.264   8.929  17.994  0.00  0.00    +0.000 A 
ATOM     15  O   UNL     1       2.195   9.993  17.357  0.00  0.00    +0.000 OA
BRANCH   6  16
ATOM     16  O   UNL     1       1.326   7.418  21.302  0.00  0.00    +0.000 OA
ATOM     17  H   UNL     1       1.863   6.722  21.705  0.00  0.00    +0.000 HD
ENDBRANCH   6  16
BRANCH  10  18
ATOM     18  O   UNL     1       4.979   3.557  17.847  0.00  0.00    +0.000 OA
ATOM     19  H   UNL     1       4.532   2.699  17.941  0.00  0.00    +0.000 HD
ENDBRANCH  10  18
ENDBRANCH   3   5
BRANCH   1  20
ATOM     20  C   UNL     1      -0.343  11.638  20.997  0.00  0.00    +0.000 C 
BRANCH  20  21
ATOM     21  N   UNL     1      -1.527  11.348  20.181  0.00  0.00    +0.000 N 
ATOM     22  C   UNL     1      -1.662  11.944  18.966  0.00  0.00    +0.000 C 
ATOM     23  O   UNL     1      -0.779  12.691  18.542  0.00  0.00    +0.000 OA
ATOM     24  H   UNL     1      -2.082  10.525  20.332  0.00  0.00    +0.000 HD
BRANCH  22  25
ATOM     25  O   UNL     1      -2.821  11.616  18.337  0.00  0.00    +0.000 OA
BRANCH  25  26
ATOM     26  C   UNL     1      -2.767  10.541  17.346  0.00  0.00    +0.000 C 
ATOM     27  C   UNL     1      -3.702   9.393  17.751  0.00  0.00    +0.000 C 
ATOM     28  C   UNL     1      -3.173  11.105  15.962  0.00  0.00    +0.000 C 
ATOM     29  C   UNL     1      -1.338  10.005  17.206  0.00  0.00    +0.000 C 
ENDBRANCH  25  26
ENDBRANCH  22  25
ENDBRANCH  20  21
BRANCH  20  30
ATOM     30  C   UNL     1      -0.737  11.829  22.504  0.00  0.00    +0.000 C 
ATOM     31  C   UNL     1      -1.076  10.498  23.190  0.00  0.00    +0.000 C 
BRANCH  30  33
ATOM     32  C   UNL     1      -3.162  12.319  23.279  0.00  0.00    +0.000 C 
ATOM     33  C   UNL     1      -1.825  12.895  22.795  0.00  0.00    +0.000 C 
ENDBRANCH  30  33
ENDBRANCH  20  30
ENDBRANCH   1  20
TORSDOF 9
ENDMDL
MODEL 3
REMARK VINA RESULT:      -6.9      0.801      1.132
REMARK  Name = 
REMARK  14 active torsions:
REMARK  status: ('A' for Active; 'I' for Inactive)
REMARK    1  A    between atoms: C_1  and  C_2
REMARK    2  A    between atoms: C_2  and  C_3
REMARK    3  A    between atoms: C_3  and  C_4
REMARK    4  A    between atoms: C_3  and  C_5
REMARK    5  A    between atoms: C_5  and  N_6
REMARK    6  A    between atoms: C_5  and  C_14
REMARK    7  A    between atoms: C_7  and  O_9
REMARK    8  A    between atoms: O_9  and  C_10
REMARK    9  A    between atoms: C_10  and  C_11
REMARK   10  A    between atoms: C_10  and  C_12
REMARK   11  A    between atoms: C_10  and  C_13
REMARK   12  A    between atoms: N_16  and  C_17
REMARK   13  A    between atoms: C_18  and  O_19
REMARK   14  A    between atoms: C_23  and  O_24
REMARK                            x       y       z     vdW  Elec       q    Type
REMARK                         _______ _______ _______ _____ _____    ______ ____
ROOT
ATOM      1  C   UNL     1       2.147   7.282  19.188  0.00  0.00    +0.000 C 
ATOM      2  O   UNL     1       2.947   7.970  18.516  0.00  0.00    +0.000 OA
ATOM      3  N   UNL     1       1.165   7.854  19.991  0.00  0.00    +0.000 N 
ATOM      4  H   UNL     1       0.470   7.260  20.444  0.00  0.00    +0.000 HD
ENDROOT
BRANCH   3   5
ATOM      5  C   UNL     1       1.007   9.243  20.208  0.00  0.00    +0.000 A 
ATOM      6  C   UNL     1       0.712  10.109  19.217  0.00  0.00    +0.000 A 
ATOM      7  C   UNL     1       0.427  11.513  19.461  0.00  0.00    +0.000 A 
ATOM      8  C   UNL     1      -0.024  12.392  18.460  0.00  0.00    +0.000 A 
ATOM      9  C   UNL     1      -0.387  13.705  18.775  0.00  0.00    +0.000 A 
ATOM     10  C   UNL     1      -0.265  14.153  20.089  0.00  0.00    +0.000 A 
ATOM     11  C   UNL     1       0.189  13.303  21.086  0.00  0.00    +0.000 A 
ATOM     12  C   UNL     1       0.514  11.990  20.761  0.00  0.00    +0.000 A 
ATOM     13  O   UNL     1       0.931  11.139  21.811  0.00  0.00    +0.000 OA
ATOM     14  C   UNL     1       1.260   9.812  21.584  0.00  0.00    +0.000 A 
ATOM     15  O   UNL     1       1.726   9.118  22.502  0.00  0.00    +0.000 OA
BRANCH   6  16
ATOM     16  O   UNL     1       0.674   9.771  17.874  0.00  0.00    +0.000 OA
ATOM     17  H   UNL     1       0.233   8.916  17.788  0.00  0.00    +0.000 HD
ENDBRANCH   6  16
BRANCH  10  18
ATOM     18  O   UNL     1      -0.596  15.425  20.443  0.00  0.00    +0.000 OA
ATOM     19  H   UNL     1       0.088  16.035  20.120  0.00  0.00    +0.000 HD
ENDBRANCH  10  18
ENDBRANCH   3   5
BRANCH   1  20
ATOM     20  C   UNL     1       2.241   5.758  19.116  0.00  0.00    +0.000 C 
BRANCH  20  21
ATOM     21  N   UNL     1       3.644   5.359  18.964  0.00  0.00    +0.000 N 
ATOM     22  C   UNL     1       3.980   4.456  18.003  0.00  0.00    +0.000 C 
ATOM     23  O   UNL     1       3.116   4.009  17.246  0.00  0.00    +0.000 OA
ATOM     24  H   UNL     1       4.394   5.923  19.318  0.00  0.00    +0.000 HD
BRANCH  22  25
ATOM     25  O   UNL     1       5.303   4.149  17.999  0.00  0.00    +0.000 OA
BRANCH  25  26
ATOM     26  C   UNL     1       6.116   4.690  16.910  0.00  0.00    +0.000 C 
ATOM     27  C   UNL     1       5.691   6.131  16.591  0.00  0.00    +0.000 C 
ATOM     28  C   UNL     1       7.608   4.645  17.318  0.00  0.00    +0.000 C 
ATOM     29  C   UNL     1       5.974   3.830  15.649  0.00  0.00    +0.000 C 
ENDBRANCH  25  26
ENDBRANCH  22  25
ENDBRANCH  20  21
BRANCH  20  30
ATOM     30  C   UNL     1       1.565   4.981  20.300  0.00  0.00    +0.000 C 
ATOM     31  C   UNL     1       2.561   4.645  21.419  0.00  0.00    +0.000 C 
BRANCH  30  33
ATOM     32  C   UNL     1       1.508   2.412  19.955  0.00  0.00    +0.000 C 
ATOM     33  C   UNL     1       0.731   3.734  19.909  0.00  0.00    +0.000 C 
ENDBRANCH  30  33
ENDBRANCH  20  30
ENDBRANCH   1  20
TORSDOF 9
ENDMDL
MODEL 4
REMARK VINA RESULT:      -6.9      2.211      7.996
REMARK  Name = 
REMARK  14 active torsions:
REMARK  status: ('A' for Active; 'I' for Inactive)
REMARK    1  A    between atoms: C_1  and  C_2
REMARK    2  A    between atoms: C_2  and  C_3
REMARK    3  A    between atoms: C_3  and  C_4
REMARK    4  A    between atoms: C_3  and  C_5
REMARK    5  A    between atoms: C_5  and  N_6
REMARK    6  A    between atoms: C_5  and  C_14
REMARK    7  A    between atoms: C_7  and  O_9
REMARK    8  A    between atoms: O_9  and  C_10
REMARK    9  A    between atoms: C_10  and  C_11
REMARK   10  A    between atoms: C_10  and  C_12
REMARK   11  A    between atoms: C_10  and  C_13
REMARK   12  A    between atoms: N_16  and  C_17
REMARK   13  A    between atoms: C_18  and  O_19
REMARK   14  A    between atoms: C_23  and  O_24
REMARK                            x       y       z     vdW  Elec       q    Type
REMARK                         _______ _______ _______ _____ _____    ______ ____
ROOT
ATOM      1  C   UNL     1       2.838   5.735  19.292  0.00  0.00    +0.000 C 
ATOM      2  O   UNL     1       2.444   6.400  18.307  0.00  0.00    +0.000 OA
ATOM      3  N   UNL     1       4.053   5.058  19.296  0.00  0.00    +0.000 N 
ATOM      4  H   UNL     1       4.383   4.612  20.152  0.00  0.00    +0.000 HD
ENDROOT
BRANCH   3   5
ATOM      5  C   UNL     1       4.931   4.968  18.190  0.00  0.00    +0.000 A 
ATOM      6  C   UNL     1       4.573   4.405  17.017  0.00  0.00    +0.000 A 
ATOM      7  C   UNL     1       5.432   4.426  15.844  0.00  0.00    +0.000 A 
ATOM      8  C   UNL     1       5.016   3.975  14.579  0.00  0.00    +0.000 A 
ATOM      9  C   UNL     1       5.846   4.119  13.462  0.00  0.00    +0.000 A 
ATOM     10  C   UNL     1       7.111   4.684  13.617  0.00  0.00    +0.000 A 
ATOM     11  C   UNL     1       7.541   5.123  14.861  0.00  0.00    +0.000 A 
ATOM     12  C   UNL     1       6.689   5.001  15.954  0.00  0.00    +0.000 A 
ATOM     13  O   UNL     1       7.144   5.500  17.197  0.00  0.00    +0.000 OA
ATOM     14  C   UNL     1       6.358   5.437  18.336  0.00  0.00    +0.000 A 
ATOM     15  O   UNL     1       6.823   5.782  19.435  0.00  0.00    +0.000 OA
BRANCH   6  16
ATOM     16  O   UNL     1       3.381   3.733  16.807  0.00  0.00    +0.000 OA
ATOM     17  H   UNL     1       3.573   2.919  16.321  0.00  0.00    +0.000 HD
ENDBRANCH   6  16
BRANCH  10  18
ATOM     18  O   UNL     1       7.959   4.835  12.563  0.00  0.00    +0.000 OA
ATOM     19  H   UNL     1       8.869   4.670  12.858  0.00  0.00    +0.000 HD
ENDBRANCH  10  18
ENDBRANCH   3   5
BRANCH   1  20
ATOM     20  C   UNL     1       1.959   5.675  20.541  0.00  0.00    +0.000 C 
BRANCH  20  21
ATOM     21  N   UNL     1       0.925   6.712  20.466  0.00  0.00    +0.000 N 
ATOM     22  C   UNL     1       1.107   7.885  21.131  0.00  0.00    +0.000 C 
ATOM     23  O   UNL     1       2.149   8.085  21.759  0.00  0.00    +0.000 OA
ATOM     24  H   UNL     1       0.245   6.726  19.728  0.00  0.00    +0.000 HD
BRANCH  22  25
ATOM     25  O   UNL     1       0.056   8.737  21.006  0.00  0.00    +0.000 OA
BRANCH  25  26
ATOM     26  C   UNL     1       0.242   9.914  20.158  0.00  0.00    +0.000 C 
ATOM     27  C   UNL     1       0.745  11.101  20.992  0.00  0.00    +0.000 C 
ATOM     28  C   UNL     1       1.254   9.576  19.035  0.00  0.00    +0.000 C 
ATOM     29  C   UNL     1      -1.072  10.299  19.471  0.00  0.00    +0.000 C 
ENDBRANCH  25  26
ENDBRANCH  22  25
ENDBRANCH  20  21
BRANCH  20  30
ATOM     30  C   UNL     1       1.324   4.275  20.856  0.00  0.00    +0.000 C 
ATOM     31  C   UNL     1       2.212   3.429  21.780  0.00  0.00    +0.000 C 
BRANCH  30  33
ATOM     32  C   UNL     1       1.630   2.143  19.412  0.00  0.00    +0.000 C 
ATOM     33  C   UNL     1       0.854   3.448  19.632  0.00  0.00    +0.000 C 
ENDBRANCH  30  33
ENDBRANCH  20  30
ENDBRANCH   1  20
TORSDOF 9
ENDMDL
MODEL 5
REMARK VINA RESULT:      -6.9      1.290      2.122
REMARK  Name = 
REMARK  14 active torsions:
REMARK  status: ('A' for Active; 'I' for Inactive)
REMARK    1  A    between atoms: C_1  and  C_2
REMARK    2  A    between atoms: C_2  and  C_3
REMARK    3  A    between atoms: C_3  and  C_4
REMARK    4  A    between atoms: C_3  and  C_5
REMARK    5  A    between atoms: C_5  and  N_6
REMARK    6  A    between atoms: C_5  and  C_14
REMARK    7  A    between atoms: C_7  and  O_9
REMARK    8  A    between atoms: O_9  and  C_10
REMARK    9  A    between atoms: C_10  and  C_11
REMARK   10  A    between atoms: C_10  and  C_12
REMARK   11  A    between atoms: C_10  and  C_13
REMARK   12  A    between atoms: N_16  and  C_17
REMARK   13  A    between atoms: C_18  and  O_19
REMARK   14  A    between atoms: C_23  and  O_24
REMARK                            x       y       z     vdW  Elec       q    Type
REMARK                         _______ _______ _______ _____ _____    ______ ____
ROOT
ATOM      1  C   UNL     1       2.016   7.048  20.112  0.00  0.00    +0.000 C 
ATOM      2  O   UNL     1       2.199   7.300  21.324  0.00  0.00    +0.000 OA
ATOM      3  N   UNL     1       1.529   7.998  19.219  0.00  0.00    +0.000 N 
ATOM      4  H   UNL     1       1.489   7.785  18.222  0.00  0.00    +0.000 HD
ENDROOT
BRANCH   3   5
ATOM      5  C   UNL     1       1.113   9.303  19.575  0.00  0.00    +0.000 A 
ATOM      6  C   UNL     1       0.279   9.547  20.607  0.00  0.00    +0.000 A 
ATOM      7  C   UNL     1      -0.047  10.894  21.048  0.00  0.00    +0.000 A 
ATOM      8  C   UNL     1      -0.795  11.162  22.208  0.00  0.00    +0.000 A 
ATOM      9  C   UNL     1      -0.986  12.477  22.645  0.00  0.00    +0.000 A 
ATOM     10  C   UNL     1      -0.458  13.530  21.900  0.00  0.00    +0.000 A 
ATOM     11  C   UNL     1       0.272  13.283  20.747  0.00  0.00    +0.000 A 
ATOM     12  C   UNL     1       0.480  11.967  20.346  0.00  0.00    +0.000 A 
ATOM     13  O   UNL     1       1.267  11.751  19.190  0.00  0.00    +0.000 OA
ATOM     14  C   UNL     1       1.540  10.475  18.725  0.00  0.00    +0.000 A 
ATOM     15  O   UNL     1       2.140  10.317  17.650  0.00  0.00    +0.000 OA
BRANCH   6  16
ATOM     16  O   UNL     1      -0.371   8.564  21.333  0.00  0.00    +0.000 OA
ATOM     17  H   UNL     1       0.029   8.520  22.212  0.00  0.00    +0.000 HD
ENDBRANCH   6  16
BRANCH  10  18
ATOM     18  O   UNL     1      -0.626  14.827  22.278  0.00  0.00    +0.000 OA
ATOM     19  H   UNL     1      -1.376  15.208  21.791  0.00  0.00    +0.000 HD
ENDBRANCH  10  18
ENDBRANCH   3   5
BRANCH   1  20
ATOM     20  C   UNL     1       2.350   5.652  19.589  0.00  0.00    +0.000 C 
BRANCH  20  21
ATOM     21  N   UNL     1       3.781   5.388  19.771  0.00  0.00    +0.000 N 
ATOM     22  C   UNL     1       4.497   4.853  18.746  0.00  0.00    +0.000 C 
ATOM     23  O   UNL     1       3.953   4.629  17.663  0.00  0.00    +0.000 OA
ATOM     24  H   UNL     1       4.314   5.845  20.488  0.00  0.00    +0.000 HD
BRANCH  22  25
ATOM     25  O   UNL     1       5.798   4.625  19.065  0.00  0.00    +0.000 OA
BRANCH  25  26
ATOM     26  C   UNL     1       6.813   5.380  18.330  0.00  0.00    +0.000 C 
ATOM     27  C   UNL     1       6.180   6.600  17.646  0.00  0.00    +0.000 C 
ATOM     28  C   UNL     1       7.923   5.828  19.312  0.00  0.00    +0.000 C 
ATOM     29  C   UNL     1       7.484   4.497  17.273  0.00  0.00    +0.000 C 
ENDBRANCH  25  26
ENDBRANCH  22  25
ENDBRANCH  20  21
BRANCH  20  30
ATOM     30  C   UNL     1       1.486   4.482  20.179  0.00  0.00    +0.000 C 
ATOM     31  C   UNL     1       2.150   3.828  21.399  0.00  0.00    +0.000 C 
BRANCH  30  33
ATOM     32  C   UNL     1       1.853   2.128  19.155  0.00  0.00    +0.000 C 
ATOM     33  C   UNL     1       1.008   3.409  19.167  0.00  0.00    +0.000 C 
ENDBRANCH  30  33
ENDBRANCH  20  30
ENDBRANCH   1  20
TORSDOF 9
ENDMDL
MODEL 6
REMARK VINA RESULT:      -6.8      1.616      2.706
REMARK  Name = 
REMARK  14 active torsions:
REMARK  status: ('A' for Active; 'I' for Inactive)
REMARK    1  A    between atoms: C_1  and  C_2
REMARK    2  A    between atoms: C_2  and  C_3
REMARK    3  A    between atoms: C_3  and  C_4
REMARK    4  A    between atoms: C_3  and  C_5
REMARK    5  A    between atoms: C_5  and  N_6
REMARK    6  A    between atoms: C_5  and  C_14
REMARK    7  A    between atoms: C_7  and  O_9
REMARK    8  A    between atoms: O_9  and  C_10
REMARK    9  A    between atoms: C_10  and  C_11
REMARK   10  A    between atoms: C_10  and  C_12
REMARK   11  A    between atoms: C_10  and  C_13
REMARK   12  A    between atoms: N_16  and  C_17
REMARK   13  A    between atoms: C_18  and  O_19
REMARK   14  A    between atoms: C_23  and  O_24
REMARK                            x       y       z     vdW  Elec       q    Type
REMARK                         _______ _______ _______ _____ _____    ______ ____
ROOT
ATOM      1  C   UNL     1       2.458   5.531  18.946  0.00  0.00    +0.000 C 
ATOM      2  O   UNL     1       1.405   5.392  18.284  0.00  0.00    +0.000 OA
ATOM      3  N   UNL     1       2.820   6.745  19.522  0.00  0.00    +0.000 N 
ATOM      4  H   UNL     1       3.633   6.793  20.137  0.00  0.00    +0.000 HD
ENDROOT
BRANCH   3   5
ATOM      5  C   UNL     1       2.110   7.958  19.364  0.00  0.00    +0.000 A 
ATOM      6  C   UNL     1       1.263   8.436  20.300  0.00  0.00    +0.000 A 
ATOM      7  C   UNL     1       0.631   9.741  20.191  0.00  0.00    +0.000 A 
ATOM      8  C   UNL     1      -0.135  10.312  21.223  0.00  0.00    +0.000 A 
ATOM      9  C   UNL     1      -0.628  11.616  21.108  0.00  0.00    +0.000 A 
ATOM     10  C   UNL     1      -0.385  12.338  19.941  0.00  0.00    +0.000 A 
ATOM     11  C   UNL     1       0.359  11.786  18.909  0.00  0.00    +0.000 A 
ATOM     12  C   UNL     1       0.870  10.500  19.056  0.00  0.00    +0.000 A 
ATOM     13  O   UNL     1       1.661   9.985  18.002  0.00  0.00    +0.000 OA
ATOM     14  C   UNL     1       2.224   8.721  18.066  0.00  0.00    +0.000 A 
ATOM     15  O   UNL     1       2.821   8.253  17.084  0.00  0.00    +0.000 OA
BRANCH   6  16
ATOM     16  O   UNL     1       0.884   7.740  21.436  0.00  0.00    +0.000 OA
ATOM     17  H   UNL     1       1.675   7.347  21.829  0.00  0.00    +0.000 HD
ENDBRANCH   6  16
BRANCH  10  18
ATOM     18  O   UNL     1      -0.852  13.606  19.777  0.00  0.00    +0.000 OA
ATOM     19  H   UNL     1      -0.368  14.206  20.368  0.00  0.00    +0.000 HD
ENDBRANCH  10  18
ENDBRANCH   3   5
BRANCH   1  20
ATOM     20  C   UNL     1       3.373   4.323  19.143  0.00  0.00    +0.000 C 
BRANCH  20  21
ATOM     21  N   UNL     1       4.717   4.640  18.650  0.00  0.00    +0.000 N 
ATOM     22  C   UNL     1       5.160   4.063  17.499  0.00  0.00    +0.000 C 
ATOM     23  O   UNL     1       4.420   3.311  16.861  0.00  0.00    +0.000 OA
ATOM     24  H   UNL     1       5.205   5.467  18.942  0.00  0.00    +0.000 HD
BRANCH  22  25
ATOM     25  O   UNL     1       6.433   4.414  17.181  0.00  0.00    +0.000 OA
BRANCH  25  26
ATOM     26  C   UNL     1       6.611   5.548  16.275  0.00  0.00    +0.000 C 
ATOM     27  C   UNL     1       7.362   5.108  15.010  0.00  0.00    +0.000 C 
ATOM     28  C   UNL     1       5.223   6.126  15.905  0.00  0.00    +0.000 C 
ATOM     29  C   UNL     1       7.393   6.673  16.962  0.00  0.00    +0.000 C 
ENDBRANCH  25  26
ENDBRANCH  22  25
ENDBRANCH  20  21
BRANCH  20  30
ATOM     30  C   UNL     1       3.434   3.749  20.602  0.00  0.00    +0.000 C 
ATOM     31  C   UNL     1       3.979   2.315  20.640  0.00  0.00    +0.000 C 
BRANCH  30  33
ATOM     32  C   UNL     1       1.228   2.633  21.382  0.00  0.00    +0.000 C 
ATOM     33  C   UNL     1       2.134   3.870  21.437  0.00  0.00    +0.000 C 
ENDBRANCH  30  33
ENDBRANCH  20  30
ENDBRANCH   1  20
TORSDOF 9
ENDMDL
MODEL 7
REMARK VINA RESULT:      -6.8      2.471      8.518
REMARK  Name = 
REMARK  14 active torsions:
REMARK  status: ('A' for Active; 'I' for Inactive)
REMARK    1  A    between atoms: C_1  and  C_2
REMARK    2  A    between atoms: C_2  and  C_3
REMARK    3  A    between atoms: C_3  and  C_4
REMARK    4  A    between atoms: C_3  and  C_5
REMARK    5  A    between atoms: C_5  and  N_6
REMARK    6  A    between atoms: C_5  and  C_14
REMARK    7  A    between atoms: C_7  and  O_9
REMARK    8  A    between atoms: O_9  and  C_10
REMARK    9  A    between atoms: C_10  and  C_11
REMARK   10  A    between atoms: C_10  and  C_12
REMARK   11  A    between atoms: C_10  and  C_13
REMARK   12  A    between atoms: N_16  and  C_17
REMARK   13  A    between atoms: C_18  and  O_19
REMARK   14  A    between atoms: C_23  and  O_24
REMARK                            x       y       z     vdW  Elec       q    Type
REMARK                         _______ _______ _______ _____ _____    ______ ____
ROOT
ATOM      1  C   UNL     1       0.721   9.508  19.125  0.00  0.00    +0.000 C 
ATOM      2  O   UNL     1       0.400   9.332  17.929  0.00  0.00    +0.000 OA
ATOM      3  N   UNL     1       1.682   8.727  19.761  0.00  0.00    +0.000 N 
ATOM      4  H   UNL     1       1.988   8.966  20.705  0.00  0.00    +0.000 HD
ENDROOT
BRANCH   3   5
ATOM      5  C   UNL     1       2.335   7.616  19.178  0.00  0.00    +0.000 A 
ATOM      6  C   UNL     1       3.022   7.698  18.019  0.00  0.00    +0.000 A 
ATOM      7  C   UNL     1       3.796   6.587  17.488  0.00  0.00    +0.000 A 
ATOM      8  C   UNL     1       4.632   6.702  16.363  0.00  0.00    +0.000 A 
ATOM      9  C   UNL     1       5.437   5.632  15.960  0.00  0.00    +0.000 A 
ATOM     10  C   UNL     1       5.379   4.430  16.663  0.00  0.00    +0.000 A 
ATOM     11  C   UNL     1       4.551   4.296  17.768  0.00  0.00    +0.000 A 
ATOM     12  C   UNL     1       3.783   5.382  18.174  0.00  0.00    +0.000 A 
ATOM     13  O   UNL     1       2.984   5.224  19.330  0.00  0.00    +0.000 OA
ATOM     14  C   UNL     1       2.198   6.255  19.818  0.00  0.00    +0.000 A 
ATOM     15  O   UNL     1       1.425   6.056  20.768  0.00  0.00    +0.000 OA
BRANCH   6  16
ATOM     16  O   UNL     1       3.047   8.818  17.206  0.00  0.00    +0.000 OA
ATOM     17  H   UNL     1       3.041   9.603  17.769  0.00  0.00    +0.000 HD
ENDBRANCH   6  16
BRANCH  10  18
ATOM     18  O   UNL     1       6.135   3.356  16.304  0.00  0.00    +0.000 OA
ATOM     19  H   UNL     1       7.058   3.637  16.191  0.00  0.00    +0.000 HD
ENDBRANCH  10  18
ENDBRANCH   3   5
BRANCH   1  20
ATOM     20  C   UNL     1       0.045  10.628  19.915  0.00  0.00    +0.000 C 
BRANCH  20  21
ATOM     21  N   UNL     1      -1.355  10.749  19.496  0.00  0.00    +0.000 N 
ATOM     22  C   UNL     1      -1.747  11.841  18.786  0.00  0.00    +0.000 C 
ATOM     23  O   UNL     1      -0.922  12.701  18.468  0.00  0.00    +0.000 OA
ATOM     24  H   UNL     1      -1.960   9.951  19.445  0.00  0.00    +0.000 HD
BRANCH  22  25
ATOM     25  O   UNL     1      -3.075  11.843  18.499  0.00  0.00    +0.000 OA
BRANCH  25  26
ATOM     26  C   UNL     1      -3.517  11.034  17.363  0.00  0.00    +0.000 C 
ATOM     27  C   UNL     1      -4.917  11.472  16.908  0.00  0.00    +0.000 C 
ATOM     28  C   UNL     1      -2.501  11.186  16.205  0.00  0.00    +0.000 C 
ATOM     29  C   UNL     1      -3.548   9.548  17.736  0.00  0.00    +0.000 C 
ENDBRANCH  25  26
ENDBRANCH  22  25
ENDBRANCH  20  21
BRANCH  20  30
ATOM     30  C   UNL     1       0.154  10.517  21.477  0.00  0.00    +0.000 C 
ATOM     31  C   UNL     1      -0.413   9.191  22.005  0.00  0.00    +0.000 C 
BRANCH  30  33
ATOM     32  C   UNL     1      -1.653  11.400  23.113  0.00  0.00    +0.000 C 
ATOM     33  C   UNL     1      -0.400  11.718  22.286  0.00  0.00    +0.000 C 
ENDBRANCH  30  33
ENDBRANCH  20  30
ENDBRANCH   1  20
TORSDOF 9
ENDMDL
MODEL 8
REMARK VINA RESULT:      -6.7      1.490      1.813
REMARK  Name = 
REMARK  14 active torsions:
REMARK  status: ('A' for Active; 'I' for Inactive)
REMARK    1  A    between atoms: C_1  and  C_2
REMARK    2  A    between atoms: C_2  and  C_3
REMARK    3  A    between atoms: C_3  and  C_4
REMARK    4  A    between atoms: C_3  and  C_5
REMARK    5  A    between atoms: C_5  and  N_6
REMARK    6  A    between atoms: C_5  and  C_14
REMARK    7  A    between atoms: C_7  and  O_9
REMARK    8  A    between atoms: O_9  and  C_10
REMARK    9  A    between atoms: C_10  and  C_11
REMARK   10  A    between atoms: C_10  and  C_12
REMARK   11  A    between atoms: C_10  and  C_13
REMARK   12  A    between atoms: N_16  and  C_17
REMARK   13  A    between atoms: C_18  and  O_19
REMARK   14  A    between atoms: C_23  and  O_24
REMARK                            x       y       z     vdW  Elec       q    Type
REMARK                         _______ _______ _______ _____ _____    ______ ____
ROOT
ATOM      1  C   UNL     1       2.047   8.309  18.640  0.00  0.00    +0.000 C 
ATOM      2  O   UNL     1       2.344   9.365  18.038  0.00  0.00    +0.000 OA
ATOM      3  N   UNL     1       1.174   8.289  19.723  0.00  0.00    +0.000 N 
ATOM      4  H   UNL     1       0.880   7.397  20.123  0.00  0.00    +0.000 HD
ENDROOT
BRANCH   3   5
ATOM      5  C   UNL     1       0.595   9.436  20.316  0.00  0.00    +0.000 A 
ATOM      6  C   UNL     1      -0.256  10.249  19.655  0.00  0.00    +0.000 A 
ATOM      7  C   UNL     1      -0.945  11.353  20.302  0.00  0.00    +0.000 A 
ATOM      8  C   UNL     1      -1.942  12.115  19.666  0.00  0.00    +0.000 A 
ATOM      9  C   UNL     1      -2.649  13.095  20.371  0.00  0.00    +0.000 A 
ATOM     10  C   UNL     1      -2.334  13.338  21.707  0.00  0.00    +0.000 A 
ATOM     11  C   UNL     1      -1.346  12.604  22.345  0.00  0.00    +0.000 A 
ATOM     12  C   UNL     1      -0.676  11.611  21.638  0.00  0.00    +0.000 A 
ATOM     13  O   UNL     1       0.294  10.852  22.333  0.00  0.00    +0.000 OA
ATOM     14  C   UNL     1       1.000   9.833  21.715  0.00  0.00    +0.000 A 
ATOM     15  O   UNL     1       1.921   9.256  22.316  0.00  0.00    +0.000 OA
BRANCH   6  16
ATOM     16  O   UNL     1      -0.544  10.143  18.305  0.00  0.00    +0.000 OA
ATOM     17  H   UNL     1      -0.281  10.967  17.873  0.00  0.00    +0.000 HD
ENDBRANCH   6  16
BRANCH  10  18
ATOM     18  O   UNL     1      -2.986  14.288  22.432  0.00  0.00    +0.000 OA
ATOM     19  H   UNL     1      -3.761  13.888  22.861  0.00  0.00    +0.000 HD
ENDBRANCH  10  18
ENDBRANCH   3   5
BRANCH   1  20
ATOM     20  C   UNL     1       2.654   6.990  18.163  0.00  0.00    +0.000 C 
BRANCH  20  21
ATOM     21  N   UNL     1       4.101   6.999  18.402  0.00  0.00    +0.000 N 
ATOM     22  C   UNL     1       4.947   6.644  17.397  0.00  0.00    +0.000 C 
ATOM     23  O   UNL     1       4.498   6.353  16.286  0.00  0.00    +0.000 OA
ATOM     24  H   UNL     1       4.508   7.528  19.152  0.00  0.00    +0.000 HD
BRANCH  22  25
ATOM     25  O   UNL     1       6.253   6.661  17.768  0.00  0.00    +0.000 OA
BRANCH  25  26
ATOM     26  C   UNL     1       6.848   5.393  18.190  0.00  0.00    +0.000 C 
ATOM     27  C   UNL     1       7.485   4.676  16.991  0.00  0.00    +0.000 C 
ATOM     28  C   UNL     1       7.911   5.668  19.281  0.00  0.00    +0.000 C 
ATOM     29  C   UNL     1       5.789   4.482  18.821  0.00  0.00    +0.000 C 
ENDBRANCH  25  26
ENDBRANCH  22  25
ENDBRANCH  20  21
BRANCH  20  30
ATOM     30  C   UNL     1       2.000   5.690  18.751  0.00  0.00    +0.000 C 
ATOM     31  C   UNL     1       2.640   5.268  20.081  0.00  0.00    +0.000 C 
BRANCH  30  33
ATOM     32  C   UNL     1       1.313   3.212  18.418  0.00  0.00    +0.000 C 
ATOM     33  C   UNL     1       1.889   4.484  17.782  0.00  0.00    +0.000 C 
ENDBRANCH  30  33
ENDBRANCH  20  30
ENDBRANCH   1  20
TORSDOF 9
ENDMDL
MODEL 9
REMARK VINA RESULT:      -6.7      1.590      2.811
REMARK  Name = 
REMARK  14 active torsions:
REMARK  status: ('A' for Active; 'I' for Inactive)
REMARK    1  A    between atoms: C_1  and  C_2
REMARK    2  A    between atoms: C_2  and  C_3
REMARK    3  A    between atoms: C_3  and  C_4
REMARK    4  A    between atoms: C_3  and  C_5
REMARK    5  A    between atoms: C_5  and  N_6
REMARK    6  A    between atoms: C_5  and  C_14
REMARK    7  A    between atoms: C_7  and  O_9
REMARK    8  A    between atoms: O_9  and  C_10
REMARK    9  A    between atoms: C_10  and  C_11
REMARK   10  A    between atoms: C_10  and  C_12
REMARK   11  A    between atoms: C_10  and  C_13
REMARK   12  A    between atoms: N_16  and  C_17
REMARK   13  A    between atoms: C_18  and  O_19
REMARK   14  A    between atoms: C_23  and  O_24
REMARK                            x       y       z     vdW  Elec       q    Type
REMARK                         _______ _______ _______ _____ _____    ______ ____
ROOT
ATOM      1  C   UNL     1       2.323   5.137  18.670  0.00  0.00    +0.000 C 
ATOM      2  O   UNL     1       1.128   5.065  18.306  0.00  0.00    +0.000 OA
ATOM      3  N   UNL     1       2.865   6.292  19.225  0.00  0.00    +0.000 N 
ATOM      4  H   UNL     1       3.813   6.279  19.601  0.00  0.00    +0.000 HD
ENDROOT
BRANCH   3   5
ATOM      5  C   UNL     1       2.177   7.520  19.364  0.00  0.00    +0.000 A 
ATOM      6  C   UNL     1       1.478   7.844  20.472  0.00  0.00    +0.000 A 
ATOM      7  C   UNL     1       0.878   9.155  20.664  0.00  0.00    +0.000 A 
ATOM      8  C   UNL     1       0.274   9.554  21.869  0.00  0.00    +0.000 A 
ATOM      9  C   UNL     1      -0.190  10.863  22.035  0.00  0.00    +0.000 A 
ATOM     10  C   UNL     1      -0.082  11.767  20.979  0.00  0.00    +0.000 A 
ATOM     11  C   UNL     1       0.501  11.385  19.780  0.00  0.00    +0.000 A 
ATOM     12  C   UNL     1       0.987  10.089  19.645  0.00  0.00    +0.000 A 
ATOM     13  O   UNL     1       1.614   9.749  18.424  0.00  0.00    +0.000 OA
ATOM     14  C   UNL     1       2.142   8.486  18.205  0.00  0.00    +0.000 A 
ATOM     15  O   UNL     1       2.588   8.181  17.087  0.00  0.00    +0.000 OA
BRANCH   6  16
ATOM     16  O   UNL     1       1.232   6.974  21.520  0.00  0.00    +0.000 OA
ATOM     17  H   UNL     1       0.303   7.058  21.773  0.00  0.00    +0.000 HD
ENDBRANCH   6  16
BRANCH  10  18
ATOM     18  O   UNL     1      -0.528  13.048  21.088  0.00  0.00    +0.000 OA
ATOM     19  H   UNL     1      -1.494  13.060  20.991  0.00  0.00    +0.000 HD
ENDBRANCH  10  18
ENDBRANCH   3   5
BRANCH   1  20
ATOM     20  C   UNL     1       3.219   3.908  18.513  0.00  0.00    +0.000 C 
BRANCH  20  21
ATOM     21  N   UNL     1       4.626   4.315  18.568  0.00  0.00    +0.000 N 
ATOM     22  C   UNL     1       5.383   4.257  17.439  0.00  0.00    +0.000 C 
ATOM     23  O   UNL     1       4.876   3.899  16.373  0.00  0.00    +0.000 OA
ATOM     24  H   UNL     1       4.976   4.904  19.301  0.00  0.00    +0.000 HD
BRANCH  22  25
ATOM     25  O   UNL     1       6.675   4.625  17.642  0.00  0.00    +0.000 OA
BRANCH  25  26
ATOM     26  C   UNL     1       7.042   6.000  17.305  0.00  0.00    +0.000 C 
ATOM     27  C   UNL     1       8.017   6.564  18.349  0.00  0.00    +0.000 C 
ATOM     28  C   UNL     1       7.687   6.023  15.897  0.00  0.00    +0.000 C 
ATOM     29  C   UNL     1       5.798   6.892  17.240  0.00  0.00    +0.000 C 
ENDBRANCH  25  26
ENDBRANCH  22  25
ENDBRANCH  20  21
BRANCH  20  30
ATOM     30  C   UNL     1       2.938   2.733  19.514  0.00  0.00    +0.000 C 
ATOM     31  C   UNL     1       1.784   1.834  19.046  0.00  0.00    +0.000 C 
BRANCH  30  33
ATOM     32  C   UNL     1       1.365   2.844  21.573  0.00  0.00    +0.000 C 
ATOM     33  C   UNL     1       2.760   3.131  21.002  0.00  0.00    +0.000 C 
ENDBRANCH  30  33
ENDBRANCH  20  30
ENDBRANCH   1  20
TORSDOF 9
ENDMDL
