MODEL 1
REMARK VINA RESULT:      -8.4      0.000      0.000
REMARK  Name = 
REMARK  5 active torsions:
REMARK  status: ('A' for Active; 'I' for Inactive)
REMARK    1  A    between atoms: C_1  and  C_2
REMARK    2  A    between atoms: C_5  and  C_6
REMARK    3  A    between atoms: C_11  and  C_12
REMARK    4  A    between atoms: C_18  and  C_19
REMARK    5  A    between atoms: C_19  and  C_21
REMARK                            x       y       z     vdW  Elec       q    Type
REMARK                         _______ _______ _______ _____ _____    ______ ____
ROOT
ATOM      1  C   UNL     1       1.111  10.521  19.253  0.00  0.00    +0.000 A 
ATOM      2  N   UNL     1       0.549   9.820  20.197  0.00  0.00    +0.000 NA
ATOM      3  C   UNL     1       0.818   8.476  20.372  0.00  0.00    +0.000 A 
ATOM      4  O   UNL     1       0.309   7.851  21.291  0.00  0.00    +0.000 OA
ATOM      5  C   UNL     1       1.743   7.871  19.410  0.00  0.00    +0.000 A 
ATOM      6  C   UNL     1       2.273   6.544  19.210  0.00  0.00    +0.000 A 
ATOM      7  C   UNL     1       3.155   6.623  18.109  0.00  0.00    +0.000 A 
ATOM      8  N   UNL     1       3.168   7.959  17.705  0.00  0.00    +0.000 N 
ATOM      9  C   UNL     1       2.297   8.674  18.453  0.00  0.00    +0.000 A 
ATOM     10  N   UNL     1       2.005   9.980  18.337  0.00  0.00    +0.000 N 
ATOM     11  H   UNL     1       3.749   8.330  16.965  0.00  0.00    +0.000 HD
ATOM     12  H   UNL     1       2.391  10.613  17.643  0.00  0.00    +0.000 HD
ENDROOT
BRANCH   1  17
ATOM     13  C   UNL     1       1.739  15.320  18.760  0.00  0.00    +0.000 C 
ATOM     14  C   UNL     1       0.962  14.095  19.037  0.00  0.00    +0.000 A 
ATOM     15  C   UNL     1      -0.366  13.887  19.331  0.00  0.00    +0.000 A 
ATOM     16  C   UNL     1      -0.526  12.495  19.458  0.00  0.00    +0.000 A 
ATOM     17  C   UNL     1       0.714  11.922  19.245  0.00  0.00    +0.000 A 
ATOM     18  O   UNL     1       1.637  12.904  18.993  0.00  0.00    +0.000 OA
ENDBRANCH   1  17
BRANCH   6  19
ATOM     19  C   UNL     1       1.934   5.330  19.973  0.00  0.00    +0.000 A 
ATOM     20  C   UNL     1       2.659   4.991  21.127  0.00  0.00    +0.000 A 
ATOM     21  C   UNL     1       2.433   3.787  21.807  0.00  0.00    +0.000 A 
ATOM     22  C   UNL     1       1.415   2.936  21.396  0.00  0.00    +0.000 A 
ATOM     23  C   UNL     1       0.655   3.272  20.283  0.00  0.00    +0.000 A 
ATOM     24  C   UNL     1       0.946   4.434  19.555  0.00  0.00    +0.000 A 
ENDBRANCH   6  19
BRANCH   7  25
ATOM     25  C   UNL     1       3.994   5.619  17.443  0.00  0.00    +0.000 C 
ATOM     26  O   UNL     1       4.758   5.845  16.509  0.00  0.00    +0.000 OA
BRANCH  25  27
ATOM     27  C   UNL     1       3.865   4.185  17.831  0.00  0.00    +0.000 A 
ATOM     28  C   UNL     1       4.658   3.622  18.839  0.00  0.00    +0.000 A 
ATOM     29  C   UNL     1       4.451   2.299  19.227  0.00  0.00    +0.000 A 
ATOM     30  C   UNL     1       3.479   1.525  18.590  0.00  0.00    +0.000 A 
ATOM     31  C   UNL     1       2.728   2.063  17.546  0.00  0.00    +0.000 A 
ATOM     32  C   UNL     1       2.921   3.390  17.164  0.00  0.00    +0.000 A 
ENDBRANCH  25  27
ENDBRANCH   7  25
TORSDOF 4
ENDMDL
MODEL 2
REMARK VINA RESULT:      -8.3      2.119      8.841
REMARK  Name = 
REMARK  5 active torsions:
REMARK  status: ('A' for Active; 'I' for Inactive)
REMARK    1  A    between atoms: C_1  and  C_2
REMARK    2  A    between atoms: C_5  and  C_6
REMARK    3  A    between atoms: C_11  and  C_12
REMARK    4  A    between atoms: C_18  and  C_19
REMARK    5  A    between atoms: C_19  and  C_21
REMARK                            x       y       z     vdW  Elec       q    Type
REMARK                         _______ _______ _______ _____ _____    ______ ____
ROOT
ATOM      1  C   UNL     1       2.530   6.528  19.147  0.00  0.00    +0.000 A 
ATOM      2  N   UNL     1       2.553   7.385  18.167  0.00  0.00    +0.000 NA
ATOM      3  C   UNL     1       2.049   8.665  18.299  0.00  0.00    +0.000 A 
ATOM      4  O   UNL     1       2.119   9.464  17.376  0.00  0.00    +0.000 OA
ATOM      5  C   UNL     1       1.447   8.992  19.595  0.00  0.00    +0.000 A 
ATOM      6  C   UNL     1       0.804  10.158  20.148  0.00  0.00    +0.000 A 
ATOM      7  C   UNL     1       0.467   9.839  21.483  0.00  0.00    +0.000 A 
ATOM      8  N   UNL     1       0.933   8.543  21.711  0.00  0.00    +0.000 N 
ATOM      9  C   UNL     1       1.468   8.040  20.576  0.00  0.00    +0.000 A 
ATOM     10  N   UNL     1       1.983   6.814  20.392  0.00  0.00    +0.000 N 
ATOM     11  H   UNL     1       0.878   8.061  22.599  0.00  0.00    +0.000 HD
ATOM     12  H   UNL     1       2.020   6.077  21.090  0.00  0.00    +0.000 HD
ENDROOT
BRANCH   1  17
ATOM     13  C   UNL     1       4.448   2.150  20.054  0.00  0.00    +0.000 C 
ATOM     14  C   UNL     1       4.004   3.261  19.190  0.00  0.00    +0.000 A 
ATOM     15  C   UNL     1       3.976   3.418  17.823  0.00  0.00    +0.000 A 
ATOM     16  C   UNL     1       3.409   4.683  17.584  0.00  0.00    +0.000 A 
ATOM     17  C   UNL     1       3.127   5.241  18.818  0.00  0.00    +0.000 A 
ATOM     18  O   UNL     1       3.499   4.373  19.811  0.00  0.00    +0.000 OA
ENDBRANCH   1  17
BRANCH   6  19
ATOM     19  C   UNL     1       0.514  11.425  19.453  0.00  0.00    +0.000 A 
ATOM     20  C   UNL     1       1.394  12.514  19.564  0.00  0.00    +0.000 A 
ATOM     21  C   UNL     1       1.089  13.762  19.006  0.00  0.00    +0.000 A 
ATOM     22  C   UNL     1      -0.066  13.924  18.251  0.00  0.00    +0.000 A 
ATOM     23  C   UNL     1      -0.930  12.848  18.091  0.00  0.00    +0.000 A 
ATOM     24  C   UNL     1      -0.662  11.628  18.725  0.00  0.00    +0.000 A 
ENDBRANCH   6  19
BRANCH   7  25
ATOM     25  C   UNL     1      -0.186  10.612  22.548  0.00  0.00    +0.000 C 
ATOM     26  O   UNL     1      -0.235  10.282  23.729  0.00  0.00    +0.000 OA
BRANCH  25  27
ATOM     27  C   UNL     1      -0.946  11.845  22.195  0.00  0.00    +0.000 A 
ATOM     28  C   UNL     1      -0.391  13.120  22.350  0.00  0.00    +0.000 A 
ATOM     29  C   UNL     1      -1.105  14.244  21.934  0.00  0.00    +0.000 A 
ATOM     30  C   UNL     1      -2.384  14.101  21.394  0.00  0.00    +0.000 A 
ATOM     31  C   UNL     1      -2.965  12.838  21.292  0.00  0.00    +0.000 A 
ATOM     32  C   UNL     1      -2.250  11.710  21.693  0.00  0.00    +0.000 A 
ENDBRANCH  25  27
ENDBRANCH   7  25
TORSDOF 4
ENDMDL
MODEL 3
REMARK VINA RESULT:      -8.2      2.253      3.295
REMARK  Name = 
REMARK  5 active torsions:
REMARK  status: ('A' for Active; 'I' for Inactive)
REMARK    1  A    between atoms: C_1  and  C_2
REMARK    2  A    between atoms: C_5  and  C_6
REMARK    3  A    between atoms: C_11  and  C_12
REMARK    4  A    between atoms: C_18  and  C_19
REMARK    5  A    between atoms: C_19  and  C_21
REMARK                            x       y       z     vdW  Elec       q    Type
REMARK                         _______ _______ _______ _____ _____    ______ ____
ROOT
ATOM      1  C   UNL     1       0.699   8.898  20.793  0.00  0.00    +0.000 A 
ATOM      2  N   UNL     1       0.614   7.674  21.231  0.00  0.00    +0.000 NA
ATOM      3  C   UNL     1       1.312   6.635  20.645  0.00  0.00    +0.000 A 
ATOM      4  O   UNL     1       1.247   5.503  21.101  0.00  0.00    +0.000 OA
ATOM      5  C   UNL     1       2.121   6.980  19.473  0.00  0.00    +0.000 A 
ATOM      6  C   UNL     1       2.965   6.236  18.570  0.00  0.00    +0.000 A 
ATOM      7  C   UNL     1       3.496   7.170  17.651  0.00  0.00    +0.000 A 
ATOM      8  N   UNL     1       3.009   8.422  18.031  0.00  0.00    +0.000 N 
ATOM      9  C   UNL     1       2.165   8.288  19.079  0.00  0.00    +0.000 A 
ATOM     10  N   UNL     1       1.472   9.259  19.696  0.00  0.00    +0.000 N 
ATOM     11  H   UNL     1       3.258   9.295  17.586  0.00  0.00    +0.000 HD
ATOM     12  H   UNL     1       1.472  10.242  19.438  0.00  0.00    +0.000 HD
ENDROOT
BRANCH   1  17
ATOM     13  C   UNL     1      -1.906  12.942  21.521  0.00  0.00    +0.000 C 
ATOM     14  C   UNL     1      -1.270  11.672  21.923  0.00  0.00    +0.000 A 
ATOM     15  C   UNL     1      -1.254  10.978  23.111  0.00  0.00    +0.000 A 
ATOM     16  C   UNL     1      -0.507   9.810  22.875  0.00  0.00    +0.000 A 
ATOM     17  C   UNL     1      -0.093   9.852  21.555  0.00  0.00    +0.000 A 
ATOM     18  O   UNL     1      -0.554  11.002  20.966  0.00  0.00    +0.000 OA
ENDBRANCH   1  17
BRANCH   6  19
ATOM     19  C   UNL     1       3.201   4.782  18.571  0.00  0.00    +0.000 A 
ATOM     20  C   UNL     1       2.457   3.941  17.727  0.00  0.00    +0.000 A 
ATOM     21  C   UNL     1       2.581   2.547  17.787  0.00  0.00    +0.000 A 
ATOM     22  C   UNL     1       3.517   1.967  18.633  0.00  0.00    +0.000 A 
ATOM     23  C   UNL     1       4.296   2.781  19.447  0.00  0.00    +0.000 A 
ATOM     24  C   UNL     1       4.103   4.169  19.445  0.00  0.00    +0.000 A 
ENDBRANCH   6  19
BRANCH   7  25
ATOM     25  C   UNL     1       4.418   7.024  16.518  0.00  0.00    +0.000 C 
ATOM     26  O   UNL     1       4.250   7.513  15.404  0.00  0.00    +0.000 OA
BRANCH  25  27
ATOM     27  C   UNL     1       5.611   6.140  16.655  0.00  0.00    +0.000 A 
ATOM     28  C   UNL     1       6.555   6.332  17.670  0.00  0.00    +0.000 A 
ATOM     29  C   UNL     1       7.614   5.435  17.813  0.00  0.00    +0.000 A 
ATOM     30  C   UNL     1       7.752   4.368  16.924  0.00  0.00    +0.000 A 
ATOM     31  C   UNL     1       6.848   4.207  15.874  0.00  0.00    +0.000 A 
ATOM     32  C   UNL     1       5.780   5.093  15.737  0.00  0.00    +0.000 A 
ENDBRANCH  25  27
ENDBRANCH   7  25
TORSDOF 4
ENDMDL
MODEL 4
REMARK VINA RESULT:      -8.1      2.156      8.913
REMARK  Name = 
REMARK  5 active torsions:
REMARK  status: ('A' for Active; 'I' for Inactive)
REMARK    1  A    between atoms: C_1  and  C_2
REMARK    2  A    between atoms: C_5  and  C_6
REMARK    3  A    between atoms: C_11  and  C_12
REMARK    4  A    between atoms: C_18  and  C_19
REMARK    5  A    between atoms: C_19  and  C_21
REMARK                            x       y       z     vdW  Elec       q    Type
REMARK                         _______ _______ _______ _____ _____    ______ ____
ROOT
ATOM      1  C   UNL     1       2.565   6.552  19.124  0.00  0.00    +0.000 A 
ATOM      2  N   UNL     1       2.556   7.417  18.149  0.00  0.00    +0.000 NA
ATOM      3  C   UNL     1       2.028   8.685  18.298  0.00  0.00    +0.000 A 
ATOM      4  O   UNL     1       2.070   9.492  17.380  0.00  0.00    +0.000 OA
ATOM      5  C   UNL     1       1.439   8.990  19.604  0.00  0.00    +0.000 A 
ATOM      6  C   UNL     1       0.781  10.140  20.175  0.00  0.00    +0.000 A 
ATOM      7  C   UNL     1       0.469   9.805  21.512  0.00  0.00    +0.000 A 
ATOM      8  N   UNL     1       0.964   8.518  21.724  0.00  0.00    +0.000 N 
ATOM      9  C   UNL     1       1.493   8.033  20.578  0.00  0.00    +0.000 A 
ATOM     10  N   UNL     1       2.030   6.819  20.378  0.00  0.00    +0.000 N 
ATOM     11  H   UNL     1       0.932   8.028  22.609  0.00  0.00    +0.000 HD
ATOM     12  H   UNL     1       2.092   6.078  21.070  0.00  0.00    +0.000 HD
ENDROOT
BRANCH   1  17
ATOM     13  C   UNL     1       4.439   2.141  19.960  0.00  0.00    +0.000 C 
ATOM     14  C   UNL     1       4.042   3.286  19.117  0.00  0.00    +0.000 A 
ATOM     15  C   UNL     1       4.092   3.499  17.759  0.00  0.00    +0.000 A 
ATOM     16  C   UNL     1       3.536   4.773  17.539  0.00  0.00    +0.000 A 
ATOM     17  C   UNL     1       3.183   5.280  18.777  0.00  0.00    +0.000 A 
ATOM     18  O   UNL     1       3.500   4.372  19.753  0.00  0.00    +0.000 OA
ENDBRANCH   1  17
BRANCH   6  19
ATOM     19  C   UNL     1       0.455  11.405  19.493  0.00  0.00    +0.000 A 
ATOM     20  C   UNL     1      -0.763  11.551  18.809  0.00  0.00    +0.000 A 
ATOM     21  C   UNL     1      -1.049  12.700  18.061  0.00  0.00    +0.000 A 
ATOM     22  C   UNL     1      -0.159  13.766  18.052  0.00  0.00    +0.000 A 
ATOM     23  C   UNL     1       1.034  13.662  18.757  0.00  0.00    +0.000 A 
ATOM     24  C   UNL     1       1.353  12.475  19.430  0.00  0.00    +0.000 A 
ENDBRANCH   6  19
BRANCH   7  25
ATOM     25  C   UNL     1      -0.184  10.557  22.591  0.00  0.00    +0.000 C 
ATOM     26  O   UNL     1      -0.227  10.209  23.767  0.00  0.00    +0.000 OA
BRANCH  25  27
ATOM     27  C   UNL     1      -0.952  11.792  22.261  0.00  0.00    +0.000 A 
ATOM     28  C   UNL     1      -2.292  11.739  21.862  0.00  0.00    +0.000 A 
ATOM     29  C   UNL     1      -2.998  12.922  21.638  0.00  0.00    +0.000 A 
ATOM     30  C   UNL     1      -2.359  14.156  21.780  0.00  0.00    +0.000 A 
ATOM     31  C   UNL     1      -1.008  14.212  22.121  0.00  0.00    +0.000 A 
ATOM     32  C   UNL     1      -0.303  13.032  22.358  0.00  0.00    +0.000 A 
ENDBRANCH  25  27
ENDBRANCH   7  25
TORSDOF 4
ENDMDL
MODEL 5
REMARK VINA RESULT:      -8.1      2.088      8.766
REMARK  Name = 
REMARK  5 active torsions:
REMARK  status: ('A' for Active; 'I' for Inactive)
REMARK    1  A    between atoms: C_1  and  C_2
REMARK    2  A    between atoms: C_5  and  C_6
REMARK    3  A    between atoms: C_11  and  C_12
REMARK    4  A    between atoms: C_18  and  C_19
REMARK    5  A    between atoms: C_19  and  C_21
REMARK                            x       y       z     vdW  Elec       q    Type
REMARK                         _______ _______ _______ _____ _____    ______ ____
ROOT
ATOM      1  C   UNL     1       2.654   6.614  18.998  0.00  0.00    +0.000 A 
ATOM      2  N   UNL     1       2.595   7.498  18.043  0.00  0.00    +0.000 NA
ATOM      3  C   UNL     1       2.035   8.747  18.233  0.00  0.00    +0.000 A 
ATOM      4  O   UNL     1       2.029   9.574  17.332  0.00  0.00    +0.000 OA
ATOM      5  C   UNL     1       1.472   9.008  19.560  0.00  0.00    +0.000 A 
ATOM      6  C   UNL     1       0.796  10.126  20.173  0.00  0.00    +0.000 A 
ATOM      7  C   UNL     1       0.529   9.754  21.510  0.00  0.00    +0.000 A 
ATOM      8  N   UNL     1       1.067   8.477  21.681  0.00  0.00    +0.000 N 
ATOM      9  C   UNL     1       1.579   8.033  20.512  0.00  0.00    +0.000 A 
ATOM     10  N   UNL     1       2.145   6.839  20.272  0.00  0.00    +0.000 N 
ATOM     11  H   UNL     1       1.072   7.968  22.556  0.00  0.00    +0.000 HD
ATOM     12  H   UNL     1       2.246   6.085  20.945  0.00  0.00    +0.000 HD
ENDROOT
BRANCH   1  17
ATOM     13  C   UNL     1       5.385   3.698  16.223  0.00  0.00    +0.000 C 
ATOM     14  C   UNL     1       4.521   4.020  17.375  0.00  0.00    +0.000 A 
ATOM     15  C   UNL     1       4.087   3.274  18.447  0.00  0.00    +0.000 A 
ATOM     16  C   UNL     1       3.311   4.138  19.240  0.00  0.00    +0.000 A 
ATOM     17  C   UNL     1       3.299   5.369  18.608  0.00  0.00    +0.000 A 
ATOM     18  O   UNL     1       4.036   5.299  17.454  0.00  0.00    +0.000 OA
ENDBRANCH   1  17
BRANCH   6  19
ATOM     19  C   UNL     1       0.416  11.394  19.527  0.00  0.00    +0.000 A 
ATOM     20  C   UNL     1      -0.810  11.509  18.851  0.00  0.00    +0.000 A 
ATOM     21  C   UNL     1      -1.146  12.665  18.136  0.00  0.00    +0.000 A 
ATOM     22  C   UNL     1      -0.300  13.766  18.153  0.00  0.00    +0.000 A 
ATOM     23  C   UNL     1       0.899  13.692  18.852  0.00  0.00    +0.000 A 
ATOM     24  C   UNL     1       1.269  12.502  19.491  0.00  0.00    +0.000 A 
ENDBRANCH   6  19
BRANCH   7  25
ATOM     25  C   UNL     1      -0.117  10.463  22.622  0.00  0.00    +0.000 C 
ATOM     26  O   UNL     1      -0.160  10.065  23.782  0.00  0.00    +0.000 OA
BRANCH  25  27
ATOM     27  C   UNL     1      -0.877  11.716  22.346  0.00  0.00    +0.000 A 
ATOM     28  C   UNL     1      -0.275  12.976  22.436  0.00  0.00    +0.000 A 
ATOM     29  C   UNL     1      -0.998  14.118  22.093  0.00  0.00    +0.000 A 
ATOM     30  C   UNL     1      -2.331  14.009  21.692  0.00  0.00    +0.000 A 
ATOM     31  C   UNL     1      -2.953  12.761  21.657  0.00  0.00    +0.000 A 
ATOM     32  C   UNL     1      -2.230  11.615  21.986  0.00  0.00    +0.000 A 
ENDBRANCH  25  27
ENDBRANCH   7  25
TORSDOF 4
ENDMDL
MODEL 6
REMARK VINA RESULT:      -8.1      1.710      3.406
REMARK  Name = 
REMARK  5 active torsions:
REMARK  status: ('A' for Active; 'I' for Inactive)
REMARK    1  A    between atoms: C_1  and  C_2
REMARK    2  A    between atoms: C_5  and  C_6
REMARK    3  A    between atoms: C_11  and  C_12
REMARK    4  A    between atoms: C_18  and  C_19
REMARK    5  A    between atoms: C_19  and  C_21
REMARK                            x       y       z     vdW  Elec       q    Type
REMARK                         _______ _______ _______ _____ _____    ______ ____
ROOT
ATOM      1  C   UNL     1       0.840   9.777  19.848  0.00  0.00    +0.000 A 
ATOM      2  N   UNL     1       1.606   9.737  18.795  0.00  0.00    +0.000 NA
ATOM      3  C   UNL     1       2.326   8.608  18.454  0.00  0.00    +0.000 A 
ATOM      4  O   UNL     1       3.006   8.582  17.437  0.00  0.00    +0.000 OA
ATOM      5  C   UNL     1       2.213   7.468  19.368  0.00  0.00    +0.000 A 
ATOM      6  C   UNL     1       2.784   6.144  19.413  0.00  0.00    +0.000 A 
ATOM      7  C   UNL     1       2.244   5.509  20.554  0.00  0.00    +0.000 A 
ATOM      8  N   UNL     1       1.357   6.419  21.132  0.00  0.00    +0.000 N 
ATOM      9  C   UNL     1       1.383   7.585  20.448  0.00  0.00    +0.000 A 
ATOM     10  N   UNL     1       0.698   8.706  20.724  0.00  0.00    +0.000 N 
ATOM     11  H   UNL     1       0.781   6.225  21.941  0.00  0.00    +0.000 HD
ATOM     12  H   UNL     1       0.073   8.839  21.513  0.00  0.00    +0.000 HD
ENDROOT
BRANCH   1  17
ATOM     13  C   UNL     1      -0.211  14.436  18.927  0.00  0.00    +0.000 C 
ATOM     14  C   UNL     1      -0.347  13.152  19.642  0.00  0.00    +0.000 A 
ATOM     15  C   UNL     1      -1.179  12.740  20.658  0.00  0.00    +0.000 A 
ATOM     16  C   UNL     1      -0.866  11.390  20.899  0.00  0.00    +0.000 A 
ATOM     17  C   UNL     1       0.150  11.046  20.026  0.00  0.00    +0.000 A 
ATOM     18  O   UNL     1       0.479  12.130  19.254  0.00  0.00    +0.000 OA
ENDBRANCH   1  17
BRANCH   6  19
ATOM     19  C   UNL     1       3.771   5.572  18.480  0.00  0.00    +0.000 A 
ATOM     20  C   UNL     1       3.348   4.919  17.310  0.00  0.00    +0.000 A 
ATOM     21  C   UNL     1       4.256   4.270  16.465  0.00  0.00    +0.000 A 
ATOM     22  C   UNL     1       5.619   4.335  16.725  0.00  0.00    +0.000 A 
ATOM     23  C   UNL     1       6.065   5.013  17.853  0.00  0.00    +0.000 A 
ATOM     24  C   UNL     1       5.144   5.583  18.741  0.00  0.00    +0.000 A 
ENDBRANCH   6  19
BRANCH   7  25
ATOM     25  C   UNL     1       2.430   4.166  21.117  0.00  0.00    +0.000 C 
ATOM     26  O   UNL     1       2.355   3.884  22.309  0.00  0.00    +0.000 OA
BRANCH  25  27
ATOM     27  C   UNL     1       2.844   3.048  20.220  0.00  0.00    +0.000 A 
ATOM     28  C   UNL     1       1.962   2.489  19.288  0.00  0.00    +0.000 A 
ATOM     29  C   UNL     1       2.411   1.500  18.414  0.00  0.00    +0.000 A 
ATOM     30  C   UNL     1       3.728   1.043  18.489  0.00  0.00    +0.000 A 
ATOM     31  C   UNL     1       4.594   1.555  19.455  0.00  0.00    +0.000 A 
ATOM     32  C   UNL     1       4.153   2.554  20.322  0.00  0.00    +0.000 A 
ENDBRANCH  25  27
ENDBRANCH   7  25
TORSDOF 4
ENDMDL
MODEL 7
REMARK VINA RESULT:      -8.0      2.616      3.768
REMARK  Name = 
REMARK  5 active torsions:
REMARK  status: ('A' for Active; 'I' for Inactive)
REMARK    1  A    between atoms: C_1  and  C_2
REMARK    2  A    between atoms: C_5  and  C_6
REMARK    3  A    between atoms: C_11  and  C_12
REMARK    4  A    between atoms: C_18  and  C_19
REMARK    5  A    between atoms: C_19  and  C_21
REMARK                            x       y       z     vdW  Elec       q    Type
REMARK                         _______ _______ _______ _____ _____    ______ ____
ROOT
ATOM      1  C   UNL     1       2.263   8.669  18.271  0.00  0.00    +0.000 A 
ATOM      2  N   UNL     1       1.765   7.679  18.956  0.00  0.00    +0.000 NA
ATOM      3  C   UNL     1       2.350   6.427  18.965  0.00  0.00    +0.000 A 
ATOM      4  O   UNL     1       1.887   5.525  19.650  0.00  0.00    +0.000 OA
ATOM      5  C   UNL     1       3.540   6.263  18.126  0.00  0.00    +0.000 A 
ATOM      6  C   UNL     1       4.426   5.164  17.828  0.00  0.00    +0.000 A 
ATOM      7  C   UNL     1       5.416   5.669  16.955  0.00  0.00    +0.000 A 
ATOM      8  N   UNL     1       5.139   7.026  16.782  0.00  0.00    +0.000 N 
ATOM      9  C   UNL     1       4.004   7.351  17.443  0.00  0.00    +0.000 A 
ATOM     10  N   UNL     1       3.399   8.549  17.480  0.00  0.00    +0.000 N 
ATOM     11  H   UNL     1       5.709   7.665  16.245  0.00  0.00    +0.000 HD
ATOM     12  H   UNL     1       3.707   9.384  16.990  0.00  0.00    +0.000 HD
ENDROOT
BRANCH   1  17
ATOM     13  C   UNL     1       1.638  13.492  18.407  0.00  0.00    +0.000 C 
ATOM     14  C   UNL     1       1.197  12.085  18.481  0.00  0.00    +0.000 A 
ATOM     15  C   UNL     1      -0.039  11.509  18.660  0.00  0.00    +0.000 A 
ATOM     16  C   UNL     1       0.163  10.118  18.606  0.00  0.00    +0.000 A 
ATOM     17  C   UNL     1       1.516   9.912  18.407  0.00  0.00    +0.000 A 
ATOM     18  O   UNL     1       2.160  11.121  18.337  0.00  0.00    +0.000 OA
ENDBRANCH   1  17
BRANCH   6  19
ATOM     19  C   UNL     1       4.306   3.774  18.302  0.00  0.00    +0.000 A 
ATOM     20  C   UNL     1       3.693   2.799  17.497  0.00  0.00    +0.000 A 
ATOM     21  C   UNL     1       3.467   1.499  17.966  0.00  0.00    +0.000 A 
ATOM     22  C   UNL     1       3.927   1.121  19.221  0.00  0.00    +0.000 A 
ATOM     23  C   UNL     1       4.575   2.056  20.018  0.00  0.00    +0.000 A 
ATOM     24  C   UNL     1       4.719   3.378  19.577  0.00  0.00    +0.000 A 
ENDBRANCH   6  19
BRANCH   7  25
ATOM     25  C   UNL     1       6.584   5.044  16.321  0.00  0.00    +0.000 C 
ATOM     26  O   UNL     1       7.661   4.838  16.874  0.00  0.00    +0.000 OA
BRANCH  25  27
ATOM     27  C   UNL     1       6.536   4.710  14.869  0.00  0.00    +0.000 A 
ATOM     28  C   UNL     1       7.520   5.156  13.979  0.00  0.00    +0.000 A 
ATOM     29  C   UNL     1       7.482   4.756  12.643  0.00  0.00    +0.000 A 
ATOM     30  C   UNL     1       6.446   3.939  12.186  0.00  0.00    +0.000 A 
ATOM     31  C   UNL     1       5.431   3.541  13.055  0.00  0.00    +0.000 A 
ATOM     32  C   UNL     1       5.473   3.927  14.394  0.00  0.00    +0.000 A 
ENDBRANCH  25  27
ENDBRANCH   7  25
TORSDOF 4
ENDMDL
MODEL 8
REMARK VINA RESULT:      -8.0      1.388      2.016
REMARK  Name = 
REMARK  5 active torsions:
REMARK  status: ('A' for Active; 'I' for Inactive)
REMARK    1  A    between atoms: C_1  and  C_2
REMARK    2  A    between atoms: C_5  and  C_6
REMARK    3  A    between atoms: C_11  and  C_12
REMARK    4  A    between atoms: C_18  and  C_19
REMARK    5  A    between atoms: C_19  and  C_21
REMARK                            x       y       z     vdW  Elec       q    Type
REMARK                         _______ _______ _______ _____ _____    ______ ____
ROOT
ATOM      1  C   UNL     1       1.246  10.262  19.050  0.00  0.00    +0.000 A 
ATOM      2  N   UNL     1       0.674   9.598  20.014  0.00  0.00    +0.000 NA
ATOM      3  C   UNL     1       0.917   8.254  20.224  0.00  0.00    +0.000 A 
ATOM      4  O   UNL     1       0.399   7.663  21.161  0.00  0.00    +0.000 OA
ATOM      5  C   UNL     1       1.826   7.605  19.274  0.00  0.00    +0.000 A 
ATOM      6  C   UNL     1       2.328   6.263  19.108  0.00  0.00    +0.000 A 
ATOM      7  C   UNL     1       3.207   6.295  18.002  0.00  0.00    +0.000 A 
ATOM      8  N   UNL     1       3.245   7.620  17.563  0.00  0.00    +0.000 N 
ATOM      9  C   UNL     1       2.392   8.371  18.294  0.00  0.00    +0.000 A 
ATOM     10  N   UNL     1       2.125   9.679  18.145  0.00  0.00    +0.000 N 
ATOM     11  H   UNL     1       3.830   7.960  16.811  0.00  0.00    +0.000 HD
ATOM     12  H   UNL     1       2.520  10.286  17.433  0.00  0.00    +0.000 HD
ENDROOT
BRANCH   1  17
ATOM     13  C   UNL     1       2.008  15.051  18.664  0.00  0.00    +0.000 C 
ATOM     14  C   UNL     1       1.184  13.840  18.842  0.00  0.00    +0.000 A 
ATOM     15  C   UNL     1      -0.172  13.653  18.981  0.00  0.00    +0.000 A 
ATOM     16  C   UNL     1      -0.370  12.264  19.079  0.00  0.00    +0.000 A 
ATOM     17  C   UNL     1       0.877  11.669  19.006  0.00  0.00    +0.000 A 
ATOM     18  O   UNL     1       1.839  12.637  18.867  0.00  0.00    +0.000 OA
ENDBRANCH   1  17
BRANCH   6  19
ATOM     19  C   UNL     1       1.969   5.077  19.904  0.00  0.00    +0.000 A 
ATOM     20  C   UNL     1       2.555   4.861  21.162  0.00  0.00    +0.000 A 
ATOM     21  C   UNL     1       2.317   3.689  21.890  0.00  0.00    +0.000 A 
ATOM     22  C   UNL     1       1.418   2.743  21.413  0.00  0.00    +0.000 A 
ATOM     23  C   UNL     1       0.793   2.954  20.190  0.00  0.00    +0.000 A 
ATOM     24  C   UNL     1       1.104   4.088  19.427  0.00  0.00    +0.000 A 
ENDBRANCH   6  19
BRANCH   7  25
ATOM     25  C   UNL     1       4.024   5.257  17.360  0.00  0.00    +0.000 C 
ATOM     26  O   UNL     1       3.604   4.422  16.564  0.00  0.00    +0.000 OA
BRANCH  25  27
ATOM     27  C   UNL     1       5.454   5.106  17.752  0.00  0.00    +0.000 A 
ATOM     28  C   UNL     1       6.405   4.574  16.873  0.00  0.00    +0.000 A 
ATOM     29  C   UNL     1       7.747   4.523  17.250  0.00  0.00    +0.000 A 
ATOM     30  C   UNL     1       8.138   4.971  18.513  0.00  0.00    +0.000 A 
ATOM     31  C   UNL     1       7.186   5.447  19.414  0.00  0.00    +0.000 A 
ATOM     32  C   UNL     1       5.845   5.512  19.037  0.00  0.00    +0.000 A 
ENDBRANCH  25  27
ENDBRANCH   7  25
TORSDOF 4
ENDMDL
MODEL 9
REMARK VINA RESULT:      -8.0      2.090      8.817
REMARK  Name = 
REMARK  5 active torsions:
REMARK  status: ('A' for Active; 'I' for Inactive)
REMARK    1  A    between atoms: C_1  and  C_2
REMARK    2  A    between atoms: C_5  and  C_6
REMARK    3  A    between atoms: C_11  and  C_12
REMARK    4  A    between atoms: C_18  and  C_19
REMARK    5  A    between atoms: C_19  and  C_21
REMARK                            x       y       z     vdW  Elec       q    Type
REMARK                         _______ _______ _______ _____ _____    ______ ____
ROOT
ATOM      1  C   UNL     1       2.621   6.717  18.976  0.00  0.00    +0.000 A 
ATOM      2  N   UNL     1       2.638   7.627  18.043  0.00  0.00    +0.000 NA
ATOM      3  C   UNL     1       2.111   8.889  18.239  0.00  0.00    +0.000 A 
ATOM      4  O   UNL     1       2.176   9.738  17.362  0.00  0.00    +0.000 OA
ATOM      5  C   UNL     1       1.493   9.135  19.545  0.00  0.00    +0.000 A 
ATOM      6  C   UNL     1       0.826  10.260  20.155  0.00  0.00    +0.000 A 
ATOM      7  C   UNL     1       0.482   9.864  21.467  0.00  0.00    +0.000 A 
ATOM      8  N   UNL     1       0.968   8.565  21.629  0.00  0.00    +0.000 N 
ATOM      9  C   UNL     1       1.522   8.133  20.474  0.00  0.00    +0.000 A 
ATOM     10  N   UNL     1       2.059   6.927  20.229  0.00  0.00    +0.000 N 
ATOM     11  H   UNL     1       0.914   8.034  22.489  0.00  0.00    +0.000 HD
ATOM     12  H   UNL     1       2.102   6.153  20.886  0.00  0.00    +0.000 HD
ENDROOT
BRANCH   1  17
ATOM     13  C   UNL     1       5.312   3.759  16.206  0.00  0.00    +0.000 C 
ATOM     14  C   UNL     1       4.445   4.093  17.352  0.00  0.00    +0.000 A 
ATOM     15  C   UNL     1       3.986   3.350  18.415  0.00  0.00    +0.000 A 
ATOM     16  C   UNL     1       3.221   4.226  19.207  0.00  0.00    +0.000 A 
ATOM     17  C   UNL     1       3.242   5.460  18.583  0.00  0.00    +0.000 A 
ATOM     18  O   UNL     1       3.988   5.382  17.435  0.00  0.00    +0.000 OA
ENDBRANCH   1  17
BRANCH   6  19
ATOM     19  C   UNL     1       0.521  11.557  19.527  0.00  0.00    +0.000 A 
ATOM     20  C   UNL     1       1.353  12.667  19.747  0.00  0.00    +0.000 A 
ATOM     21  C   UNL     1       1.027  13.937  19.254  0.00  0.00    +0.000 A 
ATOM     22  C   UNL     1      -0.096  14.106  18.455  0.00  0.00    +0.000 A 
ATOM     23  C   UNL     1      -0.911  13.013  18.186  0.00  0.00    +0.000 A 
ATOM     24  C   UNL     1      -0.627  11.766  18.756  0.00  0.00    +0.000 A 
ENDBRANCH   6  19
BRANCH   7  25
ATOM     25  C   UNL     1      -0.193  10.566  22.566  0.00  0.00    +0.000 C 
ATOM     26  O   UNL     1      -0.214  10.192  23.734  0.00  0.00    +0.000 OA
BRANCH  25  27
ATOM     27  C   UNL     1      -1.010  11.777  22.266  0.00  0.00    +0.000 A 
ATOM     28  C   UNL     1      -2.281  11.681  21.688  0.00  0.00    +0.000 A 
ATOM     29  C   UNL     1      -3.046  12.832  21.497  0.00  0.00    +0.000 A 
ATOM     30  C   UNL     1      -2.532  14.081  21.850  0.00  0.00    +0.000 A 
ATOM     31  C   UNL     1      -1.243  14.188  22.371  0.00  0.00    +0.000 A 
ATOM     32  C   UNL     1      -0.480  13.039  22.577  0.00  0.00    +0.000 A 
ENDBRANCH  25  27
ENDBRANCH   7  25
TORSDOF 4
ENDMDL
