MODEL 1
REMARK VINA RESULT:      -7.9      0.000      0.000
REMARK  Name = 
REMARK  6 active torsions:
REMARK  status: ('A' for Active; 'I' for Inactive)
REMARK    1  A    between atoms: C_5  and  C_6
REMARK    2  A    between atoms: C_6  and  C_7
REMARK    3  A    between atoms: C_7  and  C_8
REMARK    4  A    between atoms: C_8  and  N_9
REMARK    5  A    between atoms: N_9  and  C_10
REMARK    6  A    between atoms: C_10  and  C_11
REMARK                            x       y       z     vdW  Elec       q    Type
REMARK                         _______ _______ _______ _____ _____    ______ ____
ROOT
ATOM      1  C   UNL     1       2.714   5.977  18.469  0.00  0.00    +0.000 C 
ATOM      2  C   UNL     1       2.525   6.558  19.892  0.00  0.00    +0.000 C 
ATOM      3  C   UNL     1       2.403   5.498  20.980  0.00  0.00    +0.000 C 
ATOM      4  O   UNL     1       1.524   4.425  20.682  0.00  0.00    +0.000 OA
ATOM      5  C   UNL     1       1.540   3.840  19.384  0.00  0.00    +0.000 C 
ATOM      6  C   UNL     1       2.555   2.718  19.172  0.00  0.00    +0.000 C 
ATOM      7  C   UNL     1       1.780   1.575  18.522  0.00  0.00    +0.000 C 
ATOM      8  O   UNL     1       0.425   1.993  18.365  0.00  0.00    +0.000 OA
ATOM      9  C   UNL     1       0.219   3.055  19.292  0.00  0.00    +0.000 C 
ATOM     10  C   UNL     1       1.606   4.907  18.279  0.00  0.00    +0.000 C 
ENDROOT
BRANCH   1  15
ATOM     11  F   UNL     1       8.109   4.519  17.676  0.00  0.00    +0.000 F 
ATOM     12  C   UNL     1       6.812   4.771  17.859  0.00  0.00    +0.000 A 
ATOM     13  C   UNL     1       5.907   4.580  16.832  0.00  0.00    +0.000 A 
ATOM     14  C   UNL     1       4.568   4.897  17.040  0.00  0.00    +0.000 A 
ATOM     15  C   UNL     1       4.156   5.439  18.271  0.00  0.00    +0.000 A 
ATOM     16  N   UNL     1       5.044   5.587  19.288  0.00  0.00    +0.000 NA
ATOM     17  C   UNL     1       6.340   5.252  19.061  0.00  0.00    +0.000 A 
ENDBRANCH   1  15
BRANCH   1  18
ATOM     18  C   UNL     1       2.526   7.123  17.402  0.00  0.00    +0.000 C 
BRANCH  18  19
ATOM     19  C   UNL     1       2.749   8.563  17.893  0.00  0.00    +0.000 C 
BRANCH  19  20
ATOM     20  N   UNL     1       1.601   9.408  17.557  0.00  0.00    +0.000 NA
ATOM     21  H   UNL     1       0.988   8.924  16.902  0.00  0.00    +0.000 HD
BRANCH  20  22
ATOM     22  C   UNL     1       0.835   9.729  18.765  0.00  0.00    +0.000 C 
BRANCH  22  23
ATOM     23  C   UNL     1      -0.516  10.305  18.422  0.00  0.00    +0.000 A 
ATOM     24  C   UNL     1      -1.089  11.316  19.206  0.00  0.00    +0.000 A 
ATOM     25  C   UNL     1      -2.329  11.858  18.855  0.00  0.00    +0.000 A 
ATOM     26  C   UNL     1      -3.001  11.399  17.732  0.00  0.00    +0.000 A 
ATOM     27  C   UNL     1      -2.437  10.394  16.956  0.00  0.00    +0.000 A 
ATOM     28 CL   UNL     1      -3.272   9.816  15.561  0.00  0.00    +0.000 Cl
ATOM     29  C   UNL     1      -1.205   9.847  17.286  0.00  0.00    +0.000 A 
ENDBRANCH  22  23
ENDBRANCH  20  22
ENDBRANCH  19  20
ENDBRANCH  18  19
ENDBRANCH   1  18
TORSDOF 6
ENDMDL
MODEL 2
REMARK VINA RESULT:      -7.8      0.681      1.008
REMARK  Name = 
REMARK  6 active torsions:
REMARK  status: ('A' for Active; 'I' for Inactive)
REMARK    1  A    between atoms: C_5  and  C_6
REMARK    2  A    between atoms: C_6  and  C_7
REMARK    3  A    between atoms: C_7  and  C_8
REMARK    4  A    between atoms: C_8  and  N_9
REMARK    5  A    between atoms: N_9  and  C_10
REMARK    6  A    between atoms: C_10  and  C_11
REMARK                            x       y       z     vdW  Elec       q    Type
REMARK                         _______ _______ _______ _____ _____    ______ ____
ROOT
ATOM      1  C   UNL     1       2.672   6.125  18.497  0.00  0.00    +0.000 C 
ATOM      2  C   UNL     1       2.434   6.577  19.958  0.00  0.00    +0.000 C 
ATOM      3  C   UNL     1       2.440   5.433  20.966  0.00  0.00    +0.000 C 
ATOM      4  O   UNL     1       1.682   4.294  20.592  0.00  0.00    +0.000 OA
ATOM      5  C   UNL     1       1.751   3.811  19.254  0.00  0.00    +0.000 C 
ATOM      6  C   UNL     1       2.881   2.827  18.959  0.00  0.00    +0.000 C 
ATOM      7  C   UNL     1       2.232   1.655  18.228  0.00  0.00    +0.000 C 
ATOM      8  O   UNL     1       0.837   1.930  18.103  0.00  0.00    +0.000 OA
ATOM      9  C   UNL     1       0.524   2.892  19.106  0.00  0.00    +0.000 C 
ATOM     10  C   UNL     1       1.688   4.956  18.230  0.00  0.00    +0.000 C 
ENDROOT
BRANCH   1  15
ATOM     11  F   UNL     1       7.945   4.313  17.617  0.00  0.00    +0.000 F 
ATOM     12  C   UNL     1       6.735   4.828  17.842  0.00  0.00    +0.000 A 
ATOM     13  C   UNL     1       6.363   5.222  19.114  0.00  0.00    +0.000 A 
ATOM     14  C   UNL     1       5.079   5.711  19.325  0.00  0.00    +0.000 A 
ATOM     15  C   UNL     1       4.163   5.766  18.258  0.00  0.00    +0.000 A 
ATOM     16  N   UNL     1       4.547   5.414  17.004  0.00  0.00    +0.000 NA
ATOM     17  C   UNL     1       5.813   4.958  16.826  0.00  0.00    +0.000 A 
ENDBRANCH   1  15
BRANCH   1  18
ATOM     18  C   UNL     1       2.349   7.318  17.517  0.00  0.00    +0.000 C 
BRANCH  18  19
ATOM     19  C   UNL     1       2.201   8.710  18.154  0.00  0.00    +0.000 C 
BRANCH  19  20
ATOM     20  N   UNL     1       1.029   9.404  17.615  0.00  0.00    +0.000 NA
ATOM     21  H   UNL     1       0.400   8.737  17.170  0.00  0.00    +0.000 HD
BRANCH  20  22
ATOM     22  C   UNL     1       0.304  10.086  18.691  0.00  0.00    +0.000 C 
BRANCH  22  23
ATOM     23  C   UNL     1      -1.086  10.478  18.255  0.00  0.00    +0.000 A 
ATOM     24  C   UNL     1      -1.886  11.306  19.055  0.00  0.00    +0.000 A 
ATOM     25  C   UNL     1      -3.160  11.683  18.619  0.00  0.00    +0.000 A 
ATOM     26  C   UNL     1      -3.642  11.239  17.397  0.00  0.00    +0.000 A 
ATOM     27  C   UNL     1      -2.852  10.415  16.604  0.00  0.00    +0.000 A 
ATOM     28 CL   UNL     1      -3.449   9.857  15.085  0.00  0.00    +0.000 Cl
ATOM     29  C   UNL     1      -1.583  10.035  17.018  0.00  0.00    +0.000 A 
ENDBRANCH  22  23
ENDBRANCH  20  22
ENDBRANCH  19  20
ENDBRANCH  18  19
ENDBRANCH   1  18
TORSDOF 6
ENDMDL
MODEL 3
REMARK VINA RESULT:      -7.8      1.168      1.653
REMARK  Name = 
REMARK  6 active torsions:
REMARK  status: ('A' for Active; 'I' for Inactive)
REMARK    1  A    between atoms: C_5  and  C_6
REMARK    2  A    between atoms: C_6  and  C_7
REMARK    3  A    between atoms: C_7  and  C_8
REMARK    4  A    between atoms: C_8  and  N_9
REMARK    5  A    between atoms: N_9  and  C_10
REMARK    6  A    between atoms: C_10  and  C_11
REMARK                            x       y       z     vdW  Elec       q    Type
REMARK                         _______ _______ _______ _____ _____    ______ ____
ROOT
ATOM      1  C   UNL     1       2.798   6.178  18.439  0.00  0.00    +0.000 C 
ATOM      2  C   UNL     1       2.557   6.641  19.896  0.00  0.00    +0.000 C 
ATOM      3  C   UNL     1       2.543   5.504  20.911  0.00  0.00    +0.000 C 
ATOM      4  O   UNL     1       1.773   4.372  20.539  0.00  0.00    +0.000 OA
ATOM      5  C   UNL     1       1.844   3.879  19.204  0.00  0.00    +0.000 C 
ATOM      6  C   UNL     1       2.964   2.880  18.922  0.00  0.00    +0.000 C 
ATOM      7  C   UNL     1       2.305   1.712  18.195  0.00  0.00    +0.000 C 
ATOM      8  O   UNL     1       0.915   2.002  18.061  0.00  0.00    +0.000 OA
ATOM      9  C   UNL     1       0.607   2.974  19.056  0.00  0.00    +0.000 C 
ATOM     10  C   UNL     1       1.801   5.018  18.173  0.00  0.00    +0.000 C 
ENDROOT
BRANCH   1  15
ATOM     11  F   UNL     1       8.053   4.297  17.598  0.00  0.00    +0.000 F 
ATOM     12  C   UNL     1       6.849   4.828  17.814  0.00  0.00    +0.000 A 
ATOM     13  C   UNL     1       6.473   5.227  19.083  0.00  0.00    +0.000 A 
ATOM     14  C   UNL     1       5.193   5.732  19.284  0.00  0.00    +0.000 A 
ATOM     15  C   UNL     1       4.285   5.799  18.211  0.00  0.00    +0.000 A 
ATOM     16  N   UNL     1       4.674   5.441  16.960  0.00  0.00    +0.000 NA
ATOM     17  C   UNL     1       5.936   4.969  16.791  0.00  0.00    +0.000 A 
ENDBRANCH   1  15
BRANCH   1  18
ATOM     18  C   UNL     1       2.494   7.368  17.449  0.00  0.00    +0.000 C 
BRANCH  18  19
ATOM     19  C   UNL     1       2.364   8.766  18.076  0.00  0.00    +0.000 C 
BRANCH  19  20
ATOM     20  N   UNL     1       1.221   9.484  17.508  0.00  0.00    +0.000 NA
ATOM     21  H   UNL     1       0.550   8.823  17.118  0.00  0.00    +0.000 HD
BRANCH  20  22
ATOM     22  C   UNL     1       0.551  10.275  18.545  0.00  0.00    +0.000 C 
BRANCH  22  23
ATOM     23  C   UNL     1      -0.909  10.477  18.225  0.00  0.00    +0.000 A 
ATOM     24  C   UNL     1      -1.513   9.801  17.155  0.00  0.00    +0.000 A 
ATOM     25  C   UNL     1      -2.875   9.978  16.893  0.00  0.00    +0.000 A 
ATOM     26  C   UNL     1      -3.636  10.823  17.686  0.00  0.00    +0.000 A 
ATOM     27  C   UNL     1      -3.039  11.497  18.745  0.00  0.00    +0.000 A 
ATOM     28 CL   UNL     1      -3.981  12.553  19.731  0.00  0.00    +0.000 Cl
ATOM     29  C   UNL     1      -1.689  11.330  19.023  0.00  0.00    +0.000 A 
ENDBRANCH  22  23
ENDBRANCH  20  22
ENDBRANCH  19  20
ENDBRANCH  18  19
ENDBRANCH   1  18
TORSDOF 6
ENDMDL
MODEL 4
REMARK VINA RESULT:      -7.7      1.997      2.441
REMARK  Name = 
REMARK  6 active torsions:
REMARK  status: ('A' for Active; 'I' for Inactive)
REMARK    1  A    between atoms: C_5  and  C_6
REMARK    2  A    between atoms: C_6  and  C_7
REMARK    3  A    between atoms: C_7  and  C_8
REMARK    4  A    between atoms: C_8  and  N_9
REMARK    5  A    between atoms: N_9  and  C_10
REMARK    6  A    between atoms: C_10  and  C_11
REMARK                            x       y       z     vdW  Elec       q    Type
REMARK                         _______ _______ _______ _____ _____    ______ ____
ROOT
ATOM      1  C   UNL     1       2.694   6.155  18.494  0.00  0.00    +0.000 C 
ATOM      2  C   UNL     1       2.464   6.607  19.956  0.00  0.00    +0.000 C 
ATOM      3  C   UNL     1       2.463   5.463  20.963  0.00  0.00    +0.000 C 
ATOM      4  O   UNL     1       1.694   4.331  20.590  0.00  0.00    +0.000 OA
ATOM      5  C   UNL     1       1.754   3.847  19.252  0.00  0.00    +0.000 C 
ATOM      6  C   UNL     1       2.875   2.854  18.953  0.00  0.00    +0.000 C 
ATOM      7  C   UNL     1       2.213   1.689  18.223  0.00  0.00    +0.000 C 
ATOM      8  O   UNL     1       0.821   1.976  18.103  0.00  0.00    +0.000 OA
ATOM      9  C   UNL     1       0.519   2.940  19.108  0.00  0.00    +0.000 C 
ATOM     10  C   UNL     1       1.698   4.994  18.229  0.00  0.00    +0.000 C 
ENDROOT
BRANCH   1  15
ATOM     11  F   UNL     1       7.949   4.296  17.606  0.00  0.00    +0.000 F 
ATOM     12  C   UNL     1       6.744   4.822  17.831  0.00  0.00    +0.000 A 
ATOM     13  C   UNL     1       6.384   5.240  19.099  0.00  0.00    +0.000 A 
ATOM     14  C   UNL     1       5.104   5.740  19.310  0.00  0.00    +0.000 A 
ATOM     15  C   UNL     1       4.180   5.783  18.250  0.00  0.00    +0.000 A 
ATOM     16  N   UNL     1       4.553   5.406  17.000  0.00  0.00    +0.000 NA
ATOM     17  C   UNL     1       5.815   4.939  16.820  0.00  0.00    +0.000 A 
ENDBRANCH   1  15
BRANCH   1  18
ATOM     18  C   UNL     1       2.377   7.350  17.515  0.00  0.00    +0.000 C 
BRANCH  18  19
ATOM     19  C   UNL     1       2.552   8.768  18.085  0.00  0.00    +0.000 C 
BRANCH  19  20
ATOM     20  N   UNL     1       1.625   9.703  17.441  0.00  0.00    +0.000 NA
ATOM     21  H   UNL     1       1.552   9.494  16.445  0.00  0.00    +0.000 HD
BRANCH  20  22
ATOM     22  C   UNL     1       0.293   9.592  18.042  0.00  0.00    +0.000 C 
BRANCH  22  23
ATOM     23  C   UNL     1       0.186  10.420  19.299  0.00  0.00    +0.000 A 
ATOM     24  C   UNL     1       0.321  11.815  19.257  0.00  0.00    +0.000 A 
ATOM     25  C   UNL     1       0.188  12.567  20.427  0.00  0.00    +0.000 A 
ATOM     26  C   UNL     1      -0.076  11.942  21.636  0.00  0.00    +0.000 A 
ATOM     27  C   UNL     1      -0.206  10.558  21.681  0.00  0.00    +0.000 A 
ATOM     28 CL   UNL     1      -0.528   9.774  23.183  0.00  0.00    +0.000 Cl
ATOM     29  C   UNL     1      -0.082   9.796  20.528  0.00  0.00    +0.000 A 
ENDBRANCH  22  23
ENDBRANCH  20  22
ENDBRANCH  19  20
ENDBRANCH  18  19
ENDBRANCH   1  18
TORSDOF 6
ENDMDL
MODEL 5
REMARK VINA RESULT:      -7.7      2.231      2.796
REMARK  Name = 
REMARK  6 active torsions:
REMARK  status: ('A' for Active; 'I' for Inactive)
REMARK    1  A    between atoms: C_5  and  C_6
REMARK    2  A    between atoms: C_6  and  C_7
REMARK    3  A    between atoms: C_7  and  C_8
REMARK    4  A    between atoms: C_8  and  N_9
REMARK    5  A    between atoms: N_9  and  C_10
REMARK    6  A    between atoms: C_10  and  C_11
REMARK                            x       y       z     vdW  Elec       q    Type
REMARK                         _______ _______ _______ _____ _____    ______ ____
ROOT
ATOM      1  C   UNL     1       2.704   6.146  18.493  0.00  0.00    +0.000 C 
ATOM      2  C   UNL     1       2.498   6.591  19.961  0.00  0.00    +0.000 C 
ATOM      3  C   UNL     1       2.517   5.442  20.963  0.00  0.00    +0.000 C 
ATOM      4  O   UNL     1       1.743   4.310  20.598  0.00  0.00    +0.000 OA
ATOM      5  C   UNL     1       1.782   3.833  19.256  0.00  0.00    +0.000 C 
ATOM      6  C   UNL     1       2.899   2.843  18.933  0.00  0.00    +0.000 C 
ATOM      7  C   UNL     1       2.227   1.680  18.209  0.00  0.00    +0.000 C 
ATOM      8  O   UNL     1       0.832   1.965  18.115  0.00  0.00    +0.000 OA
ATOM      9  C   UNL     1       0.546   2.924  19.129  0.00  0.00    +0.000 C 
ATOM     10  C   UNL     1       1.706   4.984  18.240  0.00  0.00    +0.000 C 
ENDROOT
BRANCH   1  15
ATOM     11  F   UNL     1       7.952   4.301  17.537  0.00  0.00    +0.000 F 
ATOM     12  C   UNL     1       6.748   4.825  17.773  0.00  0.00    +0.000 A 
ATOM     13  C   UNL     1       6.422   5.302  19.029  0.00  0.00    +0.000 A 
ATOM     14  C   UNL     1       5.143   5.799  19.254  0.00  0.00    +0.000 A 
ATOM     15  C   UNL     1       4.187   5.778  18.222  0.00  0.00    +0.000 A 
ATOM     16  N   UNL     1       4.526   5.343  16.982  0.00  0.00    +0.000 NA
ATOM     17  C   UNL     1       5.788   4.881  16.786  0.00  0.00    +0.000 A 
ENDBRANCH   1  15
BRANCH   1  18
ATOM     18  C   UNL     1       2.369   7.346  17.526  0.00  0.00    +0.000 C 
BRANCH  18  19
ATOM     19  C   UNL     1       2.338   8.748  18.156  0.00  0.00    +0.000 C 
BRANCH  19  20
ATOM     20  N   UNL     1       0.960   9.226  18.291  0.00  0.00    +0.000 NA
ATOM     21  H   UNL     1       0.416   8.571  18.852  0.00  0.00    +0.000 HD
BRANCH  20  22
ATOM     22  C   UNL     1       0.939  10.536  18.947  0.00  0.00    +0.000 C 
BRANCH  22  23
ATOM     23  C   UNL     1       0.340  10.449  20.329  0.00  0.00    +0.000 A 
ATOM     24  C   UNL     1       0.197   9.214  20.977  0.00  0.00    +0.000 A 
ATOM     25  C   UNL     1      -0.332   9.158  22.270  0.00  0.00    +0.000 A 
ATOM     26  C   UNL     1      -0.721  10.320  22.919  0.00  0.00    +0.000 A 
ATOM     27  C   UNL     1      -0.583  11.545  22.277  0.00  0.00    +0.000 A 
ATOM     28 CL   UNL     1      -1.069  12.993  23.079  0.00  0.00    +0.000 Cl
ATOM     29  C   UNL     1      -0.056  11.621  20.996  0.00  0.00    +0.000 A 
ENDBRANCH  22  23
ENDBRANCH  20  22
ENDBRANCH  19  20
ENDBRANCH  18  19
ENDBRANCH   1  18
TORSDOF 6
ENDMDL
MODEL 6
REMARK VINA RESULT:      -7.7      1.016      1.057
REMARK  Name = 
REMARK  6 active torsions:
REMARK  status: ('A' for Active; 'I' for Inactive)
REMARK    1  A    between atoms: C_5  and  C_6
REMARK    2  A    between atoms: C_6  and  C_7
REMARK    3  A    between atoms: C_7  and  C_8
REMARK    4  A    between atoms: C_8  and  N_9
REMARK    5  A    between atoms: N_9  and  C_10
REMARK    6  A    between atoms: C_10  and  C_11
REMARK                            x       y       z     vdW  Elec       q    Type
REMARK                         _______ _______ _______ _____ _____    ______ ____
ROOT
ATOM      1  C   UNL     1       2.574   6.259  18.655  0.00  0.00    +0.000 C 
ATOM      2  C   UNL     1       2.249   6.478  20.153  0.00  0.00    +0.000 C 
ATOM      3  C   UNL     1       2.408   5.228  21.009  0.00  0.00    +0.000 C 
ATOM      4  O   UNL     1       1.832   4.049  20.468  0.00  0.00    +0.000 OA
ATOM      5  C   UNL     1       1.994   3.757  19.083  0.00  0.00    +0.000 C 
ATOM      6  C   UNL     1       3.262   2.993  18.707  0.00  0.00    +0.000 C 
ATOM      7  C   UNL     1       2.805   1.845  17.813  0.00  0.00    +0.000 C 
ATOM      8  O   UNL     1       1.387   1.928  17.675  0.00  0.00    +0.000 OA
ATOM      9  C   UNL     1       0.919   2.697  18.779  0.00  0.00    +0.000 C 
ATOM     10  C   UNL     1       1.779   5.003  18.209  0.00  0.00    +0.000 C 
ENDROOT
BRANCH   1  15
ATOM     11  F   UNL     1       8.197   6.274  18.160  0.00  0.00    +0.000 F 
ATOM     12  C   UNL     1       6.865   6.210  18.203  0.00  0.00    +0.000 A 
ATOM     13  C   UNL     1       6.101   6.776  17.200  0.00  0.00    +0.000 A 
ATOM     14  C   UNL     1       4.714   6.734  17.298  0.00  0.00    +0.000 A 
ATOM     15  C   UNL     1       4.105   6.153  18.425  0.00  0.00    +0.000 A 
ATOM     16  N   UNL     1       4.862   5.566  19.387  0.00  0.00    +0.000 NA
ATOM     17  C   UNL     1       6.213   5.606  19.256  0.00  0.00    +0.000 A 
ENDBRANCH   1  15
BRANCH   1  18
ATOM     18  C   UNL     1       2.094   7.508  17.822  0.00  0.00    +0.000 C 
BRANCH  18  19
ATOM     19  C   UNL     1       1.725   8.768  18.623  0.00  0.00    +0.000 C 
BRANCH  19  20
ATOM     20  N   UNL     1       0.821   9.626  17.853  0.00  0.00    +0.000 NA
ATOM     21  H   UNL     1       0.171   9.055  17.313  0.00  0.00    +0.000 HD
BRANCH  20  22
ATOM     22  C   UNL     1       0.050  10.488  18.753  0.00  0.00    +0.000 C 
BRANCH  22  23
ATOM     23  C   UNL     1      -1.344  10.725  18.227  0.00  0.00    +0.000 A 
ATOM     24  C   UNL     1      -2.285  11.445  18.977  0.00  0.00    +0.000 A 
ATOM     25  C   UNL     1      -3.562  11.680  18.459  0.00  0.00    +0.000 A 
ATOM     26  C   UNL     1      -3.908  11.203  17.204  0.00  0.00    +0.000 A 
ATOM     27  C   UNL     1      -2.978  10.487  16.460  0.00  0.00    +0.000 A 
ATOM     28 CL   UNL     1      -3.405   9.887  14.900  0.00  0.00    +0.000 Cl
ATOM     29  C   UNL     1      -1.704  10.248  16.956  0.00  0.00    +0.000 A 
ENDBRANCH  22  23
ENDBRANCH  20  22
ENDBRANCH  19  20
ENDBRANCH  18  19
ENDBRANCH   1  18
TORSDOF 6
ENDMDL
MODEL 7
REMARK VINA RESULT:      -7.6      3.156      4.872
REMARK  Name = 
REMARK  6 active torsions:
REMARK  status: ('A' for Active; 'I' for Inactive)
REMARK    1  A    between atoms: C_5  and  C_6
REMARK    2  A    between atoms: C_6  and  C_7
REMARK    3  A    between atoms: C_7  and  C_8
REMARK    4  A    between atoms: C_8  and  N_9
REMARK    5  A    between atoms: N_9  and  C_10
REMARK    6  A    between atoms: C_10  and  C_11
REMARK                            x       y       z     vdW  Elec       q    Type
REMARK                         _______ _______ _______ _____ _____    ______ ____
ROOT
ATOM      1  C   UNL     1       3.547   5.547  17.890  0.00  0.00    +0.000 C 
ATOM      2  C   UNL     1       3.576   4.725  16.579  0.00  0.00    +0.000 C 
ATOM      3  C   UNL     1       4.856   3.922  16.382  0.00  0.00    +0.000 C 
ATOM      4  O   UNL     1       6.059   4.631  16.635  0.00  0.00    +0.000 OA
ATOM      5  C   UNL     1       6.148   5.484  17.773  0.00  0.00    +0.000 C 
ATOM      6  C   UNL     1       6.580   4.813  19.075  0.00  0.00    +0.000 C 
ATOM      7  C   UNL     1       7.687   5.693  19.648  0.00  0.00    +0.000 C 
ATOM      8  O   UNL     1       7.887   6.789  18.756  0.00  0.00    +0.000 OA
ATOM      9  C   UNL     1       7.367   6.382  17.494  0.00  0.00    +0.000 C 
ATOM     10  C   UNL     1       4.882   6.338  17.945  0.00  0.00    +0.000 C 
ENDROOT
BRANCH   1  15
ATOM     11  F   UNL     1       2.209   2.066  22.128  0.00  0.00    +0.000 F 
ATOM     12  C   UNL     1       2.595   2.924  21.181  0.00  0.00    +0.000 A 
ATOM     13  C   UNL     1       2.401   4.283  21.342  0.00  0.00    +0.000 A 
ATOM     14  C   UNL     1       2.771   5.147  20.316  0.00  0.00    +0.000 A 
ATOM     15  C   UNL     1       3.303   4.632  19.120  0.00  0.00    +0.000 A 
ATOM     16  N   UNL     1       3.526   3.300  18.985  0.00  0.00    +0.000 NA
ATOM     17  C   UNL     1       3.171   2.483  20.010  0.00  0.00    +0.000 A 
ENDBRANCH   1  15
BRANCH   1  18
ATOM     18  C   UNL     1       2.338   6.559  17.853  0.00  0.00    +0.000 C 
BRANCH  18  19
ATOM     19  C   UNL     1       2.693   8.047  17.690  0.00  0.00    +0.000 C 
BRANCH  19  20
ATOM     20  N   UNL     1       1.866   8.876  18.571  0.00  0.00    +0.000 NA
ATOM     21  H   UNL     1       0.927   8.970  18.184  0.00  0.00    +0.000 HD
BRANCH  20  22
ATOM     22  C   UNL     1       1.767   8.264  19.899  0.00  0.00    +0.000 C 
BRANCH  22  23
ATOM     23  C   UNL     1       0.892   9.082  20.817  0.00  0.00    +0.000 A 
ATOM     24  C   UNL     1       0.856   8.825  22.195  0.00  0.00    +0.000 A 
ATOM     25  C   UNL     1       0.062   9.613  23.033  0.00  0.00    +0.000 A 
ATOM     26  C   UNL     1      -0.695  10.651  22.510  0.00  0.00    +0.000 A 
ATOM     27  C   UNL     1      -0.662  10.904  21.144  0.00  0.00    +0.000 A 
ATOM     28 CL   UNL     1      -1.606  12.191  20.487  0.00  0.00    +0.000 Cl
ATOM     29  C   UNL     1       0.123  10.136  20.297  0.00  0.00    +0.000 A 
ENDBRANCH  22  23
ENDBRANCH  20  22
ENDBRANCH  19  20
ENDBRANCH  18  19
ENDBRANCH   1  18
TORSDOF 6
ENDMDL
MODEL 8
REMARK VINA RESULT:      -7.6      3.795      7.193
REMARK  Name = 
REMARK  6 active torsions:
REMARK  status: ('A' for Active; 'I' for Inactive)
REMARK    1  A    between atoms: C_5  and  C_6
REMARK    2  A    between atoms: C_6  and  C_7
REMARK    3  A    between atoms: C_7  and  C_8
REMARK    4  A    between atoms: C_8  and  N_9
REMARK    5  A    between atoms: N_9  and  C_10
REMARK    6  A    between atoms: C_10  and  C_11
REMARK                            x       y       z     vdW  Elec       q    Type
REMARK                         _______ _______ _______ _____ _____    ______ ____
ROOT
ATOM      1  C   UNL     1       4.207   5.097  18.531  0.00  0.00    +0.000 C 
ATOM      2  C   UNL     1       3.898   4.443  17.163  0.00  0.00    +0.000 C 
ATOM      3  C   UNL     1       2.571   3.695  17.122  0.00  0.00    +0.000 C 
ATOM      4  O   UNL     1       2.324   2.842  18.229  0.00  0.00    +0.000 OA
ATOM      5  C   UNL     1       2.629   3.291  19.546  0.00  0.00    +0.000 C 
ATOM      6  C   UNL     1       1.531   4.086  20.250  0.00  0.00    +0.000 C 
ATOM      7  C   UNL     1       1.390   3.460  21.635  0.00  0.00    +0.000 C 
ATOM      8  O   UNL     1       2.328   2.389  21.734  0.00  0.00    +0.000 OA
ATOM      9  C   UNL     1       2.651   2.010  20.400  0.00  0.00    +0.000 C 
ATOM     10  C   UNL     1       3.994   3.997  19.605  0.00  0.00    +0.000 C 
ENDROOT
BRANCH   1  15
ATOM     11  F   UNL     1       0.660   9.414  19.332  0.00  0.00    +0.000 F 
ATOM     12  C   UNL     1       1.568   8.458  19.126  0.00  0.00    +0.000 A 
ATOM     13  C   UNL     1       2.083   8.237  17.862  0.00  0.00    +0.000 A 
ATOM     14  C   UNL     1       2.991   7.202  17.672  0.00  0.00    +0.000 A 
ATOM     15  C   UNL     1       3.348   6.370  18.749  0.00  0.00    +0.000 A 
ATOM     16  N   UNL     1       2.868   6.617  19.995  0.00  0.00    +0.000 NA
ATOM     17  C   UNL     1       1.996   7.646  20.154  0.00  0.00    +0.000 A 
ENDBRANCH   1  15
BRANCH   1  18
ATOM     18  C   UNL     1       5.710   5.574  18.561  0.00  0.00    +0.000 C 
BRANCH  18  19
ATOM     19  C   UNL     1       6.194   6.396  17.354  0.00  0.00    +0.000 C 
BRANCH  19  20
ATOM     20  N   UNL     1       7.321   5.734  16.694  0.00  0.00    +0.000 NA
ATOM     21  H   UNL     1       8.068   5.561  17.367  0.00  0.00    +0.000 HD
BRANCH  20  22
ATOM     22  C   UNL     1       6.896   4.452  16.126  0.00  0.00    +0.000 C 
BRANCH  22  23
ATOM     23  C   UNL     1       6.958   4.471  14.618  0.00  0.00    +0.000 A 
ATOM     24  C   UNL     1       7.814   5.352  13.943  0.00  0.00    +0.000 A 
ATOM     25  C   UNL     1       7.880   5.334  12.547  0.00  0.00    +0.000 A 
ATOM     26  C   UNL     1       7.099   4.448  11.821  0.00  0.00    +0.000 A 
ATOM     27  C   UNL     1       6.247   3.576  12.488  0.00  0.00    +0.000 A 
ATOM     28 CL   UNL     1       5.270   2.474  11.589  0.00  0.00    +0.000 Cl
ATOM     29  C   UNL     1       6.172   3.576  13.874  0.00  0.00    +0.000 A 
ENDBRANCH  22  23
ENDBRANCH  20  22
ENDBRANCH  19  20
ENDBRANCH  18  19
ENDBRANCH   1  18
TORSDOF 6
ENDMDL
MODEL 9
REMARK VINA RESULT:      -7.5      2.756      4.506
REMARK  Name = 
REMARK  6 active torsions:
REMARK  status: ('A' for Active; 'I' for Inactive)
REMARK    1  A    between atoms: C_5  and  C_6
REMARK    2  A    between atoms: C_6  and  C_7
REMARK    3  A    between atoms: C_7  and  C_8
REMARK    4  A    between atoms: C_8  and  N_9
REMARK    5  A    between atoms: N_9  and  C_10
REMARK    6  A    between atoms: C_10  and  C_11
REMARK                            x       y       z     vdW  Elec       q    Type
REMARK                         _______ _______ _______ _____ _____    ______ ____
ROOT
ATOM      1  C   UNL     1       3.607   5.550  17.844  0.00  0.00    +0.000 C 
ATOM      2  C   UNL     1       3.655   4.696  16.554  0.00  0.00    +0.000 C 
ATOM      3  C   UNL     1       4.927   3.870  16.406  0.00  0.00    +0.000 C 
ATOM      4  O   UNL     1       6.134   4.568  16.671  0.00  0.00    +0.000 OA
ATOM      5  C   UNL     1       6.209   5.446  17.790  0.00  0.00    +0.000 C 
ATOM      6  C   UNL     1       6.600   4.801  19.118  0.00  0.00    +0.000 C 
ATOM      7  C   UNL     1       7.706   5.679  19.696  0.00  0.00    +0.000 C 
ATOM      8  O   UNL     1       7.944   6.749  18.783  0.00  0.00    +0.000 OA
ATOM      9  C   UNL     1       7.447   6.320  17.519  0.00  0.00    +0.000 C 
ATOM     10  C   UNL     1       4.952   6.323  17.912  0.00  0.00    +0.000 C 
ENDROOT
BRANCH   1  15
ATOM     11  F   UNL     1       2.131   2.171  22.118  0.00  0.00    +0.000 F 
ATOM     12  C   UNL     1       2.546   3.008  21.166  0.00  0.00    +0.000 A 
ATOM     13  C   UNL     1       2.310   4.366  21.270  0.00  0.00    +0.000 A 
ATOM     14  C   UNL     1       2.713   5.206  20.238  0.00  0.00    +0.000 A 
ATOM     15  C   UNL     1       3.320   4.668  19.088  0.00  0.00    +0.000 A 
ATOM     16  N   UNL     1       3.583   3.339  19.010  0.00  0.00    +0.000 NA
ATOM     17  C   UNL     1       3.194   2.546  20.041  0.00  0.00    +0.000 A 
ENDBRANCH   1  15
BRANCH   1  18
ATOM     18  C   UNL     1       2.415   6.578  17.754  0.00  0.00    +0.000 C 
BRANCH  18  19
ATOM     19  C   UNL     1       2.771   8.062  17.945  0.00  0.00    +0.000 C 
BRANCH  19  20
ATOM     20  N   UNL     1       1.663   8.920  17.519  0.00  0.00    +0.000 NA
ATOM     21  H   UNL     1       0.859   8.350  17.257  0.00  0.00    +0.000 HD
BRANCH  20  22
ATOM     22  C   UNL     1       1.267   9.817  18.608  0.00  0.00    +0.000 C 
BRANCH  22  23
ATOM     23  C   UNL     1      -0.160  10.279  18.448  0.00  0.00    +0.000 A 
ATOM     24  C   UNL     1      -0.998   9.710  17.479  0.00  0.00    +0.000 A 
ATOM     25  C   UNL     1      -2.326  10.131  17.366  0.00  0.00    +0.000 A 
ATOM     26  C   UNL     1      -2.823  11.114  18.208  0.00  0.00    +0.000 A 
ATOM     27  C   UNL     1      -1.993  11.683  19.167  0.00  0.00    +0.000 A 
ATOM     28 CL   UNL     1      -2.605  12.911  20.213  0.00  0.00    +0.000 Cl
ATOM     29  C   UNL     1      -0.673  11.274  19.296  0.00  0.00    +0.000 A 
ENDBRANCH  22  23
ENDBRANCH  20  22
ENDBRANCH  19  20
ENDBRANCH  18  19
ENDBRANCH   1  18
TORSDOF 6
ENDMDL
