MODEL 1
REMARK VINA RESULT:      -7.3      0.000      0.000
REMARK  Name = 
REMARK  4 active torsions:
REMARK  status: ('A' for Active; 'I' for Inactive)
REMARK    1  A    between atoms: C_1  and  C_2
REMARK    2  A    between atoms: N_4  and  C_5
REMARK    3  A    between atoms: C_8  and  C_9
REMARK    4  A    between atoms: C_9  and  O_10
REMARK                            x       y       z     vdW  Elec       q    Type
REMARK                         _______ _______ _______ _____ _____    ______ ____
ROOT
ATOM      1  C   UNL     1       5.436   4.124  13.828  0.00  0.00    +0.000 C 
ATOM      2  C   UNL     1       5.857   4.323  15.247  0.00  0.00    +0.000 A 
ATOM      3  C   UNL     1       5.146   3.934  16.312  0.00  0.00    +0.000 A 
ATOM      4  N   UNL     1       5.578   4.134  17.612  0.00  0.00    +0.000 N 
ATOM      5  C   UNL     1       6.800   4.746  17.877  0.00  0.00    +0.000 A 
ATOM      6  O   UNL     1       7.240   4.942  19.008  0.00  0.00    +0.000 OA
ATOM      7  N   UNL     1       7.519   5.143  16.786  0.00  0.00    +0.000 N 
ATOM      8  C   UNL     1       7.160   4.987  15.480  0.00  0.00    +0.000 A 
ATOM      9  O   UNL     1       7.868   5.374  14.558  0.00  0.00    +0.000 OA
ATOM     10  H   UNL     1       8.409   5.581  16.965  0.00  0.00    +0.000 HD
ENDROOT
BRANCH   4  11
ATOM     11  C   UNL     1       4.741   3.650  18.737  0.00  0.00    +0.000 C 
ATOM     12  C   UNL     1       3.961   2.372  18.401  0.00  0.00    +0.000 C 
ATOM     13  S   UNL     1       2.522   2.330  19.512  0.00  0.00    +0.000 S 
ATOM     14  C   UNL     1       2.796   3.998  20.204  0.00  0.00    +0.000 C 
ATOM     15  C   UNL     1       3.730   4.695  19.228  0.00  0.00    +0.000 C 
ATOM     16  F   UNL     1       4.403   5.678  19.895  0.00  0.00    +0.000 F 
BRANCH  14  17
ATOM     17  C   UNL     1       1.490   4.767  20.388  0.00  0.00    +0.000 C 
BRANCH  17  18
ATOM     18  O   UNL     1       0.373   3.883  20.343  0.00  0.00    +0.000 OA
ATOM     19  H   UNL     1       0.625   3.082  20.841  0.00  0.00    +0.000 HD
ENDBRANCH  17  18
ENDBRANCH  14  17
ENDBRANCH   4  11
TORSDOF 3
ENDMDL
MODEL 2
REMARK VINA RESULT:      -7.1      1.477      1.522
REMARK  Name = 
REMARK  4 active torsions:
REMARK  status: ('A' for Active; 'I' for Inactive)
REMARK    1  A    between atoms: C_1  and  C_2
REMARK    2  A    between atoms: N_4  and  C_5
REMARK    3  A    between atoms: C_8  and  C_9
REMARK    4  A    between atoms: C_9  and  O_10
REMARK                            x       y       z     vdW  Elec       q    Type
REMARK                         _______ _______ _______ _____ _____    ______ ____
ROOT
ATOM      1  C   UNL     1       5.609   3.773  13.599  0.00  0.00    +0.000 C 
ATOM      2  C   UNL     1       5.851   4.390  14.937  0.00  0.00    +0.000 A 
ATOM      3  C   UNL     1       5.068   4.214  16.008  0.00  0.00    +0.000 A 
ATOM      4  N   UNL     1       5.334   4.803  17.233  0.00  0.00    +0.000 N 
ATOM      5  C   UNL     1       6.456   5.607  17.415  0.00  0.00    +0.000 A 
ATOM      6  O   UNL     1       6.748   6.148  18.479  0.00  0.00    +0.000 OA
ATOM      7  N   UNL     1       7.248   5.785  16.318  0.00  0.00    +0.000 N 
ATOM      8  C   UNL     1       7.051   5.245  15.081  0.00  0.00    +0.000 A 
ATOM      9  O   UNL     1       7.816   5.458  14.147  0.00  0.00    +0.000 OA
ATOM     10  H   UNL     1       8.067   6.360  16.439  0.00  0.00    +0.000 HD
ENDROOT
BRANCH   4  11
ATOM     11  C   UNL     1       4.429   4.536  18.377  0.00  0.00    +0.000 C 
ATOM     12  C   UNL     1       4.909   3.384  19.269  0.00  0.00    +0.000 C 
ATOM     13  S   UNL     1       3.438   2.729  20.116  0.00  0.00    +0.000 S 
ATOM     14  C   UNL     1       2.241   3.742  19.179  0.00  0.00    +0.000 C 
ATOM     15  C   UNL     1       2.989   4.220  17.945  0.00  0.00    +0.000 C 
ATOM     16  F   UNL     1       2.404   5.369  17.497  0.00  0.00    +0.000 F 
BRANCH  14  17
ATOM     17  C   UNL     1       0.985   2.957  18.812  0.00  0.00    +0.000 C 
BRANCH  17  18
ATOM     18  O   UNL     1       1.301   1.592  18.552  0.00  0.00    +0.000 OA
ATOM     19  H   UNL     1       1.942   1.584  17.816  0.00  0.00    +0.000 HD
ENDBRANCH  17  18
ENDBRANCH  14  17
ENDBRANCH   4  11
TORSDOF 3
ENDMDL
MODEL 3
REMARK VINA RESULT:      -6.8      1.954      2.230
REMARK  Name = 
REMARK  4 active torsions:
REMARK  status: ('A' for Active; 'I' for Inactive)
REMARK    1  A    between atoms: C_1  and  C_2
REMARK    2  A    between atoms: N_4  and  C_5
REMARK    3  A    between atoms: C_8  and  C_9
REMARK    4  A    between atoms: C_9  and  O_10
REMARK                            x       y       z     vdW  Elec       q    Type
REMARK                         _______ _______ _______ _____ _____    ______ ____
ROOT
ATOM      1  C   UNL     1       5.707   4.395  14.400  0.00  0.00    +0.000 C 
ATOM      2  C   UNL     1       5.594   4.429  15.888  0.00  0.00    +0.000 A 
ATOM      3  C   UNL     1       4.439   4.466  16.562  0.00  0.00    +0.000 A 
ATOM      4  N   UNL     1       4.381   4.491  17.945  0.00  0.00    +0.000 N 
ATOM      5  C   UNL     1       5.542   4.462  18.714  0.00  0.00    +0.000 A 
ATOM      6  O   UNL     1       5.554   4.472  19.943  0.00  0.00    +0.000 OA
ATOM      7  N   UNL     1       6.718   4.427  18.020  0.00  0.00    +0.000 N 
ATOM      8  C   UNL     1       6.856   4.405  16.663  0.00  0.00    +0.000 A 
ATOM      9  O   UNL     1       7.954   4.374  16.120  0.00  0.00    +0.000 OA
ATOM     10  H   UNL     1       7.565   4.398  18.565  0.00  0.00    +0.000 HD
ENDROOT
BRANCH   4  11
ATOM     11  C   UNL     1       3.058   4.506  18.616  0.00  0.00    +0.000 C 
ATOM     12  C   UNL     1       2.812   5.780  19.435  0.00  0.00    +0.000 C 
ATOM     13  S   UNL     1       1.579   5.355  20.703  0.00  0.00    +0.000 S 
ATOM     14  C   UNL     1       1.568   3.566  20.335  0.00  0.00    +0.000 C 
ATOM     15  C   UNL     1       2.842   3.305  19.547  0.00  0.00    +0.000 C 
ATOM     16  F   UNL     1       2.662   2.186  18.786  0.00  0.00    +0.000 F 
BRANCH  14  17
ATOM     17  C   UNL     1       1.499   2.717  21.601  0.00  0.00    +0.000 C 
BRANCH  17  18
ATOM     18  O   UNL     1       2.808   2.373  22.049  0.00  0.00    +0.000 OA
ATOM     19  H   UNL     1       2.980   1.460  21.747  0.00  0.00    +0.000 HD
ENDBRANCH  17  18
ENDBRANCH  14  17
ENDBRANCH   4  11
TORSDOF 3
ENDMDL
MODEL 4
REMARK VINA RESULT:      -6.8      2.267      3.138
REMARK  Name = 
REMARK  4 active torsions:
REMARK  status: ('A' for Active; 'I' for Inactive)
REMARK    1  A    between atoms: C_1  and  C_2
REMARK    2  A    between atoms: N_4  and  C_5
REMARK    3  A    between atoms: C_8  and  C_9
REMARK    4  A    between atoms: C_9  and  O_10
REMARK                            x       y       z     vdW  Elec       q    Type
REMARK                         _______ _______ _______ _____ _____    ______ ____
ROOT
ATOM      1  C   UNL     1       7.910   5.776  19.198  0.00  0.00    +0.000 C 
ATOM      2  C   UNL     1       6.752   5.154  18.490  0.00  0.00    +0.000 A 
ATOM      3  C   UNL     1       5.496   5.138  18.955  0.00  0.00    +0.000 A 
ATOM      4  N   UNL     1       4.450   4.554  18.261  0.00  0.00    +0.000 N 
ATOM      5  C   UNL     1       4.655   3.959  17.019  0.00  0.00    +0.000 A 
ATOM      6  O   UNL     1       3.765   3.433  16.353  0.00  0.00    +0.000 OA
ATOM      7  N   UNL     1       5.938   3.976  16.552  0.00  0.00    +0.000 N 
ATOM      8  C   UNL     1       7.019   4.525  17.176  0.00  0.00    +0.000 A 
ATOM      9  O   UNL     1       8.141   4.497  16.684  0.00  0.00    +0.000 OA
ATOM     10  H   UNL     1       6.097   3.554  15.650  0.00  0.00    +0.000 HD
ENDROOT
BRANCH   4  11
ATOM     11  C   UNL     1       3.084   4.601  18.836  0.00  0.00    +0.000 C 
ATOM     12  C   UNL     1       2.822   5.865  19.666  0.00  0.00    +0.000 C 
ATOM     13  S   UNL     1       1.488   5.458  20.833  0.00  0.00    +0.000 S 
ATOM     14  C   UNL     1       1.443   3.678  20.421  0.00  0.00    +0.000 C 
ATOM     15  C   UNL     1       2.760   3.389  19.721  0.00  0.00    +0.000 C 
ATOM     16  F   UNL     1       2.598   2.294  18.922  0.00  0.00    +0.000 F 
BRANCH  14  17
ATOM     17  C   UNL     1       1.254   2.806  21.659  0.00  0.00    +0.000 C 
BRANCH  17  18
ATOM     18  O   UNL     1       2.513   2.480  22.243  0.00  0.00    +0.000 OA
ATOM     19  H   UNL     1       2.910   1.780  21.690  0.00  0.00    +0.000 HD
ENDBRANCH  17  18
ENDBRANCH  14  17
ENDBRANCH   4  11
TORSDOF 3
ENDMDL
MODEL 5
REMARK VINA RESULT:      -6.6      2.618      5.984
REMARK  Name = 
REMARK  4 active torsions:
REMARK  status: ('A' for Active; 'I' for Inactive)
REMARK    1  A    between atoms: C_1  and  C_2
REMARK    2  A    between atoms: N_4  and  C_5
REMARK    3  A    between atoms: C_8  and  C_9
REMARK    4  A    between atoms: C_9  and  O_10
REMARK                            x       y       z     vdW  Elec       q    Type
REMARK                         _______ _______ _______ _____ _____    ______ ____
ROOT
ATOM      1  C   UNL     1       1.357   5.679  20.814  0.00  0.00    +0.000 C 
ATOM      2  C   UNL     1       2.399   4.641  20.557  0.00  0.00    +0.000 A 
ATOM      3  C   UNL     1       3.449   4.803  19.742  0.00  0.00    +0.000 A 
ATOM      4  N   UNL     1       4.395   3.814  19.537  0.00  0.00    +0.000 N 
ATOM      5  C   UNL     1       4.307   2.588  20.191  0.00  0.00    +0.000 A 
ATOM      6  O   UNL     1       5.120   1.676  20.057  0.00  0.00    +0.000 OA
ATOM      7  N   UNL     1       3.232   2.427  21.018  0.00  0.00    +0.000 N 
ATOM      8  C   UNL     1       2.259   3.350  21.268  0.00  0.00    +0.000 A 
ATOM      9  O   UNL     1       1.325   3.123  22.028  0.00  0.00    +0.000 OA
ATOM     10  H   UNL     1       3.161   1.547  21.503  0.00  0.00    +0.000 HD
ENDROOT
BRANCH   4  11
ATOM     11  C   UNL     1       5.543   4.084  18.637  0.00  0.00    +0.000 C 
ATOM     12  C   UNL     1       6.319   5.352  19.015  0.00  0.00    +0.000 C 
ATOM     13  S   UNL     1       7.157   5.922  17.504  0.00  0.00    +0.000 S 
ATOM     14  C   UNL     1       6.348   4.714  16.398  0.00  0.00    +0.000 C 
ATOM     15  C   UNL     1       5.134   4.211  17.163  0.00  0.00    +0.000 C 
ATOM     16  F   UNL     1       4.803   2.973  16.691  0.00  0.00    +0.000 F 
BRANCH  14  17
ATOM     17  C   UNL     1       5.959   5.330  15.057  0.00  0.00    +0.000 C 
BRANCH  17  18
ATOM     18  O   UNL     1       7.091   5.422  14.197  0.00  0.00    +0.000 OA
ATOM     19  H   UNL     1       6.777   5.801  13.354  0.00  0.00    +0.000 HD
ENDBRANCH  17  18
ENDBRANCH  14  17
ENDBRANCH   4  11
TORSDOF 3
ENDMDL
MODEL 6
REMARK VINA RESULT:      -6.4      1.945      2.096
REMARK  Name = 
REMARK  4 active torsions:
REMARK  status: ('A' for Active; 'I' for Inactive)
REMARK    1  A    between atoms: C_1  and  C_2
REMARK    2  A    between atoms: N_4  and  C_5
REMARK    3  A    between atoms: C_8  and  C_9
REMARK    4  A    between atoms: C_9  and  O_10
REMARK                            x       y       z     vdW  Elec       q    Type
REMARK                         _______ _______ _______ _____ _____    ______ ____
ROOT
ATOM      1  C   UNL     1       6.392   4.211  14.395  0.00  0.00    +0.000 C 
ATOM      2  C   UNL     1       5.835   4.511  15.747  0.00  0.00    +0.000 A 
ATOM      3  C   UNL     1       4.795   3.874  16.299  0.00  0.00    +0.000 A 
ATOM      4  N   UNL     1       4.314   4.182  17.560  0.00  0.00    +0.000 N 
ATOM      5  C   UNL     1       4.910   5.175  18.334  0.00  0.00    +0.000 A 
ATOM      6  O   UNL     1       4.534   5.486  19.462  0.00  0.00    +0.000 OA
ATOM      7  N   UNL     1       5.968   5.822  17.764  0.00  0.00    +0.000 N 
ATOM      8  C   UNL     1       6.495   5.580  16.530  0.00  0.00    +0.000 A 
ATOM      9  O   UNL     1       7.451   6.211  16.094  0.00  0.00    +0.000 OA
ATOM     10  H   UNL     1       6.412   6.538  18.317  0.00  0.00    +0.000 HD
ENDROOT
BRANCH   4  11
ATOM     11  C   UNL     1       3.171   3.411  18.108  0.00  0.00    +0.000 C 
ATOM     12  C   UNL     1       1.852   4.194  18.091  0.00  0.00    +0.000 C 
ATOM     13  S   UNL     1       0.796   3.466  19.381  0.00  0.00    +0.000 S 
ATOM     14  C   UNL     1       2.089   2.368  20.057  0.00  0.00    +0.000 C 
ATOM     15  C   UNL     1       3.407   2.928  19.546  0.00  0.00    +0.000 C 
ATOM     16  F   UNL     1       4.330   1.922  19.526  0.00  0.00    +0.000 F 
BRANCH  14  17
ATOM     17  C   UNL     1       2.053   2.305  21.582  0.00  0.00    +0.000 C 
BRANCH  17  18
ATOM     18  O   UNL     1       2.296   3.591  22.146  0.00  0.00    +0.000 OA
ATOM     19  H   UNL     1       1.668   4.208  21.725  0.00  0.00    +0.000 HD
ENDBRANCH  17  18
ENDBRANCH  14  17
ENDBRANCH   4  11
TORSDOF 3
ENDMDL
MODEL 7
REMARK VINA RESULT:      -6.3      1.710      1.854
REMARK  Name = 
REMARK  4 active torsions:
REMARK  status: ('A' for Active; 'I' for Inactive)
REMARK    1  A    between atoms: C_1  and  C_2
REMARK    2  A    between atoms: N_4  and  C_5
REMARK    3  A    between atoms: C_8  and  C_9
REMARK    4  A    between atoms: C_9  and  O_10
REMARK                            x       y       z     vdW  Elec       q    Type
REMARK                         _______ _______ _______ _____ _____    ______ ____
ROOT
ATOM      1  C   UNL     1       5.259   3.552  12.649  0.00  0.00    +0.000 C 
ATOM      2  C   UNL     1       5.842   4.135  13.893  0.00  0.00    +0.000 A 
ATOM      3  C   UNL     1       5.284   4.051  15.107  0.00  0.00    +0.000 A 
ATOM      4  N   UNL     1       5.863   4.603  16.236  0.00  0.00    +0.000 N 
ATOM      5  C   UNL     1       7.084   5.270  16.165  0.00  0.00    +0.000 A 
ATOM      6  O   UNL     1       7.651   5.771  17.133  0.00  0.00    +0.000 OA
ATOM      7  N   UNL     1       7.647   5.355  14.924  0.00  0.00    +0.000 N 
ATOM      8  C   UNL     1       7.137   4.843  13.767  0.00  0.00    +0.000 A 
ATOM      9  O   UNL     1       7.710   4.965  12.691  0.00  0.00    +0.000 OA
ATOM     10  H   UNL     1       8.534   5.829  14.861  0.00  0.00    +0.000 HD
ENDROOT
BRANCH   4  11
ATOM     11  C   UNL     1       5.191   4.442  17.549  0.00  0.00    +0.000 C 
ATOM     12  C   UNL     1       4.345   3.166  17.640  0.00  0.00    +0.000 C 
ATOM     13  S   UNL     1       3.083   3.465  18.916  0.00  0.00    +0.000 S 
ATOM     14  C   UNL     1       3.489   5.231  19.142  0.00  0.00    +0.000 C 
ATOM     15  C   UNL     1       4.284   5.628  17.908  0.00  0.00    +0.000 C 
ATOM     16  F   UNL     1       5.067   6.701  18.221  0.00  0.00    +0.000 F 
BRANCH  14  17
ATOM     17  C   UNL     1       2.240   6.092  19.313  0.00  0.00    +0.000 C 
BRANCH  17  18
ATOM     18  O   UNL     1       2.408   7.018  20.384  0.00  0.00    +0.000 OA
ATOM     19  H   UNL     1       1.521   7.355  20.609  0.00  0.00    +0.000 HD
ENDBRANCH  17  18
ENDBRANCH  14  17
ENDBRANCH   4  11
TORSDOF 3
ENDMDL
MODEL 8
REMARK VINA RESULT:      -6.3      2.678      3.187
REMARK  Name = 
REMARK  4 active torsions:
REMARK  status: ('A' for Active; 'I' for Inactive)
REMARK    1  A    between atoms: C_1  and  C_2
REMARK    2  A    between atoms: N_4  and  C_5
REMARK    3  A    between atoms: C_8  and  C_9
REMARK    4  A    between atoms: C_9  and  O_10
REMARK                            x       y       z     vdW  Elec       q    Type
REMARK                         _______ _______ _______ _____ _____    ______ ____
ROOT
ATOM      1  C   UNL     1       7.661   4.445  17.729  0.00  0.00    +0.000 C 
ATOM      2  C   UNL     1       6.449   5.313  17.654  0.00  0.00    +0.000 A 
ATOM      3  C   UNL     1       5.231   4.957  18.083  0.00  0.00    +0.000 A 
ATOM      4  N   UNL     1       4.135   5.798  17.999  0.00  0.00    +0.000 N 
ATOM      5  C   UNL     1       4.251   7.081  17.469  0.00  0.00    +0.000 A 
ATOM      6  O   UNL     1       3.317   7.874  17.378  0.00  0.00    +0.000 OA
ATOM      7  N   UNL     1       5.494   7.436  17.031  0.00  0.00    +0.000 N 
ATOM      8  C   UNL     1       6.619   6.665  17.075  0.00  0.00    +0.000 A 
ATOM      9  O   UNL     1       7.700   7.064  16.659  0.00  0.00    +0.000 OA
ATOM     10  H   UNL     1       5.593   8.365  16.652  0.00  0.00    +0.000 HD
ENDROOT
BRANCH   4  11
ATOM     11  C   UNL     1       2.825   5.335  18.520  0.00  0.00    +0.000 C 
ATOM     12  C   UNL     1       2.704   5.466  20.044  0.00  0.00    +0.000 C 
ATOM     13  S   UNL     1       1.451   4.258  20.574  0.00  0.00    +0.000 S 
ATOM     14  C   UNL     1       1.275   3.469  18.936  0.00  0.00    +0.000 C 
ATOM     15  C   UNL     1       2.512   3.878  18.152  0.00  0.00    +0.000 C 
ATOM     16  F   UNL     1       2.224   3.815  16.819  0.00  0.00    +0.000 F 
BRANCH  14  17
ATOM     17  C   UNL     1       1.144   1.952  19.038  0.00  0.00    +0.000 C 
BRANCH  17  18
ATOM     18  O   UNL     1       2.346   1.312  18.616  0.00  0.00    +0.000 OA
ATOM     19  H   UNL     1       2.407   1.433  17.650  0.00  0.00    +0.000 HD
ENDBRANCH  17  18
ENDBRANCH  14  17
ENDBRANCH   4  11
TORSDOF 3
ENDMDL
MODEL 9
REMARK VINA RESULT:      -6.2      3.139      5.772
REMARK  Name = 
REMARK  4 active torsions:
REMARK  status: ('A' for Active; 'I' for Inactive)
REMARK    1  A    between atoms: C_1  and  C_2
REMARK    2  A    between atoms: N_4  and  C_5
REMARK    3  A    between atoms: C_8  and  C_9
REMARK    4  A    between atoms: C_9  and  O_10
REMARK                            x       y       z     vdW  Elec       q    Type
REMARK                         _______ _______ _______ _____ _____    ______ ____
ROOT
ATOM      1  C   UNL     1       2.229   9.089  17.778  0.00  0.00    +0.000 C 
ATOM      2  C   UNL     1       2.610   7.816  18.459  0.00  0.00    +0.000 A 
ATOM      3  C   UNL     1       3.528   6.955  18.002  0.00  0.00    +0.000 A 
ATOM      4  N   UNL     1       3.854   5.787  18.670  0.00  0.00    +0.000 N 
ATOM      5  C   UNL     1       3.244   5.455  19.877  0.00  0.00    +0.000 A 
ATOM      6  O   UNL     1       3.499   4.438  20.519  0.00  0.00    +0.000 OA
ATOM      7  N   UNL     1       2.307   6.335  20.335  0.00  0.00    +0.000 N 
ATOM      8  C   UNL     1       1.928   7.500  19.735  0.00  0.00    +0.000 A 
ATOM      9  O   UNL     1       1.075   8.236  20.217  0.00  0.00    +0.000 OA
ATOM     10  H   UNL     1       1.863   6.109  21.211  0.00  0.00    +0.000 HD
ENDROOT
BRANCH   4  11
ATOM     11  C   UNL     1       4.902   4.900  18.108  0.00  0.00    +0.000 C 
ATOM     12  C   UNL     1       6.320   5.290  18.544  0.00  0.00    +0.000 C 
ATOM     13  S   UNL     1       7.453   4.640  17.279  0.00  0.00    +0.000 S 
ATOM     14  C   UNL     1       6.136   4.102  16.134  0.00  0.00    +0.000 C 
ATOM     15  C   UNL     1       4.885   4.846  16.574  0.00  0.00    +0.000 C 
ATOM     16  F   UNL     1       3.791   4.136  16.172  0.00  0.00    +0.000 F 
BRANCH  14  17
ATOM     17  C   UNL     1       6.485   4.392  14.676  0.00  0.00    +0.000 C 
BRANCH  17  18
ATOM     18  O   UNL     1       7.585   5.295  14.591  0.00  0.00    +0.000 OA
ATOM     19  H   UNL     1       7.283   6.061  14.069  0.00  0.00    +0.000 HD
ENDBRANCH  17  18
ENDBRANCH  14  17
ENDBRANCH   4  11
TORSDOF 3
ENDMDL
