MODEL 1
REMARK VINA RESULT:      -6.6      0.000      0.000
REMARK  Name = 
REMARK  4 active torsions:
REMARK  status: ('A' for Active; 'I' for Inactive)
REMARK    1  A    between atoms: C_2  and  O_3
REMARK    2  A    between atoms: C_2  and  C_4
REMARK    3  A    between atoms: C_6  and  C_7
REMARK    4  A    between atoms: C_8  and  C_9
REMARK                            x       y       z     vdW  Elec       q    Type
REMARK                         _______ _______ _______ _____ _____    ______ ____
ROOT
ATOM      1  C   UNL     1       4.909   4.416  15.944  0.00  0.00    +0.000 C 
ATOM      2  C   UNL     1       4.356   4.158  16.984  0.00  0.00    +0.000 C 
ENDROOT
BRANCH   2   3
ATOM      3  C   UNL     1       3.638   3.854  18.187  0.00  0.00    +0.000 A 
ATOM      4  C   UNL     1       4.232   3.092  19.197  0.00  0.00    +0.000 A 
ATOM      5  C   UNL     1       3.489   2.717  20.323  0.00  0.00    +0.000 A 
ATOM      6  C   UNL     1       2.158   3.113  20.439  0.00  0.00    +0.000 A 
ATOM      7 CL   UNL     1       1.224   2.595  21.789  0.00  0.00    +0.000 Cl
ATOM      8  C   UNL     1       1.574   3.913  19.459  0.00  0.00    +0.000 A 
ATOM      9  C   UNL     1       2.314   4.283  18.332  0.00  0.00    +0.000 A 
ENDBRANCH   2   3
BRANCH   1  12
ATOM     10  C   UNL     1       6.313   3.687  13.959  0.00  0.00    +0.000 C 
ATOM     11  C   UNL     1       7.035   4.838  14.613  0.00  0.00    +0.000 C 
ATOM     12  C   UNL     1       5.535   4.760  14.696  0.00  0.00    +0.000 C 
BRANCH  10  14
ATOM     13  O   UNL     1       5.359   3.051  11.875  0.00  0.00    +0.000 OA
ATOM     14  C   UNL     1       6.259   3.612  12.477  0.00  0.00    +0.000 C 
BRANCH  14  15
ATOM     15  O   UNL     1       7.275   4.257  11.859  0.00  0.00    +0.000 OA
ATOM     16  H   UNL     1       8.126   3.784  11.894  0.00  0.00    +0.000 HD
ENDBRANCH  14  15
ENDBRANCH  10  14
ENDBRANCH   1  12
TORSDOF 4
ENDMDL
MODEL 2
REMARK VINA RESULT:      -6.5      7.507      8.744
REMARK  Name = 
REMARK  4 active torsions:
REMARK  status: ('A' for Active; 'I' for Inactive)
REMARK    1  A    between atoms: C_2  and  O_3
REMARK    2  A    between atoms: C_2  and  C_4
REMARK    3  A    between atoms: C_6  and  C_7
REMARK    4  A    between atoms: C_8  and  C_9
REMARK                            x       y       z     vdW  Elec       q    Type
REMARK                         _______ _______ _______ _____ _____    ______ ____
ROOT
ATOM      1  C   UNL     1       8.058   8.330  17.784  0.00  0.00    +0.000 C 
ATOM      2  C   UNL     1       8.489   9.376  18.204  0.00  0.00    +0.000 C 
ENDROOT
BRANCH   2   3
ATOM      3  C   UNL     1       9.052  10.583  18.733  0.00  0.00    +0.000 A 
ATOM      4  C   UNL     1       9.140  11.733  17.943  0.00  0.00    +0.000 A 
ATOM      5  C   UNL     1       9.782  12.875  18.436  0.00  0.00    +0.000 A 
ATOM      6  C   UNL     1      10.323  12.868  19.720  0.00  0.00    +0.000 A 
ATOM      7 CL   UNL     1      11.172  14.248  20.300  0.00  0.00    +0.000 Cl
ATOM      8  C   UNL     1      10.197  11.742  20.530  0.00  0.00    +0.000 A 
ATOM      9  C   UNL     1       9.561  10.599  20.036  0.00  0.00    +0.000 A 
ENDBRANCH   2   3
BRANCH   1  12
ATOM     10  C   UNL     1       6.051   6.841  17.338  0.00  0.00    +0.000 C 
ATOM     11  C   UNL     1       6.935   6.111  18.318  0.00  0.00    +0.000 C 
ATOM     12  C   UNL     1       7.552   7.064  17.329  0.00  0.00    +0.000 C 
BRANCH  10  14
ATOM     13  O   UNL     1       5.129   4.896  16.325  0.00  0.00    +0.000 OA
ATOM     14  C   UNL     1       5.405   6.081  16.238  0.00  0.00    +0.000 C 
BRANCH  14  15
ATOM     15  O   UNL     1       5.116   6.832  15.150  0.00  0.00    +0.000 OA
ATOM     16  H   UNL     1       5.870   6.969  14.549  0.00  0.00    +0.000 HD
ENDBRANCH  14  15
ENDBRANCH  10  14
ENDBRANCH   1  12
TORSDOF 4
ENDMDL
MODEL 3
REMARK VINA RESULT:      -6.4      0.290      1.275
REMARK  Name = 
REMARK  4 active torsions:
REMARK  status: ('A' for Active; 'I' for Inactive)
REMARK    1  A    between atoms: C_2  and  O_3
REMARK    2  A    between atoms: C_2  and  C_4
REMARK    3  A    between atoms: C_6  and  C_7
REMARK    4  A    between atoms: C_8  and  C_9
REMARK                            x       y       z     vdW  Elec       q    Type
REMARK                         _______ _______ _______ _____ _____    ______ ____
ROOT
ATOM      1  C   UNL     1       4.720   4.409  15.916  0.00  0.00    +0.000 C 
ATOM      2  C   UNL     1       4.083   4.053  16.877  0.00  0.00    +0.000 C 
ENDROOT
BRANCH   2   3
ATOM      3  C   UNL     1       3.386   3.619  18.051  0.00  0.00    +0.000 A 
ATOM      4  C   UNL     1       2.018   3.866  18.199  0.00  0.00    +0.000 A 
ATOM      5  C   UNL     1       1.369   3.528  19.393  0.00  0.00    +0.000 A 
ATOM      6  C   UNL     1       2.087   2.934  20.429  0.00  0.00    +0.000 A 
ATOM      7 CL   UNL     1       1.305   2.581  21.921  0.00  0.00    +0.000 Cl
ATOM      8  C   UNL     1       3.439   2.642  20.271  0.00  0.00    +0.000 A 
ATOM      9  C   UNL     1       4.089   2.985  19.081  0.00  0.00    +0.000 A 
ENDBRANCH   2   3
BRANCH   1  12
ATOM     10  C   UNL     1       6.297   3.721  14.050  0.00  0.00    +0.000 C 
ATOM     11  C   UNL     1       7.011   4.765  14.871  0.00  0.00    +0.000 C 
ATOM     12  C   UNL     1       5.509   4.794  14.777  0.00  0.00    +0.000 C 
BRANCH  10  14
ATOM     13  O   UNL     1       5.628   3.187  11.830  0.00  0.00    +0.000 OA
ATOM     14  C   UNL     1       6.413   3.757  12.570  0.00  0.00    +0.000 C 
BRANCH  14  15
ATOM     15  O   UNL     1       7.443   4.510  12.120  0.00  0.00    +0.000 OA
ATOM     16  H   UNL     1       7.170   5.291  11.605  0.00  0.00    +0.000 HD
ENDBRANCH  14  15
ENDBRANCH  10  14
ENDBRANCH   1  12
TORSDOF 4
ENDMDL
MODEL 4
REMARK VINA RESULT:      -6.4      7.473      8.637
REMARK  Name = 
REMARK  4 active torsions:
REMARK  status: ('A' for Active; 'I' for Inactive)
REMARK    1  A    between atoms: C_2  and  O_3
REMARK    2  A    between atoms: C_2  and  C_4
REMARK    3  A    between atoms: C_6  and  C_7
REMARK    4  A    between atoms: C_8  and  C_9
REMARK                            x       y       z     vdW  Elec       q    Type
REMARK                         _______ _______ _______ _____ _____    ______ ____
ROOT
ATOM      1  C   UNL     1       8.024   8.313  17.793  0.00  0.00    +0.000 C 
ATOM      2  C   UNL     1       8.490   9.333  18.238  0.00  0.00    +0.000 C 
ENDROOT
BRANCH   2   3
ATOM      3  C   UNL     1       9.105  10.527  18.739  0.00  0.00    +0.000 A 
ATOM      4  C   UNL     1       9.637  10.565  20.031  0.00  0.00    +0.000 A 
ATOM      5  C   UNL     1      10.144  11.764  20.546  0.00  0.00    +0.000 A 
ATOM      6  C   UNL     1      10.128  12.917  19.764  0.00  0.00    +0.000 A 
ATOM      7 CL   UNL     1      10.688  14.406  20.421  0.00  0.00    +0.000 Cl
ATOM      8  C   UNL     1       9.643  12.875  18.459  0.00  0.00    +0.000 A 
ATOM      9  C   UNL     1       9.131  11.679  17.947  0.00  0.00    +0.000 A 
ENDBRANCH   2   3
BRANCH   1  12
ATOM     10  C   UNL     1       6.014   6.824  17.362  0.00  0.00    +0.000 C 
ATOM     11  C   UNL     1       6.965   6.043  18.233  0.00  0.00    +0.000 C 
ATOM     12  C   UNL     1       7.508   7.073  17.280  0.00  0.00    +0.000 C 
BRANCH  10  14
ATOM     13  O   UNL     1       4.910   4.983  16.336  0.00  0.00    +0.000 OA
ATOM     14  C   UNL     1       5.313   6.131  16.251  0.00  0.00    +0.000 C 
BRANCH  14  15
ATOM     15  O   UNL     1       5.127   6.903  15.156  0.00  0.00    +0.000 OA
ATOM     16  H   UNL     1       5.948   7.284  14.794  0.00  0.00    +0.000 HD
ENDBRANCH  14  15
ENDBRANCH  10  14
ENDBRANCH   1  12
TORSDOF 4
ENDMDL
MODEL 5
REMARK VINA RESULT:      -6.4      0.760      1.172
REMARK  Name = 
REMARK  4 active torsions:
REMARK  status: ('A' for Active; 'I' for Inactive)
REMARK    1  A    between atoms: C_2  and  O_3
REMARK    2  A    between atoms: C_2  and  C_4
REMARK    3  A    between atoms: C_6  and  C_7
REMARK    4  A    between atoms: C_8  and  C_9
REMARK                            x       y       z     vdW  Elec       q    Type
REMARK                         _______ _______ _______ _____ _____    ______ ____
ROOT
ATOM      1  C   UNL     1       4.817   4.416  15.827  0.00  0.00    +0.000 C 
ATOM      2  C   UNL     1       4.226   4.093  16.828  0.00  0.00    +0.000 C 
ENDROOT
BRANCH   2   3
ATOM      3  C   UNL     1       3.584   3.706  18.049  0.00  0.00    +0.000 A 
ATOM      4  C   UNL     1       2.988   2.448  18.173  0.00  0.00    +0.000 A 
ATOM      5  C   UNL     1       2.277   2.119  19.333  0.00  0.00    +0.000 A 
ATOM      6  C   UNL     1       2.175   3.044  20.371  0.00  0.00    +0.000 A 
ATOM      7 CL   UNL     1       1.245   2.666  21.768  0.00  0.00    +0.000 Cl
ATOM      8  C   UNL     1       2.807   4.282  20.274  0.00  0.00    +0.000 A 
ATOM      9  C   UNL     1       3.512   4.613  19.112  0.00  0.00    +0.000 A 
ENDBRANCH   2   3
BRANCH   1  12
ATOM     10  C   UNL     1       6.438   3.709  14.006  0.00  0.00    +0.000 C 
ATOM     11  C   UNL     1       7.053   4.891  14.712  0.00  0.00    +0.000 C 
ATOM     12  C   UNL     1       5.555   4.766  14.644  0.00  0.00    +0.000 C 
BRANCH  10  14
ATOM     13  O   UNL     1       7.209   4.384  11.859  0.00  0.00    +0.000 OA
ATOM     14  C   UNL     1       6.537   3.616  12.527  0.00  0.00    +0.000 C 
BRANCH  14  15
ATOM     15  O   UNL     1       5.847   2.579  11.997  0.00  0.00    +0.000 OA
ATOM     16  H   UNL     1       6.323   1.729  12.025  0.00  0.00    +0.000 HD
ENDBRANCH  14  15
ENDBRANCH  10  14
ENDBRANCH   1  12
TORSDOF 4
ENDMDL
MODEL 6
REMARK VINA RESULT:      -6.3      6.897      7.987
REMARK  Name = 
REMARK  4 active torsions:
REMARK  status: ('A' for Active; 'I' for Inactive)
REMARK    1  A    between atoms: C_2  and  O_3
REMARK    2  A    between atoms: C_2  and  C_4
REMARK    3  A    between atoms: C_6  and  C_7
REMARK    4  A    between atoms: C_8  and  C_9
REMARK                            x       y       z     vdW  Elec       q    Type
REMARK                         _______ _______ _______ _____ _____    ______ ____
ROOT
ATOM      1  C   UNL     1       8.581   9.591  18.223  0.00  0.00    +0.000 C 
ATOM      2  C   UNL     1       8.024   8.543  18.010  0.00  0.00    +0.000 C 
ENDROOT
BRANCH   2   3
ATOM      3  C   UNL     1       7.313   7.332  17.724  0.00  0.00    +0.000 A 
ATOM      4  C   UNL     1       7.778   6.104  18.202  0.00  0.00    +0.000 A 
ATOM      5  C   UNL     1       7.133   4.917  17.833  0.00  0.00    +0.000 A 
ATOM      6  C   UNL     1       6.019   4.964  16.997  0.00  0.00    +0.000 A 
ATOM      7 CL   UNL     1       5.267   3.501  16.488  0.00  0.00    +0.000 Cl
ATOM      8  C   UNL     1       5.521   6.188  16.556  0.00  0.00    +0.000 A 
ATOM      9  C   UNL     1       6.169   7.372  16.920  0.00  0.00    +0.000 A 
ENDBRANCH   2   3
BRANCH   1  12
ATOM     10  C   UNL     1      10.608  10.873  19.056  0.00  0.00    +0.000 C 
ATOM     11  C   UNL     1       9.438  11.288  19.912  0.00  0.00    +0.000 C 
ATOM     12  C   UNL     1       9.201  10.861  18.489  0.00  0.00    +0.000 C 
BRANCH  10  14
ATOM     13  O   UNL     1      11.892  12.861  19.295  0.00  0.00    +0.000 OA
ATOM     14  C   UNL     1      11.582  11.900  18.610  0.00  0.00    +0.000 C 
BRANCH  14  15
ATOM     15  O   UNL     1      12.122  11.652  17.394  0.00  0.00    +0.000 OA
ATOM     16  H   UNL     1      11.836  12.270  16.698  0.00  0.00    +0.000 HD
ENDBRANCH  14  15
ENDBRANCH  10  14
ENDBRANCH   1  12
TORSDOF 4
ENDMDL
MODEL 7
REMARK VINA RESULT:      -6.2      6.854      7.999
REMARK  Name = 
REMARK  4 active torsions:
REMARK  status: ('A' for Active; 'I' for Inactive)
REMARK    1  A    between atoms: C_2  and  O_3
REMARK    2  A    between atoms: C_2  and  C_4
REMARK    3  A    between atoms: C_6  and  C_7
REMARK    4  A    between atoms: C_8  and  C_9
REMARK                            x       y       z     vdW  Elec       q    Type
REMARK                         _______ _______ _______ _____ _____    ______ ____
ROOT
ATOM      1  C   UNL     1       8.616   9.781  18.191  0.00  0.00    +0.000 C 
ATOM      2  C   UNL     1       8.095   8.716  17.969  0.00  0.00    +0.000 C 
ENDROOT
BRANCH   2   3
ATOM      3  C   UNL     1       7.421   7.473  17.738  0.00  0.00    +0.000 A 
ATOM      4  C   UNL     1       6.336   7.404  16.859  0.00  0.00    +0.000 A 
ATOM      5  C   UNL     1       5.623   6.208  16.717  0.00  0.00    +0.000 A 
ATOM      6  C   UNL     1       6.002   5.082  17.446  0.00  0.00    +0.000 A 
ATOM      7 CL   UNL     1       5.084   3.631  17.324  0.00  0.00    +0.000 Cl
ATOM      8  C   UNL     1       7.111   5.131  18.288  0.00  0.00    +0.000 A 
ATOM      9  C   UNL     1       7.820   6.327  18.434  0.00  0.00    +0.000 A 
ENDBRANCH   2   3
BRANCH   1  12
ATOM     10  C   UNL     1      10.661  11.281  18.093  0.00  0.00    +0.000 C 
ATOM     11  C   UNL     1      10.300  11.120  19.548  0.00  0.00    +0.000 C 
ATOM     12  C   UNL     1       9.219  11.048  18.503  0.00  0.00    +0.000 C 
BRANCH  10  14
ATOM     13  O   UNL     1      10.821  13.653  18.174  0.00  0.00    +0.000 OA
ATOM     14  C   UNL     1      11.088  12.613  17.595  0.00  0.00    +0.000 C 
BRANCH  14  15
ATOM     15  O   UNL     1      11.832  12.563  16.465  0.00  0.00    +0.000 OA
ATOM     16  H   UNL     1      12.331  13.379  16.282  0.00  0.00    +0.000 HD
ENDBRANCH  14  15
ENDBRANCH  10  14
ENDBRANCH   1  12
TORSDOF 4
ENDMDL
MODEL 8
REMARK VINA RESULT:      -6.1      7.684      9.018
REMARK  Name = 
REMARK  4 active torsions:
REMARK  status: ('A' for Active; 'I' for Inactive)
REMARK    1  A    between atoms: C_2  and  O_3
REMARK    2  A    between atoms: C_2  and  C_4
REMARK    3  A    between atoms: C_6  and  C_7
REMARK    4  A    between atoms: C_8  and  C_9
REMARK                            x       y       z     vdW  Elec       q    Type
REMARK                         _______ _______ _______ _____ _____    ______ ____
ROOT
ATOM      1  C   UNL     1       7.726   8.371  17.838  0.00  0.00    +0.000 C 
ATOM      2  C   UNL     1       8.380   9.336  18.150  0.00  0.00    +0.000 C 
ENDROOT
BRANCH   2   3
ATOM      3  C   UNL     1       9.115  10.491  18.575  0.00  0.00    +0.000 A 
ATOM      4  C   UNL     1       9.309  11.570  17.707  0.00  0.00    +0.000 A 
ATOM      5  C   UNL     1      10.113  12.648  18.097  0.00  0.00    +0.000 A 
ATOM      6  C   UNL     1      10.709  12.649  19.357  0.00  0.00    +0.000 A 
ATOM      7 CL   UNL     1      11.751  13.942  19.811  0.00  0.00    +0.000 Cl
ATOM      8  C   UNL     1      10.480  11.600  20.245  0.00  0.00    +0.000 A 
ATOM      9  C   UNL     1       9.683  10.521  19.853  0.00  0.00    +0.000 A 
ENDBRANCH   2   3
BRANCH   1  12
ATOM     10  C   UNL     1       7.141   5.925  18.182  0.00  0.00    +0.000 C 
ATOM     11  C   UNL     1       7.517   6.091  16.731  0.00  0.00    +0.000 C 
ATOM     12  C   UNL     1       6.906   7.248  17.476  0.00  0.00    +0.000 C 
BRANCH  10  14
ATOM     13  O   UNL     1       5.224   5.315  19.452  0.00  0.00    +0.000 OA
ATOM     14  C   UNL     1       5.990   5.057  18.538  0.00  0.00    +0.000 C 
BRANCH  14  15
ATOM     15  O   UNL     1       5.847   3.979  17.733  0.00  0.00    +0.000 OA
ATOM     16  H   UNL     1       5.492   3.191  18.182  0.00  0.00    +0.000 HD
ENDBRANCH  14  15
ENDBRANCH  10  14
ENDBRANCH   1  12
TORSDOF 4
ENDMDL
MODEL 9
REMARK VINA RESULT:      -6.1      7.131      8.319
REMARK  Name = 
REMARK  4 active torsions:
REMARK  status: ('A' for Active; 'I' for Inactive)
REMARK    1  A    between atoms: C_2  and  O_3
REMARK    2  A    between atoms: C_2  and  C_4
REMARK    3  A    between atoms: C_6  and  C_7
REMARK    4  A    between atoms: C_8  and  C_9
REMARK                            x       y       z     vdW  Elec       q    Type
REMARK                         _______ _______ _______ _____ _____    ______ ____
ROOT
ATOM      1  C   UNL     1       8.027   7.790  18.109  0.00  0.00    +0.000 C 
ATOM      2  C   UNL     1       8.441   8.905  18.314  0.00  0.00    +0.000 C 
ENDROOT
BRANCH   2   3
ATOM      3  C   UNL     1       8.916  10.221  18.623  0.00  0.00    +0.000 A 
ATOM      4  C   UNL     1       9.613  10.465  19.810  0.00  0.00    +0.000 A 
ATOM      5  C   UNL     1       9.985  11.772  20.149  0.00  0.00    +0.000 A 
ATOM      6  C   UNL     1       9.668  12.827  19.296  0.00  0.00    +0.000 A 
ATOM      7 CL   UNL     1      10.065  14.441  19.744  0.00  0.00    +0.000 Cl
ATOM      8  C   UNL     1       9.016  12.585  18.089  0.00  0.00    +0.000 A 
ATOM      9  C   UNL     1       8.640  11.281  17.753  0.00  0.00    +0.000 A 
ENDBRANCH   2   3
BRANCH   1  12
ATOM     10  C   UNL     1       6.752   6.196  16.600  0.00  0.00    +0.000 C 
ATOM     11  C   UNL     1       6.005   6.261  17.909  0.00  0.00    +0.000 C 
ATOM     12  C   UNL     1       7.495   6.472  17.894  0.00  0.00    +0.000 C 
BRANCH  10  14
ATOM     13  O   UNL     1       7.565   4.744  14.900  0.00  0.00    +0.000 OA
ATOM     14  C   UNL     1       6.907   4.887  15.918  0.00  0.00    +0.000 C 
BRANCH  14  15
ATOM     15  O   UNL     1       6.286   3.863  16.549  0.00  0.00    +0.000 OA
ATOM     16  H   UNL     1       6.050   3.120  15.964  0.00  0.00    +0.000 HD
ENDBRANCH  14  15
ENDBRANCH  10  14
ENDBRANCH   1  12
TORSDOF 4
ENDMDL
