MODEL 1
REMARK VINA RESULT:      -8.5      0.000      0.000
REMARK  Name = 
REMARK  5 active torsions:
REMARK  status: ('A' for Active; 'I' for Inactive)
REMARK    1  A    between atoms: C_1  and  O_2
REMARK    2  A    between atoms: O_2  and  C_3
REMARK    3  A    between atoms: C_8  and  C_9
REMARK    4  A    between atoms: C_17  and  O_18
REMARK    5  A    between atoms: O_18  and  C_19
REMARK                            x       y       z     vdW  Elec       q    Type
REMARK                         _______ _______ _______ _____ _____    ______ ____
ROOT
ATOM      1  C   UNL     1      -0.040   8.860  21.146  0.00  0.00    +0.000 A 
ATOM      2  C   UNL     1      -0.277   9.852  20.207  0.00  0.00    +0.000 A 
ATOM      3  C   UNL     1       0.547   9.974  19.080  0.00  0.00    +0.000 A 
ATOM      4  C   UNL     1       1.590   9.046  18.881  0.00  0.00    +0.000 A 
ATOM      5  S   UNL     1       2.706   8.999  17.568  0.00  0.00    +0.000 S 
ATOM      6  C   UNL     1       3.418   7.543  18.113  0.00  0.00    +0.000 A 
ATOM      7  C   UNL     1       2.854   7.124  19.300  0.00  0.00    +0.000 A 
ATOM      8  C   UNL     1       1.834   8.019  19.795  0.00  0.00    +0.000 A 
ATOM      9  C   UNL     1       1.040   7.990  20.972  0.00  0.00    +0.000 A 
ENDROOT
BRANCH   6  10
ATOM     10  C   UNL     1       4.418   6.843  17.314  0.00  0.00    +0.000 C 
ATOM     11  O   UNL     1       4.325   6.765  16.095  0.00  0.00    +0.000 OA
ATOM     12  N   UNL     1       5.427   6.250  18.039  0.00  0.00    +0.000 N 
ATOM     13  C   UNL     1       6.420   5.498  17.474  0.00  0.00    +0.000 A 
ATOM     14  N   UNL     1       6.669   5.392  16.132  0.00  0.00    +0.000 NA
ATOM     15  N   UNL     1       7.680   4.548  15.993  0.00  0.00    +0.000 NA
ATOM     16  N   UNL     1       7.977   4.180  17.242  0.00  0.00    +0.000 N 
ATOM     17  N   UNL     1       7.260   4.765  18.217  0.00  0.00    +0.000 NA
ATOM     18  H   UNL     1       5.412   6.252  19.048  0.00  0.00    +0.000 HD
ATOM     19  H   UNL     1       8.695   3.487  17.433  0.00  0.00    +0.000 HD
ENDBRANCH   6  10
BRANCH   1  21
ATOM     20  C   UNL     1      -0.578   9.599  23.326  0.00  0.00    +0.000 C 
ATOM     21  O   UNL     1      -0.774   8.652  22.281  0.00  0.00    +0.000 OA
ENDBRANCH   1  21
BRANCH   7  22
ATOM     22  O   UNL     1       3.310   5.988  19.891  0.00  0.00    +0.000 OA
BRANCH  22  23
ATOM     23  C   UNL     1       2.565   4.833  19.962  0.00  0.00    +0.000 A 
ATOM     24  C   UNL     1       2.112   4.264  21.154  0.00  0.00    +0.000 A 
ATOM     25  C   UNL     1       1.415   3.055  21.131  0.00  0.00    +0.000 A 
ATOM     26  C   UNL     1       1.114   2.448  19.913  0.00  0.00    +0.000 A 
ATOM     27  C   UNL     1       1.508   3.049  18.718  0.00  0.00    +0.000 A 
ATOM     28  C   UNL     1       2.235   4.240  18.742  0.00  0.00    +0.000 A 
ENDBRANCH  22  23
ENDBRANCH   7  22
TORSDOF 4
ENDMDL
MODEL 2
REMARK VINA RESULT:      -8.1      1.149      1.272
REMARK  Name = 
REMARK  5 active torsions:
REMARK  status: ('A' for Active; 'I' for Inactive)
REMARK    1  A    between atoms: C_1  and  O_2
REMARK    2  A    between atoms: O_2  and  C_3
REMARK    3  A    between atoms: C_8  and  C_9
REMARK    4  A    between atoms: C_17  and  O_18
REMARK    5  A    between atoms: O_18  and  C_19
REMARK                            x       y       z     vdW  Elec       q    Type
REMARK                         _______ _______ _______ _____ _____    ______ ____
ROOT
ATOM      1  C   UNL     1       0.234   9.196  21.623  0.00  0.00    +0.000 A 
ATOM      2  C   UNL     1      -0.109  10.052  20.589  0.00  0.00    +0.000 A 
ATOM      3  C   UNL     1       0.496   9.924  19.331  0.00  0.00    +0.000 A 
ATOM      4  C   UNL     1       1.420   8.882  19.110  0.00  0.00    +0.000 A 
ATOM      5  S   UNL     1       2.265   8.533  17.649  0.00  0.00    +0.000 S 
ATOM      6  C   UNL     1       2.969   7.115  18.296  0.00  0.00    +0.000 A 
ATOM      7  C   UNL     1       2.612   6.935  19.615  0.00  0.00    +0.000 A 
ATOM      8  C   UNL     1       1.763   7.987  20.125  0.00  0.00    +0.000 A 
ATOM      9  C   UNL     1       1.203   8.211  21.411  0.00  0.00    +0.000 A 
ENDROOT
BRANCH   6  10
ATOM     10  C   UNL     1       3.755   6.210  17.462  0.00  0.00    +0.000 C 
ATOM     11  O   UNL     1       3.347   5.093  17.168  0.00  0.00    +0.000 OA
ATOM     12  N   UNL     1       4.986   6.694  17.083  0.00  0.00    +0.000 N 
ATOM     13  C   UNL     1       5.890   5.969  16.354  0.00  0.00    +0.000 A 
ATOM     14  N   UNL     1       5.635   4.773  15.740  0.00  0.00    +0.000 NA
ATOM     15  N   UNL     1       6.768   4.383  15.174  0.00  0.00    +0.000 NA
ATOM     16  N   UNL     1       7.641   5.344  15.484  0.00  0.00    +0.000 N 
ATOM     17  N   UNL     1       7.151   6.384  16.182  0.00  0.00    +0.000 NA
ATOM     18  H   UNL     1       5.326   7.579  17.430  0.00  0.00    +0.000 HD
ATOM     19  H   UNL     1       8.619   5.278  15.217  0.00  0.00    +0.000 HD
ENDBRANCH   6  10
BRANCH   1  21
ATOM     20  C   UNL     1      -0.973  10.428  23.240  0.00  0.00    +0.000 C 
ATOM     21  O   UNL     1      -0.287   9.231  22.888  0.00  0.00    +0.000 OA
ENDBRANCH   1  21
BRANCH   7  22
ATOM     22  O   UNL     1       3.095   5.863  20.298  0.00  0.00    +0.000 OA
BRANCH  22  23
ATOM     23  C   UNL     1       2.609   4.588  20.127  0.00  0.00    +0.000 A 
ATOM     24  C   UNL     1       3.411   3.462  19.932  0.00  0.00    +0.000 A 
ATOM     25  C   UNL     1       2.825   2.217  19.704  0.00  0.00    +0.000 A 
ATOM     26  C   UNL     1       1.438   2.083  19.737  0.00  0.00    +0.000 A 
ATOM     27  C   UNL     1       0.636   3.194  19.998  0.00  0.00    +0.000 A 
ATOM     28  C   UNL     1       1.221   4.446  20.191  0.00  0.00    +0.000 A 
ENDBRANCH  22  23
ENDBRANCH   7  22
TORSDOF 4
ENDMDL
MODEL 3
REMARK VINA RESULT:      -7.4      1.032      1.063
REMARK  Name = 
REMARK  5 active torsions:
REMARK  status: ('A' for Active; 'I' for Inactive)
REMARK    1  A    between atoms: C_1  and  O_2
REMARK    2  A    between atoms: O_2  and  C_3
REMARK    3  A    between atoms: C_8  and  C_9
REMARK    4  A    between atoms: C_17  and  O_18
REMARK    5  A    between atoms: O_18  and  C_19
REMARK                            x       y       z     vdW  Elec       q    Type
REMARK                         _______ _______ _______ _____ _____    ______ ____
ROOT
ATOM      1  C   UNL     1       0.030   8.776  21.317  0.00  0.00    +0.000 A 
ATOM      2  C   UNL     1      -0.309   9.768  20.410  0.00  0.00    +0.000 A 
ATOM      3  C   UNL     1       0.409   9.914  19.216  0.00  0.00    +0.000 A 
ATOM      4  C   UNL     1       1.450   9.010  18.919  0.00  0.00    +0.000 A 
ATOM      5  S   UNL     1       2.447   8.996  17.513  0.00  0.00    +0.000 S 
ATOM      6  C   UNL     1       3.234   7.553  17.981  0.00  0.00    +0.000 A 
ATOM      7  C   UNL     1       2.787   7.115  19.210  0.00  0.00    +0.000 A 
ATOM      8  C   UNL     1       1.795   7.983  19.800  0.00  0.00    +0.000 A 
ATOM      9  C   UNL     1       1.109   7.930  21.042  0.00  0.00    +0.000 A 
ENDROOT
BRANCH   6  10
ATOM     10  C   UNL     1       4.175   6.879  17.092  0.00  0.00    +0.000 C 
ATOM     11  O   UNL     1       4.755   7.483  16.196  0.00  0.00    +0.000 OA
ATOM     12  N   UNL     1       4.315   5.528  17.312  0.00  0.00    +0.000 N 
ATOM     13  C   UNL     1       5.101   4.715  16.542  0.00  0.00    +0.000 A 
ATOM     14  N   UNL     1       5.995   5.142  15.597  0.00  0.00    +0.000 NA
ATOM     15  N   UNL     1       6.525   4.056  15.053  0.00  0.00    +0.000 NA
ATOM     16  N   UNL     1       5.922   3.043  15.679  0.00  0.00    +0.000 N 
ATOM     17  N   UNL     1       5.053   3.381  16.648  0.00  0.00    +0.000 NA
ATOM     18  H   UNL     1       3.743   5.051  17.994  0.00  0.00    +0.000 HD
ATOM     19  H   UNL     1       6.103   2.077  15.421  0.00  0.00    +0.000 HD
ENDBRANCH   6  10
BRANCH   1  21
ATOM     20  C   UNL     1      -0.381   9.524  23.521  0.00  0.00    +0.000 C 
ATOM     21  O   UNL     1      -0.597   8.544  22.510  0.00  0.00    +0.000 OA
ENDBRANCH   1  21
BRANCH   7  22
ATOM     22  O   UNL     1       3.316   5.984  19.749  0.00  0.00    +0.000 OA
BRANCH  22  23
ATOM     23  C   UNL     1       2.556   4.886  20.076  0.00  0.00    +0.000 A 
ATOM     24  C   UNL     1       2.543   4.287  21.338  0.00  0.00    +0.000 A 
ATOM     25  C   UNL     1       1.786   3.137  21.558  0.00  0.00    +0.000 A 
ATOM     26  C   UNL     1       0.989   2.621  20.537  0.00  0.00    +0.000 A 
ATOM     27  C   UNL     1       0.949   3.255  19.297  0.00  0.00    +0.000 A 
ATOM     28  C   UNL     1       1.733   4.386  19.065  0.00  0.00    +0.000 A 
ENDBRANCH  22  23
ENDBRANCH   7  22
TORSDOF 4
ENDMDL
MODEL 4
REMARK VINA RESULT:      -7.3      5.495      7.389
REMARK  Name = 
REMARK  5 active torsions:
REMARK  status: ('A' for Active; 'I' for Inactive)
REMARK    1  A    between atoms: C_1  and  O_2
REMARK    2  A    between atoms: O_2  and  C_3
REMARK    3  A    between atoms: C_8  and  C_9
REMARK    4  A    between atoms: C_17  and  O_18
REMARK    5  A    between atoms: O_18  and  C_19
REMARK                            x       y       z     vdW  Elec       q    Type
REMARK                         _______ _______ _______ _____ _____    ______ ____
ROOT
ATOM      1  C   UNL     1      -3.110  10.172  16.364  0.00  0.00    +0.000 A 
ATOM      2  C   UNL     1      -4.128  10.940  16.906  0.00  0.00    +0.000 A 
ATOM      3  C   UNL     1      -3.900  11.715  18.052  0.00  0.00    +0.000 A 
ATOM      4  C   UNL     1      -2.610  11.748  18.620  0.00  0.00    +0.000 A 
ATOM      5  S   UNL     1      -2.106  12.636  20.008  0.00  0.00    +0.000 S 
ATOM      6  C   UNL     1      -0.471  12.173  19.817  0.00  0.00    +0.000 A 
ATOM      7  C   UNL     1      -0.316  11.316  18.747  0.00  0.00    +0.000 A 
ATOM      8  C   UNL     1      -1.558  11.007  18.078  0.00  0.00    +0.000 A 
ATOM      9  C   UNL     1      -1.854  10.159  16.978  0.00  0.00    +0.000 A 
ENDROOT
BRANCH   6  10
ATOM     10  C   UNL     1       0.580  12.737  20.657  0.00  0.00    +0.000 C 
ATOM     11  O   UNL     1       0.454  12.817  21.874  0.00  0.00    +0.000 OA
ATOM     12  N   UNL     1       1.680  13.204  19.974  0.00  0.00    +0.000 N 
ATOM     13  C   UNL     1       2.739  13.822  20.581  0.00  0.00    +0.000 A 
ATOM     14  N   UNL     1       2.951  13.885  21.932  0.00  0.00    +0.000 NA
ATOM     15  N   UNL     1       4.055  14.596  22.115  0.00  0.00    +0.000 NA
ATOM     16  N   UNL     1       4.439  14.932  20.881  0.00  0.00    +0.000 N 
ATOM     17  N   UNL     1       3.689  14.448  19.875  0.00  0.00    +0.000 NA
ATOM     18  H   UNL     1       1.700  13.211  18.965  0.00  0.00    +0.000 HD
ATOM     19  H   UNL     1       5.245  15.531  20.722  0.00  0.00    +0.000 HD
ENDBRANCH   6  10
BRANCH   1  21
ATOM     20  C   UNL     1      -3.571  10.047  14.049  0.00  0.00    +0.000 C 
ATOM     21  O   UNL     1      -3.220   9.378  15.256  0.00  0.00    +0.000 OA
ENDBRANCH   1  21
BRANCH   7  22
ATOM     22  O   UNL     1       0.920  10.831  18.454  0.00  0.00    +0.000 OA
BRANCH  22  23
ATOM     23  C   UNL     1       1.344   9.582  18.842  0.00  0.00    +0.000 A 
ATOM     24  C   UNL     1       1.138   9.043  20.114  0.00  0.00    +0.000 A 
ATOM     25  C   UNL     1       1.659   7.790  20.436  0.00  0.00    +0.000 A 
ATOM     26  C   UNL     1       2.330   7.045  19.467  0.00  0.00    +0.000 A 
ATOM     27  C   UNL     1       2.479   7.552  18.177  0.00  0.00    +0.000 A 
ATOM     28  C   UNL     1       1.988   8.820  17.865  0.00  0.00    +0.000 A 
ENDBRANCH  22  23
ENDBRANCH   7  22
TORSDOF 4
ENDMDL
MODEL 5
REMARK VINA RESULT:      -7.1      3.607      5.555
REMARK  Name = 
REMARK  5 active torsions:
REMARK  status: ('A' for Active; 'I' for Inactive)
REMARK    1  A    between atoms: C_1  and  O_2
REMARK    2  A    between atoms: O_2  and  C_3
REMARK    3  A    between atoms: C_8  and  C_9
REMARK    4  A    between atoms: C_17  and  O_18
REMARK    5  A    between atoms: O_18  and  C_19
REMARK                            x       y       z     vdW  Elec       q    Type
REMARK                         _______ _______ _______ _____ _____    ______ ____
ROOT
ATOM      1  C   UNL     1       2.033   7.777  19.556  0.00  0.00    +0.000 A 
ATOM      2  C   UNL     1       1.233   7.472  20.646  0.00  0.00    +0.000 A 
ATOM      3  C   UNL     1       1.210   6.171  21.167  0.00  0.00    +0.000 A 
ATOM      4  C   UNL     1       2.046   5.185  20.605  0.00  0.00    +0.000 A 
ATOM      5  S   UNL     1       2.187   3.537  21.093  0.00  0.00    +0.000 S 
ATOM      6  C   UNL     1       3.457   3.230  19.990  0.00  0.00    +0.000 A 
ATOM      7  C   UNL     1       3.736   4.343  19.225  0.00  0.00    +0.000 A 
ATOM      8  C   UNL     1       2.884   5.470  19.525  0.00  0.00    +0.000 A 
ATOM      9  C   UNL     1       2.805   6.773  18.964  0.00  0.00    +0.000 A 
ENDROOT
BRANCH   6  10
ATOM     10  C   UNL     1       4.170   1.957  19.990  0.00  0.00    +0.000 C 
ATOM     11  O   UNL     1       3.995   1.124  19.107  0.00  0.00    +0.000 OA
ATOM     12  N   UNL     1       5.001   1.758  21.069  0.00  0.00    +0.000 N 
ATOM     13  C   UNL     1       5.704   0.602  21.277  0.00  0.00    +0.000 A 
ATOM     14  N   UNL     1       5.841  -0.415  20.372  0.00  0.00    +0.000 NA
ATOM     15  N   UNL     1       6.557  -1.360  20.963  0.00  0.00    +0.000 NA
ATOM     16  N   UNL     1       6.800  -0.877  22.184  0.00  0.00    +0.000 N 
ATOM     17  N   UNL     1       6.333   0.359  22.433  0.00  0.00    +0.000 NA
ATOM     18  H   UNL     1       5.039   2.425  21.825  0.00  0.00    +0.000 HD
ATOM     19  H   UNL     1       7.296  -1.425  22.881  0.00  0.00    +0.000 HD
ENDBRANCH   6  10
BRANCH   1  21
ATOM     20  C   UNL     1       2.270   9.000  17.547  0.00  0.00    +0.000 C 
ATOM     21  O   UNL     1       2.132   9.006  18.964  0.00  0.00    +0.000 OA
ENDBRANCH   1  21
BRANCH   7  22
ATOM     22  O   UNL     1       4.711   4.277  18.280  0.00  0.00    +0.000 OA
BRANCH  22  23
ATOM     23  C   UNL     1       5.724   5.204  18.185  0.00  0.00    +0.000 A 
ATOM     24  C   UNL     1       5.807   6.175  17.186  0.00  0.00    +0.000 A 
ATOM     25  C   UNL     1       6.906   7.034  17.136  0.00  0.00    +0.000 A 
ATOM     26  C   UNL     1       7.889   6.965  18.121  0.00  0.00    +0.000 A 
ATOM     27  C   UNL     1       7.774   6.040  19.158  0.00  0.00    +0.000 A 
ATOM     28  C   UNL     1       6.694   5.158  19.189  0.00  0.00    +0.000 A 
ENDBRANCH  22  23
ENDBRANCH   7  22
TORSDOF 4
ENDMDL
MODEL 6
REMARK VINA RESULT:      -7.1      5.629      7.554
REMARK  Name = 
REMARK  5 active torsions:
REMARK  status: ('A' for Active; 'I' for Inactive)
REMARK    1  A    between atoms: C_1  and  O_2
REMARK    2  A    between atoms: O_2  and  C_3
REMARK    3  A    between atoms: C_8  and  C_9
REMARK    4  A    between atoms: C_17  and  O_18
REMARK    5  A    between atoms: O_18  and  C_19
REMARK                            x       y       z     vdW  Elec       q    Type
REMARK                         _______ _______ _______ _____ _____    ______ ____
ROOT
ATOM      1  C   UNL     1      -3.290  10.290  16.728  0.00  0.00    +0.000 A 
ATOM      2  C   UNL     1      -4.314  10.979  17.361  0.00  0.00    +0.000 A 
ATOM      3  C   UNL     1      -4.055  11.733  18.513  0.00  0.00    +0.000 A 
ATOM      4  C   UNL     1      -2.733  11.827  18.996  0.00  0.00    +0.000 A 
ATOM      5  S   UNL     1      -2.190  12.704  20.378  0.00  0.00    +0.000 S 
ATOM      6  C   UNL     1      -0.548  12.348  20.064  0.00  0.00    +0.000 A 
ATOM      7  C   UNL     1      -0.414  11.533  18.959  0.00  0.00    +0.000 A 
ATOM      8  C   UNL     1      -1.678  11.168  18.363  0.00  0.00    +0.000 A 
ATOM      9  C   UNL     1      -1.998  10.336  17.257  0.00  0.00    +0.000 A 
ENDROOT
BRANCH   6  10
ATOM     10  C   UNL     1       0.523  12.950  20.852  0.00  0.00    +0.000 C 
ATOM     11  O   UNL     1       0.397  13.153  22.054  0.00  0.00    +0.000 OA
ATOM     12  N   UNL     1       1.642  13.306  20.133  0.00  0.00    +0.000 N 
ATOM     13  C   UNL     1       2.722  13.939  20.684  0.00  0.00    +0.000 A 
ATOM     14  N   UNL     1       2.933  14.126  22.024  0.00  0.00    +0.000 NA
ATOM     15  N   UNL     1       4.063  14.808  22.143  0.00  0.00    +0.000 NA
ATOM     16  N   UNL     1       4.463  15.008  20.885  0.00  0.00    +0.000 N 
ATOM     17  N   UNL     1       3.697  14.457  19.927  0.00  0.00    +0.000 NA
ATOM     18  H   UNL     1       1.664  13.214  19.129  0.00  0.00    +0.000 HD
ATOM     19  H   UNL     1       5.291  15.557  20.674  0.00  0.00    +0.000 HD
ENDBRANCH   6  10
BRANCH   1  21
ATOM     20  C   UNL     1      -2.948  10.106  14.396  0.00  0.00    +0.000 C 
ATOM     21  O   UNL     1      -3.428   9.523  15.603  0.00  0.00    +0.000 OA
ENDBRANCH   1  21
BRANCH   7  22
ATOM     22  O   UNL     1       0.825  11.133  18.570  0.00  0.00    +0.000 OA
BRANCH  22  23
ATOM     23  C   UNL     1       1.313   9.870  18.812  0.00  0.00    +0.000 A 
ATOM     24  C   UNL     1       2.020   9.110  17.878  0.00  0.00    +0.000 A 
ATOM     25  C   UNL     1       2.422   7.812  18.195  0.00  0.00    +0.000 A 
ATOM     26  C   UNL     1       2.177   7.297  19.466  0.00  0.00    +0.000 A 
ATOM     27  C   UNL     1       1.531   8.079  20.422  0.00  0.00    +0.000 A 
ATOM     28  C   UNL     1       1.097   9.364  20.095  0.00  0.00    +0.000 A 
ENDBRANCH  22  23
ENDBRANCH   7  22
TORSDOF 4
ENDMDL
MODEL 7
REMARK VINA RESULT:      -7.0      1.083      1.379
REMARK  Name = 
REMARK  5 active torsions:
REMARK  status: ('A' for Active; 'I' for Inactive)
REMARK    1  A    between atoms: C_1  and  O_2
REMARK    2  A    between atoms: O_2  and  C_3
REMARK    3  A    between atoms: C_8  and  C_9
REMARK    4  A    between atoms: C_17  and  O_18
REMARK    5  A    between atoms: O_18  and  C_19
REMARK                            x       y       z     vdW  Elec       q    Type
REMARK                         _______ _______ _______ _____ _____    ______ ____
ROOT
ATOM      1  C   UNL     1      -0.063   9.150  20.956  0.00  0.00    +0.000 A 
ATOM      2  C   UNL     1      -0.137   9.998  19.862  0.00  0.00    +0.000 A 
ATOM      3  C   UNL     1       0.776   9.873  18.806  0.00  0.00    +0.000 A 
ATOM      4  C   UNL     1       1.738   8.844  18.840  0.00  0.00    +0.000 A 
ATOM      5  S   UNL     1       2.939   8.501  17.651  0.00  0.00    +0.000 S 
ATOM      6  C   UNL     1       3.468   7.096  18.468  0.00  0.00    +0.000 A 
ATOM      7  C   UNL     1       2.783   6.916  19.651  0.00  0.00    +0.000 A 
ATOM      8  C   UNL     1       1.817   7.957  19.915  0.00  0.00    +0.000 A 
ATOM      9  C   UNL     1       0.940   8.178  21.010  0.00  0.00    +0.000 A 
ENDROOT
BRANCH   6  10
ATOM     10  C   UNL     1       4.455   6.199  17.873  0.00  0.00    +0.000 C 
ATOM     11  O   UNL     1       5.085   5.398  18.554  0.00  0.00    +0.000 OA
ATOM     12  N   UNL     1       4.644   6.362  16.520  0.00  0.00    +0.000 N 
ATOM     13  C   UNL     1       5.569   5.658  15.798  0.00  0.00    +0.000 A 
ATOM     14  N   UNL     1       6.279   4.581  16.255  0.00  0.00    +0.000 NA
ATOM     15  N   UNL     1       7.089   4.211  15.274  0.00  0.00    +0.000 NA
ATOM     16  N   UNL     1       6.840   5.081  14.293  0.00  0.00    +0.000 N 
ATOM     17  N   UNL     1       5.874   5.985  14.535  0.00  0.00    +0.000 NA
ATOM     18  H   UNL     1       4.178   7.102  16.016  0.00  0.00    +0.000 HD
ATOM     19  H   UNL     1       7.365   5.063  13.423  0.00  0.00    +0.000 HD
ENDBRANCH   6  10
BRANCH   1  21
ATOM     20  C   UNL     1      -0.342   9.748  23.226  0.00  0.00    +0.000 C 
ATOM     21  O   UNL     1      -0.895   9.183  22.042  0.00  0.00    +0.000 OA
ENDBRANCH   1  21
BRANCH   7  22
ATOM     22  O   UNL     1       3.085   5.853  20.443  0.00  0.00    +0.000 OA
BRANCH  22  23
ATOM     23  C   UNL     1       2.360   4.684  20.433  0.00  0.00    +0.000 A 
ATOM     24  C   UNL     1       2.199   3.851  21.542  0.00  0.00    +0.000 A 
ATOM     25  C   UNL     1       1.496   2.652  21.419  0.00  0.00    +0.000 A 
ATOM     26  C   UNL     1       0.898   2.316  20.206  0.00  0.00    +0.000 A 
ATOM     27  C   UNL     1       1.001   3.178  19.116  0.00  0.00    +0.000 A 
ATOM     28  C   UNL     1       1.733   4.361  19.228  0.00  0.00    +0.000 A 
ENDBRANCH  22  23
ENDBRANCH   7  22
TORSDOF 4
ENDMDL
MODEL 8
REMARK VINA RESULT:      -7.0      7.263     10.345
REMARK  Name = 
REMARK  5 active torsions:
REMARK  status: ('A' for Active; 'I' for Inactive)
REMARK    1  A    between atoms: C_1  and  O_2
REMARK    2  A    between atoms: O_2  and  C_3
REMARK    3  A    between atoms: C_8  and  C_9
REMARK    4  A    between atoms: C_17  and  O_18
REMARK    5  A    between atoms: O_18  and  C_19
REMARK                            x       y       z     vdW  Elec       q    Type
REMARK                         _______ _______ _______ _____ _____    ______ ____
ROOT
ATOM      1  C   UNL     1       1.235   8.927  19.923  0.00  0.00    +0.000 A 
ATOM      2  C   UNL     1       1.297   8.372  21.192  0.00  0.00    +0.000 A 
ATOM      3  C   UNL     1       0.589   8.950  22.254  0.00  0.00    +0.000 A 
ATOM      4  C   UNL     1      -0.229  10.072  22.012  0.00  0.00    +0.000 A 
ATOM      5  S   UNL     1      -1.191  10.927  23.159  0.00  0.00    +0.000 S 
ATOM      6  C   UNL     1      -1.866  11.945  21.963  0.00  0.00    +0.000 A 
ATOM      7  C   UNL     1      -1.333  11.677  20.719  0.00  0.00    +0.000 A 
ATOM      8  C   UNL     1      -0.334  10.635  20.738  0.00  0.00    +0.000 A 
ATOM      9  C   UNL     1       0.475  10.080  19.711  0.00  0.00    +0.000 A 
ENDROOT
BRANCH   6  10
ATOM     10  C   UNL     1      -2.938  12.882  22.282  0.00  0.00    +0.000 C 
ATOM     11  O   UNL     1      -2.839  14.078  22.031  0.00  0.00    +0.000 OA
ATOM     12  N   UNL     1      -4.025  12.326  22.918  0.00  0.00    +0.000 N 
ATOM     13  C   UNL     1      -5.099  13.054  23.352  0.00  0.00    +0.000 A 
ATOM     14  N   UNL     1      -5.341  14.367  23.050  0.00  0.00    +0.000 NA
ATOM     15  N   UNL     1      -6.451  14.709  23.687  0.00  0.00    +0.000 NA
ATOM     16  N   UNL     1      -6.810  13.604  24.344  0.00  0.00    +0.000 N 
ATOM     17  N   UNL     1      -6.035  12.522  24.147  0.00  0.00    +0.000 NA
ATOM     18  H   UNL     1      -4.022  11.356  23.197  0.00  0.00    +0.000 HD
ATOM     19  H   UNL     1      -7.613  13.594  24.965  0.00  0.00    +0.000 HD
ENDBRANCH   6  10
BRANCH   1  21
ATOM     20  C   UNL     1       1.945   9.340  17.707  0.00  0.00    +0.000 C 
ATOM     21  O   UNL     1       1.885   8.451  18.817  0.00  0.00    +0.000 OA
ENDBRANCH   1  21
BRANCH   7  22
ATOM     22  O   UNL     1      -1.744  12.404  19.646  0.00  0.00    +0.000 OA
BRANCH  22  23
ATOM     23  C   UNL     1      -2.586  11.902  18.681  0.00  0.00    +0.000 A 
ATOM     24  C   UNL     1      -3.968  11.778  18.833  0.00  0.00    +0.000 A 
ATOM     25  C   UNL     1      -4.734  11.198  17.821  0.00  0.00    +0.000 A 
ATOM     26  C   UNL     1      -4.128  10.801  16.630  0.00  0.00    +0.000 A 
ATOM     27  C   UNL     1      -2.758  10.985  16.450  0.00  0.00    +0.000 A 
ATOM     28  C   UNL     1      -1.986  11.533  17.475  0.00  0.00    +0.000 A 
ENDBRANCH  22  23
ENDBRANCH   7  22
TORSDOF 4
ENDMDL
MODEL 9
REMARK VINA RESULT:      -7.0      7.114     10.278
REMARK  Name = 
REMARK  5 active torsions:
REMARK  status: ('A' for Active; 'I' for Inactive)
REMARK    1  A    between atoms: C_1  and  O_2
REMARK    2  A    between atoms: O_2  and  C_3
REMARK    3  A    between atoms: C_8  and  C_9
REMARK    4  A    between atoms: C_17  and  O_18
REMARK    5  A    between atoms: O_18  and  C_19
REMARK                            x       y       z     vdW  Elec       q    Type
REMARK                         _______ _______ _______ _____ _____    ______ ____
ROOT
ATOM      1  C   UNL     1       1.290   8.872  19.582  0.00  0.00    +0.000 A 
ATOM      2  C   UNL     1       1.404   8.282  20.831  0.00  0.00    +0.000 A 
ATOM      3  C   UNL     1       0.756   8.840  21.941  0.00  0.00    +0.000 A 
ATOM      4  C   UNL     1      -0.055   9.980  21.768  0.00  0.00    +0.000 A 
ATOM      5  S   UNL     1      -0.948  10.817  22.982  0.00  0.00    +0.000 S 
ATOM      6  C   UNL     1      -1.663  11.877  21.847  0.00  0.00    +0.000 A 
ATOM      7  C   UNL     1      -1.194  11.636  20.573  0.00  0.00    +0.000 A 
ATOM      8  C   UNL     1      -0.211  10.579  20.516  0.00  0.00    +0.000 A 
ATOM      9  C   UNL     1       0.539  10.041  19.437  0.00  0.00    +0.000 A 
ENDROOT
BRANCH   6  10
ATOM     10  C   UNL     1      -2.704  12.820  22.242  0.00  0.00    +0.000 C 
ATOM     11  O   UNL     1      -2.567  14.028  22.086  0.00  0.00    +0.000 OA
ATOM     12  N   UNL     1      -3.809  12.250  22.833  0.00  0.00    +0.000 N 
ATOM     13  C   UNL     1      -4.859  12.976  23.326  0.00  0.00    +0.000 A 
ATOM     14  N   UNL     1      -5.058  14.316  23.130  0.00  0.00    +0.000 NA
ATOM     15  N   UNL     1      -6.157  14.642  23.794  0.00  0.00    +0.000 NA
ATOM     16  N   UNL     1      -6.552  13.500  24.362  0.00  0.00    +0.000 N 
ATOM     17  N   UNL     1      -5.813  12.413  24.078  0.00  0.00    +0.000 NA
ATOM     18  H   UNL     1      -3.838  11.262  23.034  0.00  0.00    +0.000 HD
ATOM     19  H   UNL     1      -7.356  13.468  24.982  0.00  0.00    +0.000 HD
ENDBRANCH   6  10
BRANCH   1  21
ATOM     20  C   UNL     1       2.564   7.173  18.542  0.00  0.00    +0.000 C 
ATOM     21  O   UNL     1       1.880   8.417  18.434  0.00  0.00    +0.000 OA
ENDBRANCH   1  21
BRANCH   7  22
ATOM     22  O   UNL     1      -1.644  12.397  19.540  0.00  0.00    +0.000 OA
BRANCH  22  23
ATOM     23  C   UNL     1      -2.488  11.914  18.568  0.00  0.00    +0.000 A 
ATOM     24  C   UNL     1      -2.061  11.403  17.340  0.00  0.00    +0.000 A 
ATOM     25  C   UNL     1      -2.996  10.992  16.390  0.00  0.00    +0.000 A 
ATOM     26  C   UNL     1      -4.357  11.030  16.690  0.00  0.00    +0.000 A 
ATOM     27  C   UNL     1      -4.783  11.477  17.940  0.00  0.00    +0.000 A 
ATOM     28  C   UNL     1      -3.850  11.921  18.878  0.00  0.00    +0.000 A 
ENDBRANCH  22  23
ENDBRANCH   7  22
TORSDOF 4
ENDMDL
