MODEL 1
REMARK VINA RESULT:      -5.9      0.000      0.000
REMARK  Name = 
REMARK  1 active torsions:
REMARK  status: ('A' for Active; 'I' for Inactive)
REMARK    1  A    between atoms: C_1  and  C_2
REMARK                            x       y       z     vdW  Elec       q    Type
REMARK                         _______ _______ _______ _____ _____    ______ ____
ROOT
ATOM      1  C   UNL     1       1.669   4.107  17.838  0.00  0.00    +0.000 C 
ATOM      2  C   UNL     1       3.159   4.279  17.917  0.00  0.00    +0.000 A 
ATOM      3  C   UNL     1       3.787   4.577  19.144  0.00  0.00    +0.000 A 
ATOM      4  C   UNL     1       5.173   4.737  19.218  0.00  0.00    +0.000 A 
ATOM      5  C   UNL     1       5.909   4.594  18.051  0.00  0.00    +0.000 A 
ATOM      6  C   UNL     1       7.372   4.722  17.925  0.00  0.00    +0.000 A 
ATOM      7  O   UNL     1       8.120   4.977  18.853  0.00  0.00    +0.000 OA
ATOM      8  N   UNL     1       7.753   4.514  16.617  0.00  0.00    +0.000 N 
ATOM      9  S   UNL     1       6.494   4.176  15.524  0.00  0.00    +0.000 S 
ATOM     10  C   UNL     1       5.304   4.299  16.832  0.00  0.00    +0.000 A 
ATOM     11  C   UNL     1       3.931   4.140  16.751  0.00  0.00    +0.000 A 
ATOM     12  H   UNL     1       8.726   4.563  16.347  0.00  0.00    +0.000 HD
ENDROOT
TORSDOF 0
ENDMDL
MODEL 2
REMARK VINA RESULT:      -5.7      2.374      3.435
REMARK  Name = 
REMARK  1 active torsions:
REMARK  status: ('A' for Active; 'I' for Inactive)
REMARK    1  A    between atoms: C_1  and  C_2
REMARK                            x       y       z     vdW  Elec       q    Type
REMARK                         _______ _______ _______ _____ _____    ______ ____
ROOT
ATOM      1  C   UNL     1       5.893   3.925  13.573  0.00  0.00    +0.000 C 
ATOM      2  C   UNL     1       5.971   4.258  15.036  0.00  0.00    +0.000 A 
ATOM      3  C   UNL     1       7.218   4.411  15.675  0.00  0.00    +0.000 A 
ATOM      4  C   UNL     1       7.292   4.721  17.036  0.00  0.00    +0.000 A 
ATOM      5  C   UNL     1       6.104   4.874  17.735  0.00  0.00    +0.000 A 
ATOM      6  C   UNL     1       5.973   5.201  19.166  0.00  0.00    +0.000 A 
ATOM      7  O   UNL     1       6.916   5.376  19.918  0.00  0.00    +0.000 OA
ATOM      8  N   UNL     1       4.641   5.273  19.514  0.00  0.00    +0.000 N 
ATOM      9  S   UNL     1       3.532   4.980  18.259  0.00  0.00    +0.000 S 
ATOM     10  C   UNL     1       4.863   4.727  17.118  0.00  0.00    +0.000 A 
ATOM     11  C   UNL     1       4.783   4.419  15.770  0.00  0.00    +0.000 A 
ATOM     12  H   UNL     1       4.365   5.490  20.463  0.00  0.00    +0.000 HD
ENDROOT
TORSDOF 0
ENDMDL
MODEL 3
REMARK VINA RESULT:      -5.7      1.704      1.726
REMARK  Name = 
REMARK  1 active torsions:
REMARK  status: ('A' for Active; 'I' for Inactive)
REMARK    1  A    between atoms: C_1  and  C_2
REMARK                            x       y       z     vdW  Elec       q    Type
REMARK                         _______ _______ _______ _____ _____    ______ ____
ROOT
ATOM      1  C   UNL     1       1.632   3.766  17.893  0.00  0.00    +0.000 C 
ATOM      2  C   UNL     1       2.889   4.541  17.622  0.00  0.00    +0.000 A 
ATOM      3  C   UNL     1       3.047   5.854  18.114  0.00  0.00    +0.000 A 
ATOM      4  C   UNL     1       4.217   6.576  17.863  0.00  0.00    +0.000 A 
ATOM      5  C   UNL     1       5.213   5.964  17.118  0.00  0.00    +0.000 A 
ATOM      6  C   UNL     1       6.512   6.556  16.750  0.00  0.00    +0.000 A 
ATOM      7  O   UNL     1       6.866   7.679  17.065  0.00  0.00    +0.000 OA
ATOM      8  N   UNL     1       7.247   5.658  16.008  0.00  0.00    +0.000 N 
ATOM      9  S   UNL     1       6.504   4.156  15.715  0.00  0.00    +0.000 S 
ATOM     10  C   UNL     1       5.073   4.668  16.625  0.00  0.00    +0.000 A 
ATOM     11  C   UNL     1       3.917   3.947  16.870  0.00  0.00    +0.000 A 
ATOM     12  H   UNL     1       8.170   5.899  15.670  0.00  0.00    +0.000 HD
ENDROOT
TORSDOF 0
ENDMDL
MODEL 4
REMARK VINA RESULT:      -5.6      4.176      4.781
REMARK  Name = 
REMARK  1 active torsions:
REMARK  status: ('A' for Active; 'I' for Inactive)
REMARK    1  A    between atoms: C_1  and  C_2
REMARK                            x       y       z     vdW  Elec       q    Type
REMARK                         _______ _______ _______ _____ _____    ______ ____
ROOT
ATOM      1  C   UNL     1       3.082   7.708  17.807  0.00  0.00    +0.000 C 
ATOM      2  C   UNL     1       2.687   6.441  18.510  0.00  0.00    +0.000 A 
ATOM      3  C   UNL     1       2.243   6.467  19.848  0.00  0.00    +0.000 A 
ATOM      4  C   UNL     1       1.874   5.288  20.503  0.00  0.00    +0.000 A 
ATOM      5  C   UNL     1       1.958   4.098  19.797  0.00  0.00    +0.000 A 
ATOM      6  C   UNL     1       1.615   2.758  20.309  0.00  0.00    +0.000 A 
ATOM      7  O   UNL     1       1.211   2.539  21.437  0.00  0.00    +0.000 OA
ATOM      8  N   UNL     1       1.822   1.812  19.329  0.00  0.00    +0.000 N 
ATOM      9  S   UNL     1       2.395   2.401  17.840  0.00  0.00    +0.000 S 
ATOM     10  C   UNL     1       2.394   4.054  18.475  0.00  0.00    +0.000 A 
ATOM     11  C   UNL     1       2.762   5.218  17.820  0.00  0.00    +0.000 A 
ATOM     12  H   UNL     1       1.636   0.833  19.507  0.00  0.00    +0.000 HD
ENDROOT
TORSDOF 0
ENDMDL
MODEL 5
REMARK VINA RESULT:      -5.6      4.241      5.298
REMARK  Name = 
REMARK  1 active torsions:
REMARK  status: ('A' for Active; 'I' for Inactive)
REMARK    1  A    between atoms: C_1  and  C_2
REMARK                            x       y       z     vdW  Elec       q    Type
REMARK                         _______ _______ _______ _____ _____    ______ ____
ROOT
ATOM      1  C   UNL     1       6.115   5.005  17.816  0.00  0.00    +0.000 C 
ATOM      2  C   UNL     1       4.768   4.410  18.110  0.00  0.00    +0.000 A 
ATOM      3  C   UNL     1       4.045   3.730  17.107  0.00  0.00    +0.000 A 
ATOM      4  C   UNL     1       2.791   3.176  17.380  0.00  0.00    +0.000 A 
ATOM      5  C   UNL     1       2.283   3.315  18.662  0.00  0.00    +0.000 A 
ATOM      6  C   UNL     1       0.987   2.802  19.144  0.00  0.00    +0.000 A 
ATOM      7  O   UNL     1       0.196   2.185  18.452  0.00  0.00    +0.000 OA
ATOM      8  N   UNL     1       0.816   3.126  20.472  0.00  0.00    +0.000 N 
ATOM      9  S   UNL     1       2.087   3.998  21.191  0.00  0.00    +0.000 S 
ATOM     10  C   UNL     1       2.984   3.982  19.664  0.00  0.00    +0.000 A 
ATOM     11  C   UNL     1       4.227   4.534  19.401  0.00  0.00    +0.000 A 
ATOM     12  H   UNL     1      -0.022   2.850  20.968  0.00  0.00    +0.000 HD
ENDROOT
TORSDOF 0
ENDMDL
MODEL 6
REMARK VINA RESULT:      -5.5      1.790      2.435
REMARK  Name = 
REMARK  1 active torsions:
REMARK  status: ('A' for Active; 'I' for Inactive)
REMARK    1  A    between atoms: C_1  and  C_2
REMARK                            x       y       z     vdW  Elec       q    Type
REMARK                         _______ _______ _______ _____ _____    ______ ____
ROOT
ATOM      1  C   UNL     1       2.481   5.013  20.240  0.00  0.00    +0.000 C 
ATOM      2  C   UNL     1       3.455   4.768  19.123  0.00  0.00    +0.000 A 
ATOM      3  C   UNL     1       3.041   4.145  17.928  0.00  0.00    +0.000 A 
ATOM      4  C   UNL     1       3.947   3.918  16.888  0.00  0.00    +0.000 A 
ATOM      5  C   UNL     1       5.260   4.323  17.068  0.00  0.00    +0.000 A 
ATOM      6  C   UNL     1       6.358   4.173  16.095  0.00  0.00    +0.000 A 
ATOM      7  O   UNL     1       6.232   3.663  14.995  0.00  0.00    +0.000 OA
ATOM      8  N   UNL     1       7.524   4.690  16.615  0.00  0.00    +0.000 N 
ATOM      9  S   UNL     1       7.410   5.342  18.182  0.00  0.00    +0.000 S 
ATOM     10  C   UNL     1       5.686   4.940  18.242  0.00  0.00    +0.000 A 
ATOM     11  C   UNL     1       4.794   5.168  19.277  0.00  0.00    +0.000 A 
ATOM     12  H   UNL     1       8.382   4.672  16.080  0.00  0.00    +0.000 HD
ENDROOT
TORSDOF 0
ENDMDL
MODEL 7
REMARK VINA RESULT:      -5.5      2.583      2.801
REMARK  Name = 
REMARK  1 active torsions:
REMARK  status: ('A' for Active; 'I' for Inactive)
REMARK    1  A    between atoms: C_1  and  C_2
REMARK                            x       y       z     vdW  Elec       q    Type
REMARK                         _______ _______ _______ _____ _____    ______ ____
ROOT
ATOM      1  C   UNL     1       2.156   8.685  17.760  0.00  0.00    +0.000 C 
ATOM      2  C   UNL     1       2.922   7.443  18.114  0.00  0.00    +0.000 A 
ATOM      3  C   UNL     1       2.478   6.592  19.148  0.00  0.00    +0.000 A 
ATOM      4  C   UNL     1       3.191   5.435  19.478  0.00  0.00    +0.000 A 
ATOM      5  C   UNL     1       4.343   5.153  18.761  0.00  0.00    +0.000 A 
ATOM      6  C   UNL     1       5.225   3.988  18.957  0.00  0.00    +0.000 A 
ATOM      7  O   UNL     1       5.039   3.121  19.793  0.00  0.00    +0.000 OA
ATOM      8  N   UNL     1       6.273   4.034  18.064  0.00  0.00    +0.000 N 
ATOM      9  S   UNL     1       6.286   5.366  17.006  0.00  0.00    +0.000 S 
ATOM     10  C   UNL     1       4.795   5.982  17.737  0.00  0.00    +0.000 A 
ATOM     11  C   UNL     1       4.095   7.130  17.405  0.00  0.00    +0.000 A 
ATOM     12  H   UNL     1       6.979   3.310  18.056  0.00  0.00    +0.000 HD
ENDROOT
TORSDOF 0
ENDMDL
MODEL 8
REMARK VINA RESULT:      -5.4      1.156      1.156
REMARK  Name = 
REMARK  1 active torsions:
REMARK  status: ('A' for Active; 'I' for Inactive)
REMARK    1  A    between atoms: C_1  and  C_2
REMARK                            x       y       z     vdW  Elec       q    Type
REMARK                         _______ _______ _______ _____ _____    ______ ____
ROOT
ATOM      1  C   UNL     1       2.668   2.576  18.124  0.00  0.00    +0.000 C 
ATOM      2  C   UNL     1       3.854   3.493  18.029  0.00  0.00    +0.000 A 
ATOM      3  C   UNL     1       4.379   4.115  19.180  0.00  0.00    +0.000 A 
ATOM      4  C   UNL     1       5.483   4.968  19.092  0.00  0.00    +0.000 A 
ATOM      5  C   UNL     1       6.042   5.183  17.842  0.00  0.00    +0.000 A 
ATOM      6  C   UNL     1       7.204   6.042  17.545  0.00  0.00    +0.000 A 
ATOM      7  O   UNL     1       7.817   6.677  18.384  0.00  0.00    +0.000 OA
ATOM      8  N   UNL     1       7.479   6.013  16.195  0.00  0.00    +0.000 N 
ATOM      9  S   UNL     1       6.454   5.037  15.251  0.00  0.00    +0.000 S 
ATOM     10  C   UNL     1       5.536   4.576  16.695  0.00  0.00    +0.000 A 
ATOM     11  C   UNL     1       4.443   3.730  16.774  0.00  0.00    +0.000 A 
ATOM     12  H   UNL     1       8.248   6.547  15.812  0.00  0.00    +0.000 HD
ENDROOT
TORSDOF 0
ENDMDL
MODEL 9
REMARK VINA RESULT:      -5.4      3.725      4.498
REMARK  Name = 
REMARK  1 active torsions:
REMARK  status: ('A' for Active; 'I' for Inactive)
REMARK    1  A    between atoms: C_1  and  C_2
REMARK                            x       y       z     vdW  Elec       q    Type
REMARK                         _______ _______ _______ _____ _____    ______ ____
ROOT
ATOM      1  C   UNL     1       5.344   6.372  16.150  0.00  0.00    +0.000 C 
ATOM      2  C   UNL     1       4.343   5.722  17.062  0.00  0.00    +0.000 A 
ATOM      3  C   UNL     1       3.505   6.501  17.885  0.00  0.00    +0.000 A 
ATOM      4  C   UNL     1       2.573   5.896  18.734  0.00  0.00    +0.000 A 
ATOM      5  C   UNL     1       2.499   4.512  18.739  0.00  0.00    +0.000 A 
ATOM      6  C   UNL     1       1.586   3.693  19.558  0.00  0.00    +0.000 A 
ATOM      7  O   UNL     1       0.774   4.151  20.343  0.00  0.00    +0.000 OA
ATOM      8  N   UNL     1       1.794   2.355  19.301  0.00  0.00    +0.000 N 
ATOM      9  S   UNL     1       2.999   1.999  18.155  0.00  0.00    +0.000 S 
ATOM     10  C   UNL     1       3.320   3.727  17.932  0.00  0.00    +0.000 A 
ATOM     11  C   UNL     1       4.246   4.320  17.090  0.00  0.00    +0.000 A 
ATOM     12  H   UNL     1       1.251   1.647  19.777  0.00  0.00    +0.000 HD
ENDROOT
TORSDOF 0
ENDMDL
