MODEL 1
REMARK VINA RESULT:      -4.9      0.000      0.000
REMARK  Name = 
REMARK  1 active torsions:
REMARK  status: ('A' for Active; 'I' for Inactive)
REMARK    1  A    between atoms: N_2  and  C_4
REMARK                            x       y       z     vdW  Elec       q    Type
REMARK                         _______ _______ _______ _____ _____    ______ ____
ROOT
ATOM      1  C   UNL     1       6.444   5.374  17.786  0.00  0.00    +0.000 C 
ATOM      2  C   UNL     1       5.567   4.743  18.579  0.00  0.00    +0.000 C 
ATOM      3  N   UNL     1       4.539   5.393  19.241  0.00  0.00    +0.000 N 
ATOM      4  C   UNL     1       3.563   4.433  19.774  0.00  0.00    +0.000 C 
ATOM      5  C   UNL     1       4.246   3.057  19.562  0.00  0.00    +0.000 C 
ATOM      6  N   UNL     1       5.474   3.406  18.867  0.00  0.00    +0.000 N 
ATOM      7  H   UNL     1       4.190   6.249  18.829  0.00  0.00    +0.000 HD
ATOM      8  H   UNL     1       5.965   2.744  18.267  0.00  0.00    +0.000 HD
ENDROOT
BRANCH   1  10
ATOM      9  O   UNL     1       7.528   4.700  15.843  0.00  0.00    +0.000 OA
ATOM     10  N   UNL     1       7.490   4.677  17.082  0.00  0.00    +0.000 N 
ATOM     11  O   UNL     1       8.324   4.109  17.799  0.00  0.00    +0.000 OA
ENDBRANCH   1  10
TORSDOF 1
ENDMDL
MODEL 2
REMARK VINA RESULT:      -4.8      0.939      1.360
REMARK  Name = 
REMARK  1 active torsions:
REMARK  status: ('A' for Active; 'I' for Inactive)
REMARK    1  A    between atoms: N_2  and  C_4
REMARK                            x       y       z     vdW  Elec       q    Type
REMARK                         _______ _______ _______ _____ _____    ______ ____
ROOT
ATOM      1  C   UNL     1       5.904   4.789  17.370  0.00  0.00    +0.000 C 
ATOM      2  C   UNL     1       5.090   4.164  18.231  0.00  0.00    +0.000 C 
ATOM      3  N   UNL     1       3.714   4.322  18.227  0.00  0.00    +0.000 N 
ATOM      4  C   UNL     1       3.062   3.299  19.055  0.00  0.00    +0.000 C 
ATOM      5  C   UNL     1       4.242   2.608  19.785  0.00  0.00    +0.000 C 
ATOM      6  N   UNL     1       5.407   3.268  19.219  0.00  0.00    +0.000 N 
ATOM      7  H   UNL     1       3.279   4.574  17.349  0.00  0.00    +0.000 HD
ATOM      8  H   UNL     1       6.325   2.823  19.196  0.00  0.00    +0.000 HD
ENDROOT
BRANCH   1  10
ATOM      9  O   UNL     1       7.945   4.495  18.444  0.00  0.00    +0.000 OA
ATOM     10  N   UNL     1       7.331   4.589  17.371  0.00  0.00    +0.000 N 
ATOM     11  O   UNL     1       7.854   4.493  16.253  0.00  0.00    +0.000 OA
ENDBRANCH   1  10
TORSDOF 1
ENDMDL
MODEL 3
REMARK VINA RESULT:      -4.8      2.977      3.609
REMARK  Name = 
REMARK  1 active torsions:
REMARK  status: ('A' for Active; 'I' for Inactive)
REMARK    1  A    between atoms: N_2  and  C_4
REMARK                            x       y       z     vdW  Elec       q    Type
REMARK                         _______ _______ _______ _____ _____    ______ ____
ROOT
ATOM      1  C   UNL     1       6.955   4.154  15.799  0.00  0.00    +0.000 C 
ATOM      2  C   UNL     1       7.144   4.978  16.838  0.00  0.00    +0.000 C 
ATOM      3  N   UNL     1       7.188   4.544  18.153  0.00  0.00    +0.000 N 
ATOM      4  C   UNL     1       7.712   5.592  19.038  0.00  0.00    +0.000 C 
ATOM      5  C   UNL     1       7.772   6.846  18.129  0.00  0.00    +0.000 C 
ATOM      6  N   UNL     1       7.356   6.332  16.835  0.00  0.00    +0.000 N 
ATOM      7  H   UNL     1       7.482   3.589  18.316  0.00  0.00    +0.000 HD
ATOM      8  H   UNL     1       7.628   6.780  15.960  0.00  0.00    +0.000 HD
ENDROOT
BRANCH   1  10
ATOM      9  O   UNL     1       7.750   5.484  14.065  0.00  0.00    +0.000 OA
ATOM     10  N   UNL     1       6.942   4.619  14.435  0.00  0.00    +0.000 N 
ATOM     11  O   UNL     1       6.110   4.076  13.697  0.00  0.00    +0.000 OA
ENDBRANCH   1  10
TORSDOF 1
ENDMDL
MODEL 4
REMARK VINA RESULT:      -4.8      1.288      1.722
REMARK  Name = 
REMARK  1 active torsions:
REMARK  status: ('A' for Active; 'I' for Inactive)
REMARK    1  A    between atoms: N_2  and  C_4
REMARK                            x       y       z     vdW  Elec       q    Type
REMARK                         _______ _______ _______ _____ _____    ______ ____
ROOT
ATOM      1  C   UNL     1       5.877   4.538  16.491  0.00  0.00    +0.000 C 
ATOM      2  C   UNL     1       5.142   4.014  17.481  0.00  0.00    +0.000 C 
ATOM      3  N   UNL     1       3.845   3.562  17.307  0.00  0.00    +0.000 N 
ATOM      4  C   UNL     1       3.403   2.765  18.458  0.00  0.00    +0.000 C 
ATOM      5  C   UNL     1       4.527   2.976  19.505  0.00  0.00    +0.000 C 
ATOM      6  N   UNL     1       5.493   3.791  18.788  0.00  0.00    +0.000 N 
ATOM      7  H   UNL     1       3.584   3.247  16.380  0.00  0.00    +0.000 HD
ATOM      8  H   UNL     1       6.482   3.804  19.035  0.00  0.00    +0.000 HD
ENDROOT
BRANCH   1  10
ATOM      9  O   UNL     1       8.068   4.215  17.199  0.00  0.00    +0.000 OA
ATOM     10  N   UNL     1       7.235   4.977  16.685  0.00  0.00    +0.000 N 
ATOM     11  O   UNL     1       7.488   6.119  16.278  0.00  0.00    +0.000 OA
ENDBRANCH   1  10
TORSDOF 1
ENDMDL
MODEL 5
REMARK VINA RESULT:      -4.8      2.961      3.570
REMARK  Name = 
REMARK  1 active torsions:
REMARK  status: ('A' for Active; 'I' for Inactive)
REMARK    1  A    between atoms: N_2  and  C_4
REMARK                            x       y       z     vdW  Elec       q    Type
REMARK                         _______ _______ _______ _____ _____    ______ ____
ROOT
ATOM      1  C   UNL     1       6.938   4.119  15.793  0.00  0.00    +0.000 C 
ATOM      2  C   UNL     1       7.130   4.956  16.821  0.00  0.00    +0.000 C 
ATOM      3  N   UNL     1       7.183   4.539  18.141  0.00  0.00    +0.000 N 
ATOM      4  C   UNL     1       7.708   5.600  19.010  0.00  0.00    +0.000 C 
ATOM      5  C   UNL     1       7.757   6.843  18.086  0.00  0.00    +0.000 C 
ATOM      6  N   UNL     1       7.336   6.311  16.800  0.00  0.00    +0.000 N 
ATOM      7  H   UNL     1       7.482   3.588  18.315  0.00  0.00    +0.000 HD
ATOM      8  H   UNL     1       7.600   6.750  15.919  0.00  0.00    +0.000 HD
ENDROOT
BRANCH   1  10
ATOM      9  O   UNL     1       6.109   4.075  13.621  0.00  0.00    +0.000 OA
ATOM     10  N   UNL     1       6.915   4.568  14.424  0.00  0.00    +0.000 N 
ATOM     11  O   UNL     1       7.715   5.472  14.149  0.00  0.00    +0.000 OA
ENDBRANCH   1  10
TORSDOF 1
ENDMDL
MODEL 6
REMARK VINA RESULT:      -4.8      3.048      3.763
REMARK  Name = 
REMARK  1 active torsions:
REMARK  status: ('A' for Active; 'I' for Inactive)
REMARK    1  A    between atoms: N_2  and  C_4
REMARK                            x       y       z     vdW  Elec       q    Type
REMARK                         _______ _______ _______ _____ _____    ______ ____
ROOT
ATOM      1  C   UNL     1       7.392   5.958  18.158  0.00  0.00    +0.000 C 
ATOM      2  C   UNL     1       6.966   5.363  17.036  0.00  0.00    +0.000 C 
ATOM      3  N   UNL     1       7.367   5.755  15.769  0.00  0.00    +0.000 N 
ATOM      4  C   UNL     1       7.000   4.750  14.764  0.00  0.00    +0.000 C 
ATOM      5  C   UNL     1       6.090   3.765  15.542  0.00  0.00    +0.000 C 
ATOM      6  N   UNL     1       6.125   4.290  16.897  0.00  0.00    +0.000 N 
ATOM      7  H   UNL     1       8.270   6.205  15.687  0.00  0.00    +0.000 HD
ATOM      8  H   UNL     1       5.947   3.702  17.711  0.00  0.00    +0.000 HD
ENDROOT
BRANCH   1  10
ATOM      9  O   UNL     1       7.836   5.328  20.352  0.00  0.00    +0.000 OA
ATOM     10  N   UNL     1       6.987   5.517  19.468  0.00  0.00    +0.000 N 
ATOM     11  O   UNL     1       5.766   5.384  19.629  0.00  0.00    +0.000 OA
ENDBRANCH   1  10
TORSDOF 1
ENDMDL
MODEL 7
REMARK VINA RESULT:      -4.7      1.260      1.303
REMARK  Name = 
REMARK  1 active torsions:
REMARK  status: ('A' for Active; 'I' for Inactive)
REMARK    1  A    between atoms: N_2  and  C_4
REMARK                            x       y       z     vdW  Elec       q    Type
REMARK                         _______ _______ _______ _____ _____    ______ ____
ROOT
ATOM      1  C   UNL     1       5.850   4.555  17.440  0.00  0.00    +0.000 C 
ATOM      2  C   UNL     1       4.967   3.931  18.231  0.00  0.00    +0.000 C 
ATOM      3  N   UNL     1       3.603   3.922  17.987  0.00  0.00    +0.000 N 
ATOM      4  C   UNL     1       2.924   2.920  18.818  0.00  0.00    +0.000 C 
ATOM      5  C   UNL     1       4.023   2.454  19.807  0.00  0.00    +0.000 C 
ATOM      6  N   UNL     1       5.197   3.185  19.358  0.00  0.00    +0.000 N 
ATOM      7  H   UNL     1       3.304   4.028  17.026  0.00  0.00    +0.000 HD
ATOM      8  H   UNL     1       6.144   2.853  19.537  0.00  0.00    +0.000 HD
ENDROOT
BRANCH   1  10
ATOM      9  O   UNL     1       8.059   4.249  16.780  0.00  0.00    +0.000 OA
ATOM     10  N   UNL     1       7.268   4.528  17.694  0.00  0.00    +0.000 N 
ATOM     11  O   UNL     1       7.607   4.827  18.847  0.00  0.00    +0.000 OA
ENDBRANCH   1  10
TORSDOF 1
ENDMDL
MODEL 8
REMARK VINA RESULT:      -4.7      2.517      3.635
REMARK  Name = 
REMARK  1 active torsions:
REMARK  status: ('A' for Active; 'I' for Inactive)
REMARK    1  A    between atoms: N_2  and  C_4
REMARK                            x       y       z     vdW  Elec       q    Type
REMARK                         _______ _______ _______ _____ _____    ______ ____
ROOT
ATOM      1  C   UNL     1       6.567   4.783  18.388  0.00  0.00    +0.000 C 
ATOM      2  C   UNL     1       6.644   4.565  17.069  0.00  0.00    +0.000 C 
ATOM      3  N   UNL     1       5.790   3.713  16.388  0.00  0.00    +0.000 N 
ATOM      4  C   UNL     1       5.899   3.904  14.936  0.00  0.00    +0.000 C 
ATOM      5  C   UNL     1       7.126   4.838  14.778  0.00  0.00    +0.000 C 
ATOM      6  N   UNL     1       7.501   5.120  16.153  0.00  0.00    +0.000 N 
ATOM      7  H   UNL     1       4.870   3.566  16.783  0.00  0.00    +0.000 HD
ATOM      8  H   UNL     1       8.013   5.962  16.415  0.00  0.00    +0.000 HD
ENDROOT
BRANCH   1  10
ATOM      9  O   UNL     1       7.884   6.696  18.487  0.00  0.00    +0.000 OA
ATOM     10  N   UNL     1       7.446   5.695  19.074  0.00  0.00    +0.000 N 
ATOM     11  O   UNL     1       7.682   5.416  20.257  0.00  0.00    +0.000 OA
ENDBRANCH   1  10
TORSDOF 1
ENDMDL
MODEL 9
REMARK VINA RESULT:      -4.6      1.901      2.120
REMARK  Name = 
REMARK  1 active torsions:
REMARK  status: ('A' for Active; 'I' for Inactive)
REMARK    1  A    between atoms: N_2  and  C_4
REMARK                            x       y       z     vdW  Elec       q    Type
REMARK                         _______ _______ _______ _____ _____    ______ ____
ROOT
ATOM      1  C   UNL     1       7.109   4.632  16.508  0.00  0.00    +0.000 C 
ATOM      2  C   UNL     1       6.123   4.116  17.254  0.00  0.00    +0.000 C 
ATOM      3  N   UNL     1       6.131   4.135  18.639  0.00  0.00    +0.000 N 
ATOM      4  C   UNL     1       4.809   3.793  19.180  0.00  0.00    +0.000 C 
ATOM      5  C   UNL     1       4.014   3.317  17.937  0.00  0.00    +0.000 C 
ATOM      6  N   UNL     1       4.954   3.527  16.848  0.00  0.00    +0.000 N 
ATOM      7  H   UNL     1       6.654   4.874  19.090  0.00  0.00    +0.000 HD
ATOM      8  H   UNL     1       4.648   3.666  15.886  0.00  0.00    +0.000 HD
ENDROOT
BRANCH   1  10
ATOM      9  O   UNL     1       6.405   3.774  14.464  0.00  0.00    +0.000 OA
ATOM     10  N   UNL     1       7.070   4.630  15.067  0.00  0.00    +0.000 N 
ATOM     11  O   UNL     1       7.705   5.539  14.518  0.00  0.00    +0.000 OA
ENDBRANCH   1  10
TORSDOF 1
ENDMDL
