MODEL 1
REMARK VINA RESULT:      -7.3      0.000      0.000
REMARK  Name = 
REMARK  8 active torsions:
REMARK  status: ('A' for Active; 'I' for Inactive)
REMARK    1  A    between atoms: C_1  and  C_2
REMARK    2  A    between atoms: C_2  and  N_3
REMARK    3  A    between atoms: C_4  and  S_5
REMARK    4  A    between atoms: N_6  and  C_7
REMARK    5  A    between atoms: N_6  and  C_15
REMARK    6  A    between atoms: C_7  and  C_8
REMARK    7  A    between atoms: C_9  and  C_10
REMARK    8  A    between atoms: C_13  and  C_14
REMARK                            x       y       z     vdW  Elec       q    Type
REMARK                         _______ _______ _______ _____ _____    ______ ____
ROOT
ATOM      1  N   UNL     1       2.564   7.807  18.286  0.00  0.00    +0.000 NA
ATOM      2  C   UNL     1       2.817   6.673  18.846  0.00  0.00    +0.000 C 
ATOM      3  N   UNL     1       3.767   5.781  18.325  0.00  0.00    +0.000 N 
ENDROOT
BRANCH   3   4
ATOM      4  C   UNL     1       3.660   4.363  18.357  0.00  0.00    +0.000 A 
ATOM      5  C   UNL     1       4.313   3.595  19.339  0.00  0.00    +0.000 A 
ATOM      6  C   UNL     1       4.182   2.201  19.394  0.00  0.00    +0.000 A 
ATOM      7  C   UNL     1       3.381   1.533  18.472  0.00  0.00    +0.000 A 
ATOM      8  C   UNL     1       2.740   2.259  17.480  0.00  0.00    +0.000 A 
ATOM      9  C   UNL     1       2.897   3.650  17.413  0.00  0.00    +0.000 A 
ENDBRANCH   3   4
BRANCH   1  11
ATOM     10  C   UNL     1       1.493   9.956  17.865  0.00  0.00    +0.000 C 
ATOM     11  C   UNL     1       1.638   8.795  18.838  0.00  0.00    +0.000 C 
ENDBRANCH   1  11
BRANCH   2  12
ATOM     12  S   UNL     1       2.103   6.209  20.414  0.00  0.00    +0.000 S 
ATOM     13  H   UNL     1       3.223   6.169  21.140  0.00  0.00    +0.000 HD
ENDBRANCH   2  12
BRANCH   3  14
ATOM     14  C   UNL     1       4.938   6.345  17.616  0.00  0.00    +0.000 C 
BRANCH  14  15
ATOM     15  C   UNL     1       6.117   5.469  17.313  0.00  0.00    +0.000 A 
ATOM     16  C   UNL     1       6.396   4.783  16.095  0.00  0.00    +0.000 A 
ATOM     17  C   UNL     1       5.641   4.791  14.822  0.00  0.00    +0.000 C 
ATOM     18  N   UNL     1       7.546   4.104  16.159  0.00  0.00    +0.000 NA
ATOM     19  O   UNL     1       8.089   4.405  17.385  0.00  0.00    +0.000 OA
ATOM     20  C   UNL     1       7.268   5.258  18.052  0.00  0.00    +0.000 A 
ATOM     21  C   UNL     1       7.830   5.797  19.304  0.00  0.00    +0.000 C 
ENDBRANCH  14  15
ENDBRANCH   3  14
TORSDOF 5
ENDMDL
MODEL 2
REMARK VINA RESULT:      -7.3      0.387      1.136
REMARK  Name = 
REMARK  8 active torsions:
REMARK  status: ('A' for Active; 'I' for Inactive)
REMARK    1  A    between atoms: C_1  and  C_2
REMARK    2  A    between atoms: C_2  and  N_3
REMARK    3  A    between atoms: C_4  and  S_5
REMARK    4  A    between atoms: N_6  and  C_7
REMARK    5  A    between atoms: N_6  and  C_15
REMARK    6  A    between atoms: C_7  and  C_8
REMARK    7  A    between atoms: C_9  and  C_10
REMARK    8  A    between atoms: C_13  and  C_14
REMARK                            x       y       z     vdW  Elec       q    Type
REMARK                         _______ _______ _______ _____ _____    ______ ____
ROOT
ATOM      1  N   UNL     1       2.487   7.970  17.838  0.00  0.00    +0.000 NA
ATOM      2  C   UNL     1       2.781   6.910  18.512  0.00  0.00    +0.000 C 
ATOM      3  N   UNL     1       3.703   5.961  18.043  0.00  0.00    +0.000 N 
ENDROOT
BRANCH   3   4
ATOM      4  C   UNL     1       3.605   4.557  18.249  0.00  0.00    +0.000 A 
ATOM      5  C   UNL     1       2.841   3.736  17.398  0.00  0.00    +0.000 A 
ATOM      6  C   UNL     1       2.769   2.349  17.579  0.00  0.00    +0.000 A 
ATOM      7  C   UNL     1       3.474   1.737  18.612  0.00  0.00    +0.000 A 
ATOM      8  C   UNL     1       4.220   2.520  19.479  0.00  0.00    +0.000 A 
ATOM      9  C   UNL     1       4.265   3.911  19.311  0.00  0.00    +0.000 A 
ENDBRANCH   3   4
BRANCH   1  11
ATOM     10  C   UNL     1       2.163  10.382  17.971  0.00  0.00    +0.000 C 
ATOM     11  C   UNL     1       1.590   9.017  18.325  0.00  0.00    +0.000 C 
ENDBRANCH   1  11
BRANCH   2  12
ATOM     12  S   UNL     1       2.167   6.636  20.164  0.00  0.00    +0.000 S 
ATOM     13  H   UNL     1       2.062   5.306  20.122  0.00  0.00    +0.000 HD
ENDBRANCH   2  12
BRANCH   3  14
ATOM     14  C   UNL     1       4.824   6.435  17.202  0.00  0.00    +0.000 C 
BRANCH  14  15
ATOM     15  C   UNL     1       6.019   5.554  16.988  0.00  0.00    +0.000 A 
ATOM     16  C   UNL     1       6.324   4.772  15.836  0.00  0.00    +0.000 A 
ATOM     17  C   UNL     1       5.588   4.665  14.557  0.00  0.00    +0.000 C 
ATOM     18  N   UNL     1       7.481   4.118  15.972  0.00  0.00    +0.000 NA
ATOM     19  O   UNL     1       8.003   4.527  17.175  0.00  0.00    +0.000 OA
ATOM     20  C   UNL     1       7.162   5.421  17.758  0.00  0.00    +0.000 A 
ATOM     21  C   UNL     1       7.698   6.071  18.968  0.00  0.00    +0.000 C 
ENDBRANCH  14  15
ENDBRANCH   3  14
TORSDOF 5
ENDMDL
MODEL 3
REMARK VINA RESULT:      -7.1      0.654      2.151
REMARK  Name = 
REMARK  8 active torsions:
REMARK  status: ('A' for Active; 'I' for Inactive)
REMARK    1  A    between atoms: C_1  and  C_2
REMARK    2  A    between atoms: C_2  and  N_3
REMARK    3  A    between atoms: C_4  and  S_5
REMARK    4  A    between atoms: N_6  and  C_7
REMARK    5  A    between atoms: N_6  and  C_15
REMARK    6  A    between atoms: C_7  and  C_8
REMARK    7  A    between atoms: C_9  and  C_10
REMARK    8  A    between atoms: C_13  and  C_14
REMARK                            x       y       z     vdW  Elec       q    Type
REMARK                         _______ _______ _______ _____ _____    ______ ____
ROOT
ATOM      1  N   UNL     1       2.485   8.089  17.734  0.00  0.00    +0.000 NA
ATOM      2  C   UNL     1       2.774   7.036  18.422  0.00  0.00    +0.000 C 
ATOM      3  N   UNL     1       3.734   6.106  17.992  0.00  0.00    +0.000 N 
ENDROOT
BRANCH   3   4
ATOM      4  C   UNL     1       3.658   4.701  18.198  0.00  0.00    +0.000 A 
ATOM      5  C   UNL     1       2.939   3.864  17.322  0.00  0.00    +0.000 A 
ATOM      6  C   UNL     1       2.890   2.475  17.503  0.00  0.00    +0.000 A 
ATOM      7  C   UNL     1       3.571   1.879  18.561  0.00  0.00    +0.000 A 
ATOM      8  C   UNL     1       4.271   2.678  19.452  0.00  0.00    +0.000 A 
ATOM      9  C   UNL     1       4.294   4.069  19.283  0.00  0.00    +0.000 A 
ENDBRANCH   3   4
BRANCH   1  11
ATOM     10  C   UNL     1       2.169  10.492  17.984  0.00  0.00    +0.000 C 
ATOM     11  C   UNL     1       1.548   9.118  18.182  0.00  0.00    +0.000 C 
ENDBRANCH   1  11
BRANCH   2  12
ATOM     12  S   UNL     1       2.099   6.752  20.049  0.00  0.00    +0.000 S 
ATOM     13  H   UNL     1       1.386   5.655  19.781  0.00  0.00    +0.000 HD
ENDBRANCH   2  12
BRANCH   3  14
ATOM     14  C   UNL     1       4.878   6.603  17.196  0.00  0.00    +0.000 C 
BRANCH  14  15
ATOM     15  C   UNL     1       6.034   5.692  16.905  0.00  0.00    +0.000 A 
ATOM     16  C   UNL     1       7.120   5.368  17.769  0.00  0.00    +0.000 A 
ATOM     17  C   UNL     1       7.365   5.794  19.165  0.00  0.00    +0.000 C 
ATOM     18  N   UNL     1       7.969   4.506  17.199  0.00  0.00    +0.000 NA
ATOM     19  O   UNL     1       7.409   4.178  15.988  0.00  0.00    +0.000 OA
ATOM     20  C   UNL     1       6.232   4.839  15.833  0.00  0.00    +0.000 A 
ATOM     21  C   UNL     1       5.448   4.430  14.653  0.00  0.00    +0.000 C 
ENDBRANCH  14  15
ENDBRANCH   3  14
TORSDOF 5
ENDMDL
MODEL 4
REMARK VINA RESULT:      -7.1      0.735      1.897
REMARK  Name = 
REMARK  8 active torsions:
REMARK  status: ('A' for Active; 'I' for Inactive)
REMARK    1  A    between atoms: C_1  and  C_2
REMARK    2  A    between atoms: C_2  and  N_3
REMARK    3  A    between atoms: C_4  and  S_5
REMARK    4  A    between atoms: N_6  and  C_7
REMARK    5  A    between atoms: N_6  and  C_15
REMARK    6  A    between atoms: C_7  and  C_8
REMARK    7  A    between atoms: C_9  and  C_10
REMARK    8  A    between atoms: C_13  and  C_14
REMARK                            x       y       z     vdW  Elec       q    Type
REMARK                         _______ _______ _______ _____ _____    ______ ____
ROOT
ATOM      1  N   UNL     1       2.449   8.079  17.587  0.00  0.00    +0.000 NA
ATOM      2  C   UNL     1       2.782   7.061  18.307  0.00  0.00    +0.000 C 
ATOM      3  N   UNL     1       3.760   6.144  17.891  0.00  0.00    +0.000 N 
ENDROOT
BRANCH   3   4
ATOM      4  C   UNL     1       3.729   4.745  18.149  0.00  0.00    +0.000 A 
ATOM      5  C   UNL     1       4.379   4.185  19.265  0.00  0.00    +0.000 A 
ATOM      6  C   UNL     1       4.323   2.812  19.540  0.00  0.00    +0.000 A 
ATOM      7  C   UNL     1       3.601   1.958  18.711  0.00  0.00    +0.000 A 
ATOM      8  C   UNL     1       2.966   2.476  17.593  0.00  0.00    +0.000 A 
ATOM      9  C   UNL     1       3.049   3.846  17.307  0.00  0.00    +0.000 A 
ENDBRANCH   3   4
BRANCH   1  11
ATOM     10  C   UNL     1       2.162  10.463  18.009  0.00  0.00    +0.000 C 
ATOM     11  C   UNL     1       1.491   9.097  18.016  0.00  0.00    +0.000 C 
ENDBRANCH   1  11
BRANCH   2  12
ATOM     12  S   UNL     1       2.147   6.818  19.956  0.00  0.00    +0.000 S 
ATOM     13  H   UNL     1       1.881   8.091  20.258  0.00  0.00    +0.000 HD
ENDBRANCH   2  12
BRANCH   3  14
ATOM     14  C   UNL     1       4.873   6.643  17.055  0.00  0.00    +0.000 C 
BRANCH  14  15
ATOM     15  C   UNL     1       6.035   5.745  16.748  0.00  0.00    +0.000 A 
ATOM     16  C   UNL     1       7.143   5.444  17.593  0.00  0.00    +0.000 A 
ATOM     17  C   UNL     1       7.411   5.887  18.978  0.00  0.00    +0.000 C 
ATOM     18  N   UNL     1       7.991   4.588  17.013  0.00  0.00    +0.000 NA
ATOM     19  O   UNL     1       7.411   4.240  15.817  0.00  0.00    +0.000 OA
ATOM     20  C   UNL     1       6.223   4.885  15.680  0.00  0.00    +0.000 A 
ATOM     21  C   UNL     1       5.420   4.454  14.521  0.00  0.00    +0.000 C 
ENDBRANCH  14  15
ENDBRANCH   3  14
TORSDOF 5
ENDMDL
MODEL 5
REMARK VINA RESULT:      -7.0      1.600      4.768
REMARK  Name = 
REMARK  8 active torsions:
REMARK  status: ('A' for Active; 'I' for Inactive)
REMARK    1  A    between atoms: C_1  and  C_2
REMARK    2  A    between atoms: C_2  and  N_3
REMARK    3  A    between atoms: C_4  and  S_5
REMARK    4  A    between atoms: N_6  and  C_7
REMARK    5  A    between atoms: N_6  and  C_15
REMARK    6  A    between atoms: C_7  and  C_8
REMARK    7  A    between atoms: C_9  and  C_10
REMARK    8  A    between atoms: C_13  and  C_14
REMARK                            x       y       z     vdW  Elec       q    Type
REMARK                         _______ _______ _______ _____ _____    ______ ____
ROOT
ATOM      1  N   UNL     1       3.547   3.378  19.487  0.00  0.00    +0.000 NA
ATOM      2  C   UNL     1       3.017   4.380  18.870  0.00  0.00    +0.000 C 
ATOM      3  N   UNL     1       3.614   5.650  18.865  0.00  0.00    +0.000 N 
ENDROOT
BRANCH   3   4
ATOM      4  C   UNL     1       2.907   6.884  18.884  0.00  0.00    +0.000 A 
ATOM      5  C   UNL     1       2.911   7.755  17.778  0.00  0.00    +0.000 A 
ATOM      6  C   UNL     1       2.189   8.956  17.781  0.00  0.00    +0.000 A 
ATOM      7  C   UNL     1       1.428   9.316  18.890  0.00  0.00    +0.000 A 
ATOM      8  C   UNL     1       1.419   8.489  20.002  0.00  0.00    +0.000 A 
ATOM      9  C   UNL     1       2.165   7.303  20.005  0.00  0.00    +0.000 A 
ENDBRANCH   3   4
BRANCH   1  11
ATOM     10  C   UNL     1       3.764   1.187  18.440  0.00  0.00    +0.000 C 
ATOM     11  C   UNL     1       2.997   2.023  19.454  0.00  0.00    +0.000 C 
ENDBRANCH   1  11
BRANCH   2  12
ATOM     12  S   UNL     1       1.571   4.203  17.841  0.00  0.00    +0.000 S 
ATOM     13  H   UNL     1       1.005   3.169  18.467  0.00  0.00    +0.000 HD
ENDBRANCH   2  12
BRANCH   3  14
ATOM     14  C   UNL     1       5.091   5.727  18.922  0.00  0.00    +0.000 C 
BRANCH  14  15
ATOM     15  C   UNL     1       5.881   5.833  17.651  0.00  0.00    +0.000 A 
ATOM     16  C   UNL     1       7.118   6.513  17.454  0.00  0.00    +0.000 A 
ATOM     17  C   UNL     1       7.956   7.234  18.437  0.00  0.00    +0.000 C 
ATOM     18  N   UNL     1       7.557   6.391  16.198  0.00  0.00    +0.000 NA
ATOM     19  O   UNL     1       6.666   5.554  15.570  0.00  0.00    +0.000 OA
ATOM     20  C   UNL     1       5.697   5.177  16.446  0.00  0.00    +0.000 A 
ATOM     21  C   UNL     1       4.784   4.135  15.941  0.00  0.00    +0.000 C 
ENDBRANCH  14  15
ENDBRANCH   3  14
TORSDOF 5
ENDMDL
MODEL 6
REMARK VINA RESULT:      -6.9      1.598      4.705
REMARK  Name = 
REMARK  8 active torsions:
REMARK  status: ('A' for Active; 'I' for Inactive)
REMARK    1  A    between atoms: C_1  and  C_2
REMARK    2  A    between atoms: C_2  and  N_3
REMARK    3  A    between atoms: C_4  and  S_5
REMARK    4  A    between atoms: N_6  and  C_7
REMARK    5  A    between atoms: N_6  and  C_15
REMARK    6  A    between atoms: C_7  and  C_8
REMARK    7  A    between atoms: C_9  and  C_10
REMARK    8  A    between atoms: C_13  and  C_14
REMARK                            x       y       z     vdW  Elec       q    Type
REMARK                         _______ _______ _______ _____ _____    ______ ____
ROOT
ATOM      1  N   UNL     1       3.567   3.409  19.520  0.00  0.00    +0.000 NA
ATOM      2  C   UNL     1       3.024   4.395  18.888  0.00  0.00    +0.000 C 
ATOM      3  N   UNL     1       3.600   5.675  18.870  0.00  0.00    +0.000 N 
ENDROOT
BRANCH   3   4
ATOM      4  C   UNL     1       2.873   6.897  18.871  0.00  0.00    +0.000 A 
ATOM      5  C   UNL     1       2.127   7.312  19.991  0.00  0.00    +0.000 A 
ATOM      6  C   UNL     1       1.437   8.531  20.008  0.00  0.00    +0.000 A 
ATOM      7  C   UNL     1       1.482   9.380  18.905  0.00  0.00    +0.000 A 
ATOM      8  C   UNL     1       2.191   8.991  17.780  0.00  0.00    +0.000 A 
ATOM      9  C   UNL     1       2.857   7.758  17.758  0.00  0.00    +0.000 A 
ENDBRANCH   3   4
BRANCH   1  11
ATOM     10  C   UNL     1       3.755   1.238  18.429  0.00  0.00    +0.000 C 
ATOM     11  C   UNL     1       3.039   2.045  19.501  0.00  0.00    +0.000 C 
ENDBRANCH   1  11
BRANCH   2  12
ATOM     12  S   UNL     1       1.586   4.182  17.855  0.00  0.00    +0.000 S 
ATOM     13  H   UNL     1       1.470   5.436  17.412  0.00  0.00    +0.000 HD
ENDBRANCH   2  12
BRANCH   3  14
ATOM     14  C   UNL     1       5.075   5.776  18.933  0.00  0.00    +0.000 C 
BRANCH  14  15
ATOM     15  C   UNL     1       5.869   5.868  17.663  0.00  0.00    +0.000 A 
ATOM     16  C   UNL     1       7.112   6.538  17.467  0.00  0.00    +0.000 A 
ATOM     17  C   UNL     1       7.952   7.259  18.447  0.00  0.00    +0.000 C 
ATOM     18  N   UNL     1       7.555   6.404  16.212  0.00  0.00    +0.000 NA
ATOM     19  O   UNL     1       6.659   5.570  15.587  0.00  0.00    +0.000 OA
ATOM     20  C   UNL     1       5.685   5.206  16.462  0.00  0.00    +0.000 A 
ATOM     21  C   UNL     1       4.766   4.167  15.961  0.00  0.00    +0.000 C 
ENDBRANCH  14  15
ENDBRANCH   3  14
TORSDOF 5
ENDMDL
MODEL 7
REMARK VINA RESULT:      -6.7      0.960      1.010
REMARK  Name = 
REMARK  8 active torsions:
REMARK  status: ('A' for Active; 'I' for Inactive)
REMARK    1  A    between atoms: C_1  and  C_2
REMARK    2  A    between atoms: C_2  and  N_3
REMARK    3  A    between atoms: C_4  and  S_5
REMARK    4  A    between atoms: N_6  and  C_7
REMARK    5  A    between atoms: N_6  and  C_15
REMARK    6  A    between atoms: C_7  and  C_8
REMARK    7  A    between atoms: C_9  and  C_10
REMARK    8  A    between atoms: C_13  and  C_14
REMARK                            x       y       z     vdW  Elec       q    Type
REMARK                         _______ _______ _______ _____ _____    ______ ____
ROOT
ATOM      1  N   UNL     1       2.483   8.517  17.455  0.00  0.00    +0.000 NA
ATOM      2  C   UNL     1       2.776   7.485  18.173  0.00  0.00    +0.000 C 
ATOM      3  N   UNL     1       3.588   6.448  17.687  0.00  0.00    +0.000 N 
ENDROOT
BRANCH   3   4
ATOM      4  C   UNL     1       3.427   5.070  18.001  0.00  0.00    +0.000 A 
ATOM      5  C   UNL     1       4.255   4.424  18.938  0.00  0.00    +0.000 A 
ATOM      6  C   UNL     1       4.078   3.076  19.274  0.00  0.00    +0.000 A 
ATOM      7  C   UNL     1       3.055   2.334  18.690  0.00  0.00    +0.000 A 
ATOM      8  C   UNL     1       2.235   2.936  17.748  0.00  0.00    +0.000 A 
ATOM      9  C   UNL     1       2.434   4.278  17.395  0.00  0.00    +0.000 A 
ENDBRANCH   3   4
BRANCH   1  11
ATOM     10  C   UNL     1       0.230   9.429  17.639  0.00  0.00    +0.000 C 
ATOM     11  C   UNL     1       1.703   9.652  17.948  0.00  0.00    +0.000 C 
ENDBRANCH   1  11
BRANCH   2  12
ATOM     12  S   UNL     1       2.312   7.361  19.890  0.00  0.00    +0.000 S 
ATOM     13  H   UNL     1       2.799   8.530  20.315  0.00  0.00    +0.000 HD
ENDBRANCH   2  12
BRANCH   3  14
ATOM     14  C   UNL     1       4.648   6.791  16.713  0.00  0.00    +0.000 C 
BRANCH  14  15
ATOM     15  C   UNL     1       5.880   5.938  16.623  0.00  0.00    +0.000 A 
ATOM     16  C   UNL     1       6.130   4.874  15.709  0.00  0.00    +0.000 A 
ATOM     17  C   UNL     1       5.287   4.372  14.602  0.00  0.00    +0.000 C 
ATOM     18  N   UNL     1       7.341   4.337  15.892  0.00  0.00    +0.000 NA
ATOM     19  O   UNL     1       7.943   5.096  16.866  0.00  0.00    +0.000 OA
ATOM     20  C   UNL     1       7.097   6.082  17.266  0.00  0.00    +0.000 A 
ATOM     21  C   UNL     1       7.696   7.074  18.178  0.00  0.00    +0.000 C 
ENDBRANCH  14  15
ENDBRANCH   3  14
TORSDOF 5
ENDMDL
MODEL 8
REMARK VINA RESULT:      -6.6      1.090      1.401
REMARK  Name = 
REMARK  8 active torsions:
REMARK  status: ('A' for Active; 'I' for Inactive)
REMARK    1  A    between atoms: C_1  and  C_2
REMARK    2  A    between atoms: C_2  and  N_3
REMARK    3  A    between atoms: C_4  and  S_5
REMARK    4  A    between atoms: N_6  and  C_7
REMARK    5  A    between atoms: N_6  and  C_15
REMARK    6  A    between atoms: C_7  and  C_8
REMARK    7  A    between atoms: C_9  and  C_10
REMARK    8  A    between atoms: C_13  and  C_14
REMARK                            x       y       z     vdW  Elec       q    Type
REMARK                         _______ _______ _______ _____ _____    ______ ____
ROOT
ATOM      1  N   UNL     1       2.893   7.738  17.578  0.00  0.00    +0.000 NA
ATOM      2  C   UNL     1       2.948   6.655  18.278  0.00  0.00    +0.000 C 
ATOM      3  N   UNL     1       3.387   5.438  17.732  0.00  0.00    +0.000 N 
ENDROOT
BRANCH   3   4
ATOM      4  C   UNL     1       2.873   4.157  18.075  0.00  0.00    +0.000 A 
ATOM      5  C   UNL     1       1.490   3.924  18.191  0.00  0.00    +0.000 A 
ATOM      6  C   UNL     1       0.979   2.655  18.496  0.00  0.00    +0.000 A 
ATOM      7  C   UNL     1       1.839   1.576  18.683  0.00  0.00    +0.000 A 
ATOM      8  C   UNL     1       3.207   1.779  18.595  0.00  0.00    +0.000 A 
ATOM      9  C   UNL     1       3.715   3.055  18.317  0.00  0.00    +0.000 A 
ENDBRANCH   3   4
BRANCH   1  11
ATOM     10  C   UNL     1       1.045   9.307  17.832  0.00  0.00    +0.000 C 
ATOM     11  C   UNL     1       2.514   9.039  18.128  0.00  0.00    +0.000 C 
ENDBRANCH   1  11
BRANCH   2  12
ATOM     12  S   UNL     1       2.626   6.642  20.032  0.00  0.00    +0.000 S 
ATOM     13  H   UNL     1       3.389   7.679  20.384  0.00  0.00    +0.000 HD
ENDBRANCH   2  12
BRANCH   3  14
ATOM     14  C   UNL     1       4.408   5.483  16.661  0.00  0.00    +0.000 C 
BRANCH  14  15
ATOM     15  C   UNL     1       5.801   5.001  16.940  0.00  0.00    +0.000 A 
ATOM     16  C   UNL     1       6.778   4.581  15.992  0.00  0.00    +0.000 A 
ATOM     17  C   UNL     1       6.698   4.555  14.515  0.00  0.00    +0.000 C 
ATOM     18  N   UNL     1       7.925   4.231  16.582  0.00  0.00    +0.000 NA
ATOM     19  O   UNL     1       7.755   4.502  17.919  0.00  0.00    +0.000 OA
ATOM     20  C   UNL     1       6.512   5.010  18.128  0.00  0.00    +0.000 A 
ATOM     21  C   UNL     1       6.275   5.510  19.494  0.00  0.00    +0.000 C 
ENDBRANCH  14  15
ENDBRANCH   3  14
TORSDOF 5
ENDMDL
MODEL 9
REMARK VINA RESULT:      -6.5      2.661      5.688
REMARK  Name = 
REMARK  8 active torsions:
REMARK  status: ('A' for Active; 'I' for Inactive)
REMARK    1  A    between atoms: C_1  and  C_2
REMARK    2  A    between atoms: C_2  and  N_3
REMARK    3  A    between atoms: C_4  and  S_5
REMARK    4  A    between atoms: N_6  and  C_7
REMARK    5  A    between atoms: N_6  and  C_15
REMARK    6  A    between atoms: C_7  and  C_8
REMARK    7  A    between atoms: C_9  and  C_10
REMARK    8  A    between atoms: C_13  and  C_14
REMARK                            x       y       z     vdW  Elec       q    Type
REMARK                         _______ _______ _______ _____ _____    ______ ____
ROOT
ATOM      1  N   UNL     1       2.645   3.568  17.663  0.00  0.00    +0.000 NA
ATOM      2  C   UNL     1       3.642   4.043  18.330  0.00  0.00    +0.000 C 
ATOM      3  N   UNL     1       4.059   5.377  18.195  0.00  0.00    +0.000 N 
ENDROOT
BRANCH   3   4
ATOM      4  C   UNL     1       5.409   5.820  18.259  0.00  0.00    +0.000 A 
ATOM      5  C   UNL     1       5.930   6.737  17.327  0.00  0.00    +0.000 A 
ATOM      6  C   UNL     1       7.250   7.201  17.407  0.00  0.00    +0.000 A 
ATOM      7  C   UNL     1       8.087   6.769  18.432  0.00  0.00    +0.000 A 
ATOM      8  C   UNL     1       7.609   5.850  19.354  0.00  0.00    +0.000 A 
ATOM      9  C   UNL     1       6.297   5.368  19.253  0.00  0.00    +0.000 A 
ENDBRANCH   3   4
BRANCH   1  11
ATOM     10  C   UNL     1       0.920   2.231  18.749  0.00  0.00    +0.000 C 
ATOM     11  C   UNL     1       2.133   2.208  17.829  0.00  0.00    +0.000 C 
ENDBRANCH   1  11
BRANCH   2  12
ATOM     12  S   UNL     1       4.473   3.099  19.594  0.00  0.00    +0.000 S 
ATOM     13  H   UNL     1       4.026   1.885  19.265  0.00  0.00    +0.000 HD
ENDBRANCH   2  12
BRANCH   3  14
ATOM     14  C   UNL     1       3.035   6.399  17.886  0.00  0.00    +0.000 C 
BRANCH  14  15
ATOM     15  C   UNL     1       2.370   7.148  19.003  0.00  0.00    +0.000 A 
ATOM     16  C   UNL     1       1.927   8.503  18.994  0.00  0.00    +0.000 A 
ATOM     17  C   UNL     1       1.959   9.491  17.893  0.00  0.00    +0.000 C 
ATOM     18  N   UNL     1       1.357   8.847  20.153  0.00  0.00    +0.000 NA
ATOM     19  O   UNL     1       1.332   7.701  20.911  0.00  0.00    +0.000 OA
ATOM     20  C   UNL     1       1.885   6.676  20.210  0.00  0.00    +0.000 A 
ATOM     21  C   UNL     1       1.752   5.353  20.848  0.00  0.00    +0.000 C 
ENDBRANCH  14  15
ENDBRANCH   3  14
TORSDOF 5
ENDMDL
