MODEL 1
REMARK VINA RESULT:      -7.2      0.000      0.000
REMARK  Name = 
REMARK  6 active torsions:
REMARK  status: ('A' for Active; 'I' for Inactive)
REMARK    1  A    between atoms: C_1  and  O_2
REMARK    2  A    between atoms: O_2  and  C_3
REMARK    3  A    between atoms: C_7  and  N_8
REMARK    4  A    between atoms: N_11  and  C_12
REMARK    5  A    between atoms: C_12  and  C_13
REMARK    6  A    between atoms: N_16  and  C_17
REMARK                            x       y       z     vdW  Elec       q    Type
REMARK                         _______ _______ _______ _____ _____    ______ ____
ROOT
ATOM      1  N   UNL     1       6.958   7.604  16.935  0.00  0.00    +0.000 N 
ATOM      2  C   UNL     1       7.861   7.890  17.932  0.00  0.00    +0.000 C 
ATOM      3  O   UNL     1       8.309   7.108  18.765  0.00  0.00    +0.000 OA
ATOM      4  N   UNL     1       8.251   9.215  17.912  0.00  0.00    +0.000 N 
ATOM      5  H   UNL     1       6.824   8.320  16.241  0.00  0.00    +0.000 HD
ATOM      6  H   UNL     1       7.547   9.858  17.580  0.00  0.00    +0.000 HD
ENDROOT
BRANCH   1  11
ATOM      7  C   UNL     1       4.313   5.009  17.075  0.00  0.00    +0.000 A 
ATOM      8  C   UNL     1       4.918   3.954  16.389  0.00  0.00    +0.000 A 
ATOM      9  C   UNL     1       6.201   4.097  15.872  0.00  0.00    +0.000 A 
ATOM     10  C   UNL     1       6.890   5.296  16.045  0.00  0.00    +0.000 A 
ATOM     11  C   UNL     1       6.302   6.368  16.724  0.00  0.00    +0.000 A 
ATOM     12  C   UNL     1       5.005   6.215  17.237  0.00  0.00    +0.000 A 
BRANCH   7  14
ATOM     13  C   UNL     1       2.680   5.311  18.779  0.00  0.00    +0.000 C 
ATOM     14  O   UNL     1       3.058   4.726  17.541  0.00  0.00    +0.000 OA
ENDBRANCH   7  14
ENDBRANCH   1  11
BRANCH   4  15
ATOM     15  C   UNL     1       9.112   9.670  18.988  0.00  0.00    +0.000 C 
BRANCH  15  16
ATOM     16  C   UNL     1       9.472  11.155  18.941  0.00  0.00    +0.000 C 
ATOM     17  C   UNL     1       8.715  11.905  17.838  0.00  0.00    +0.000 C 
ATOM     18  C   UNL     1       9.117  13.378  17.797  0.00  0.00    +0.000 C 
ATOM     19  N   UNL     1      10.569  13.522  17.633  0.00  0.00    +0.000 NA
ATOM     20  C   UNL     1      10.931  14.936  17.542  0.00  0.00    +0.000 C 
ATOM     21  C   UNL     1      11.297  12.880  18.738  0.00  0.00    +0.000 C 
ATOM     22  C   UNL     1      10.980  11.386  18.807  0.00  0.00    +0.000 C 
ENDBRANCH  15  16
ENDBRANCH   4  15
TORSDOF 4
ENDMDL
MODEL 2
REMARK VINA RESULT:      -7.2      0.719      1.264
REMARK  Name = 
REMARK  6 active torsions:
REMARK  status: ('A' for Active; 'I' for Inactive)
REMARK    1  A    between atoms: C_1  and  O_2
REMARK    2  A    between atoms: O_2  and  C_3
REMARK    3  A    between atoms: C_7  and  N_8
REMARK    4  A    between atoms: N_11  and  C_12
REMARK    5  A    between atoms: C_12  and  C_13
REMARK    6  A    between atoms: N_16  and  C_17
REMARK                            x       y       z     vdW  Elec       q    Type
REMARK                         _______ _______ _______ _____ _____    ______ ____
ROOT
ATOM      1  N   UNL     1       6.950   7.599  16.824  0.00  0.00    +0.000 N 
ATOM      2  C   UNL     1       7.810   7.916  17.850  0.00  0.00    +0.000 C 
ATOM      3  O   UNL     1       8.233   7.156  18.714  0.00  0.00    +0.000 OA
ATOM      4  N   UNL     1       8.185   9.244  17.817  0.00  0.00    +0.000 N 
ATOM      5  H   UNL     1       6.834   8.300  16.111  0.00  0.00    +0.000 HD
ATOM      6  H   UNL     1       7.487   9.872  17.446  0.00  0.00    +0.000 HD
ENDROOT
BRANCH   1  11
ATOM      7  C   UNL     1       4.396   4.920  17.049  0.00  0.00    +0.000 A 
ATOM      8  C   UNL     1       4.981   3.910  16.284  0.00  0.00    +0.000 A 
ATOM      9  C   UNL     1       6.221   4.110  15.686  0.00  0.00    +0.000 A 
ATOM     10  C   UNL     1       6.886   5.323  15.855  0.00  0.00    +0.000 A 
ATOM     11  C   UNL     1       6.316   6.351  16.613  0.00  0.00    +0.000 A 
ATOM     12  C   UNL     1       5.063   6.140  17.207  0.00  0.00    +0.000 A 
BRANCH   7  14
ATOM     13  C   UNL     1       3.117   3.365  18.317  0.00  0.00    +0.000 C 
ATOM     14  O   UNL     1       3.185   4.582  17.589  0.00  0.00    +0.000 OA
ENDBRANCH   7  14
ENDBRANCH   1  11
BRANCH   4  15
ATOM     15  C   UNL     1       8.998   9.731  18.917  0.00  0.00    +0.000 C 
BRANCH  15  16
ATOM     16  C   UNL     1       9.889  10.927  18.580  0.00  0.00    +0.000 C 
ATOM     17  C   UNL     1      10.634  11.465  19.807  0.00  0.00    +0.000 C 
ATOM     18  C   UNL     1      11.491  12.676  19.445  0.00  0.00    +0.000 C 
ATOM     19  N   UNL     1      10.679  13.726  18.818  0.00  0.00    +0.000 NA
ATOM     20  C   UNL     1      11.503  14.898  18.526  0.00  0.00    +0.000 C 
ATOM     21  C   UNL     1      10.034  13.238  17.589  0.00  0.00    +0.000 C 
ATOM     22  C   UNL     1       9.116  12.053  17.886  0.00  0.00    +0.000 C 
ENDBRANCH  15  16
ENDBRANCH   4  15
TORSDOF 4
ENDMDL
MODEL 3
REMARK VINA RESULT:      -7.2      0.914      1.014
REMARK  Name = 
REMARK  6 active torsions:
REMARK  status: ('A' for Active; 'I' for Inactive)
REMARK    1  A    between atoms: C_1  and  O_2
REMARK    2  A    between atoms: O_2  and  C_3
REMARK    3  A    between atoms: C_7  and  N_8
REMARK    4  A    between atoms: N_11  and  C_12
REMARK    5  A    between atoms: C_12  and  C_13
REMARK    6  A    between atoms: N_16  and  C_17
REMARK                            x       y       z     vdW  Elec       q    Type
REMARK                         _______ _______ _______ _____ _____    ______ ____
ROOT
ATOM      1  N   UNL     1       6.942   7.586  16.957  0.00  0.00    +0.000 N 
ATOM      2  C   UNL     1       7.853   7.849  17.952  0.00  0.00    +0.000 C 
ATOM      3  O   UNL     1       8.302   7.050  18.767  0.00  0.00    +0.000 OA
ATOM      4  N   UNL     1       8.251   9.172  17.951  0.00  0.00    +0.000 N 
ATOM      5  H   UNL     1       6.806   8.315  16.276  0.00  0.00    +0.000 HD
ATOM      6  H   UNL     1       7.548   9.825  17.636  0.00  0.00    +0.000 HD
ENDROOT
BRANCH   1  11
ATOM      7  C   UNL     1       4.278   5.008  17.064  0.00  0.00    +0.000 A 
ATOM      8  C   UNL     1       4.874   3.960  16.362  0.00  0.00    +0.000 A 
ATOM      9  C   UNL     1       6.158   4.100  15.846  0.00  0.00    +0.000 A 
ATOM     10  C   UNL     1       6.856   5.292  16.034  0.00  0.00    +0.000 A 
ATOM     11  C   UNL     1       6.276   6.358  16.729  0.00  0.00    +0.000 A 
ATOM     12  C   UNL     1       4.978   6.207  17.241  0.00  0.00    +0.000 A 
BRANCH   7  14
ATOM     13  C   UNL     1       2.911   3.755  18.554  0.00  0.00    +0.000 C 
ATOM     14  O   UNL     1       3.021   4.729  17.527  0.00  0.00    +0.000 OA
ENDBRANCH   7  14
ENDBRANCH   1  11
BRANCH   4  15
ATOM     15  C   UNL     1       9.123   9.603  19.029  0.00  0.00    +0.000 C 
BRANCH  15  16
ATOM     16  C   UNL     1       9.492  11.087  19.005  0.00  0.00    +0.000 C 
ATOM     17  C   UNL     1      10.390  11.446  17.815  0.00  0.00    +0.000 C 
ATOM     18  C   UNL     1      10.766  12.927  17.835  0.00  0.00    +0.000 C 
ATOM     19  N   UNL     1      11.403  13.290  19.107  0.00  0.00    +0.000 NA
ATOM     20  C   UNL     1      11.803  14.696  19.089  0.00  0.00    +0.000 C 
ATOM     21  C   UNL     1      10.508  13.030  20.245  0.00  0.00    +0.000 C 
ATOM     22  C   UNL     1      10.131  11.551  20.318  0.00  0.00    +0.000 C 
ENDBRANCH  15  16
ENDBRANCH   4  15
TORSDOF 4
ENDMDL
MODEL 4
REMARK VINA RESULT:      -7.1      1.428      2.309
REMARK  Name = 
REMARK  6 active torsions:
REMARK  status: ('A' for Active; 'I' for Inactive)
REMARK    1  A    between atoms: C_1  and  O_2
REMARK    2  A    between atoms: O_2  and  C_3
REMARK    3  A    between atoms: C_7  and  N_8
REMARK    4  A    between atoms: N_11  and  C_12
REMARK    5  A    between atoms: C_12  and  C_13
REMARK    6  A    between atoms: N_16  and  C_17
REMARK                            x       y       z     vdW  Elec       q    Type
REMARK                         _______ _______ _______ _____ _____    ______ ____
ROOT
ATOM      1  N   UNL     1       6.746   7.736  17.076  0.00  0.00    +0.000 N 
ATOM      2  C   UNL     1       7.772   7.944  17.968  0.00  0.00    +0.000 C 
ATOM      3  O   UNL     1       8.289   7.108  18.701  0.00  0.00    +0.000 OA
ATOM      4  N   UNL     1       8.204   9.256  17.961  0.00  0.00    +0.000 N 
ATOM      5  H   UNL     1       6.554   8.491  16.438  0.00  0.00    +0.000 HD
ATOM      6  H   UNL     1       7.488   9.936  17.749  0.00  0.00    +0.000 HD
ENDROOT
BRANCH   1  11
ATOM      7  C   UNL     1       5.811   4.430  15.681  0.00  0.00    +0.000 A 
ATOM      8  C   UNL     1       4.663   4.130  16.415  0.00  0.00    +0.000 A 
ATOM      9  C   UNL     1       4.194   5.016  17.379  0.00  0.00    +0.000 A 
ATOM     10  C   UNL     1       4.869   6.214  17.610  0.00  0.00    +0.000 A 
ATOM     11  C   UNL     1       6.025   6.533  16.890  0.00  0.00    +0.000 A 
ATOM     12  C   UNL     1       6.493   5.629  15.924  0.00  0.00    +0.000 A 
BRANCH   7  14
ATOM     13  C   UNL     1       6.416   3.922  13.437  0.00  0.00    +0.000 C 
ATOM     14  O   UNL     1       6.150   3.478  14.759  0.00  0.00    +0.000 OA
ENDBRANCH   7  14
ENDBRANCH   1  11
BRANCH   4  15
ATOM     15  C   UNL     1       9.205   9.630  18.944  0.00  0.00    +0.000 C 
BRANCH  15  16
ATOM     16  C   UNL     1       9.556  11.117  18.972  0.00  0.00    +0.000 C 
ATOM     17  C   UNL     1      10.500  11.517  17.831  0.00  0.00    +0.000 C 
ATOM     18  C   UNL     1      10.856  13.000  17.903  0.00  0.00    +0.000 C 
ATOM     19  N   UNL     1      11.434  13.339  19.209  0.00  0.00    +0.000 NA
ATOM     20  C   UNL     1      11.818  14.749  19.243  0.00  0.00    +0.000 C 
ATOM     21  C   UNL     1      10.495  13.041  20.301  0.00  0.00    +0.000 C 
ATOM     22  C   UNL     1      10.133  11.556  20.322  0.00  0.00    +0.000 C 
ENDBRANCH  15  16
ENDBRANCH   4  15
TORSDOF 4
ENDMDL
MODEL 5
REMARK VINA RESULT:      -7.0      1.219      2.080
REMARK  Name = 
REMARK  6 active torsions:
REMARK  status: ('A' for Active; 'I' for Inactive)
REMARK    1  A    between atoms: C_1  and  O_2
REMARK    2  A    between atoms: O_2  and  C_3
REMARK    3  A    between atoms: C_7  and  N_8
REMARK    4  A    between atoms: N_11  and  C_12
REMARK    5  A    between atoms: C_12  and  C_13
REMARK    6  A    between atoms: N_16  and  C_17
REMARK                            x       y       z     vdW  Elec       q    Type
REMARK                         _______ _______ _______ _____ _____    ______ ____
ROOT
ATOM      1  N   UNL     1       6.998   7.806  17.086  0.00  0.00    +0.000 N 
ATOM      2  C   UNL     1       7.941   8.078  18.050  0.00  0.00    +0.000 C 
ATOM      3  O   UNL     1       8.412   7.287  18.860  0.00  0.00    +0.000 OA
ATOM      4  N   UNL     1       8.340   9.400  18.022  0.00  0.00    +0.000 N 
ATOM      5  H   UNL     1       6.844   8.528  16.401  0.00  0.00    +0.000 HD
ATOM      6  H   UNL     1       7.630  10.051  17.722  0.00  0.00    +0.000 HD
ENDROOT
BRANCH   1  11
ATOM      7  C   UNL     1       6.125   4.521  15.602  0.00  0.00    +0.000 A 
ATOM      8  C   UNL     1       5.048   4.131  16.399  0.00  0.00    +0.000 A 
ATOM      9  C   UNL     1       4.607   4.949  17.434  0.00  0.00    +0.000 A 
ATOM     10  C   UNL     1       5.240   6.168  17.675  0.00  0.00    +0.000 A 
ATOM     11  C   UNL     1       6.324   6.577  16.892  0.00  0.00    +0.000 A 
ATOM     12  C   UNL     1       6.764   5.741  15.854  0.00  0.00    +0.000 A 
BRANCH   7  14
ATOM     13  C   UNL     1       5.828   3.819  13.349  0.00  0.00    +0.000 C 
ATOM     14  O   UNL     1       6.442   3.630  14.615  0.00  0.00    +0.000 OA
ENDBRANCH   7  14
ENDBRANCH   1  11
BRANCH   4  15
ATOM     15  C   UNL     1       9.245   9.841  19.068  0.00  0.00    +0.000 C 
BRANCH  15  16
ATOM     16  C   UNL     1       9.676  11.305  18.973  0.00  0.00    +0.000 C 
ATOM     17  C   UNL     1       8.909  12.070  17.887  0.00  0.00    +0.000 C 
ATOM     18  C   UNL     1       9.381  13.520  17.795  0.00  0.00    +0.000 C 
ATOM     19  N   UNL     1      10.830  13.586  17.565  0.00  0.00    +0.000 NA
ATOM     20  C   UNL     1      11.258  14.978  17.427  0.00  0.00    +0.000 C 
ATOM     21  C   UNL     1      11.574  12.931  18.652  0.00  0.00    +0.000 C 
ATOM     22  C   UNL     1      11.187  11.457  18.768  0.00  0.00    +0.000 C 
ENDBRANCH  15  16
ENDBRANCH   4  15
TORSDOF 4
ENDMDL
MODEL 6
REMARK VINA RESULT:      -7.0      2.162      8.329
REMARK  Name = 
REMARK  6 active torsions:
REMARK  status: ('A' for Active; 'I' for Inactive)
REMARK    1  A    between atoms: C_1  and  O_2
REMARK    2  A    between atoms: O_2  and  C_3
REMARK    3  A    between atoms: C_7  and  N_8
REMARK    4  A    between atoms: N_11  and  C_12
REMARK    5  A    between atoms: C_12  and  C_13
REMARK    6  A    between atoms: N_16  and  C_17
REMARK                            x       y       z     vdW  Elec       q    Type
REMARK                         _______ _______ _______ _____ _____    ______ ____
ROOT
ATOM      1  N   UNL     1       8.313   9.593  17.813  0.00  0.00    +0.000 N 
ATOM      2  C   UNL     1       8.103   8.242  17.966  0.00  0.00    +0.000 C 
ATOM      3  O   UNL     1       8.567   7.522  18.844  0.00  0.00    +0.000 OA
ATOM      4  N   UNL     1       7.268   7.736  16.990  0.00  0.00    +0.000 N 
ATOM      5  H   UNL     1       7.728  10.058  17.139  0.00  0.00    +0.000 HD
ATOM      6  H   UNL     1       7.327   8.205  16.098  0.00  0.00    +0.000 HD
ENDROOT
BRANCH   1  11
ATOM      7  C   UNL     1      11.046  11.960  18.639  0.00  0.00    +0.000 A 
ATOM      8  C   UNL     1      10.952  12.023  20.030  0.00  0.00    +0.000 A 
ATOM      9  C   UNL     1       9.981  11.287  20.702  0.00  0.00    +0.000 A 
ATOM     10  C   UNL     1       9.102  10.478  19.985  0.00  0.00    +0.000 A 
ATOM     11  C   UNL     1       9.174  10.403  18.591  0.00  0.00    +0.000 A 
ATOM     12  C   UNL     1      10.154  11.154  17.922  0.00  0.00    +0.000 A 
BRANCH   7  14
ATOM     13  C   UNL     1      11.868  14.129  18.110  0.00  0.00    +0.000 C 
ATOM     14  O   UNL     1      12.053  12.721  18.112  0.00  0.00    +0.000 OA
ENDBRANCH   7  14
ENDBRANCH   1  11
BRANCH   4  15
ATOM     15  C   UNL     1       7.063   6.299  16.972  0.00  0.00    +0.000 C 
BRANCH  15  16
ATOM     16  C   UNL     1       5.715   5.833  17.522  0.00  0.00    +0.000 C 
ATOM     17  C   UNL     1       4.625   6.901  17.378  0.00  0.00    +0.000 C 
ATOM     18  C   UNL     1       3.298   6.419  17.962  0.00  0.00    +0.000 C 
ATOM     19  N   UNL     1       3.459   6.013  19.364  0.00  0.00    +0.000 NA
ATOM     20  C   UNL     1       2.171   5.604  19.924  0.00  0.00    +0.000 C 
ATOM     21  C   UNL     1       4.439   4.925  19.496  0.00  0.00    +0.000 C 
ATOM     22  C   UNL     1       5.810   5.358  18.975  0.00  0.00    +0.000 C 
ENDBRANCH  15  16
ENDBRANCH   4  15
TORSDOF 4
ENDMDL
MODEL 7
REMARK VINA RESULT:      -6.9      2.190      8.629
REMARK  Name = 
REMARK  6 active torsions:
REMARK  status: ('A' for Active; 'I' for Inactive)
REMARK    1  A    between atoms: C_1  and  O_2
REMARK    2  A    between atoms: O_2  and  C_3
REMARK    3  A    between atoms: C_7  and  N_8
REMARK    4  A    between atoms: N_11  and  C_12
REMARK    5  A    between atoms: C_12  and  C_13
REMARK    6  A    between atoms: N_16  and  C_17
REMARK                            x       y       z     vdW  Elec       q    Type
REMARK                         _______ _______ _______ _____ _____    ______ ____
ROOT
ATOM      1  N   UNL     1       8.283   9.663  17.812  0.00  0.00    +0.000 N 
ATOM      2  C   UNL     1       8.107   8.307  17.966  0.00  0.00    +0.000 C 
ATOM      3  O   UNL     1       8.587   7.600  18.846  0.00  0.00    +0.000 OA
ATOM      4  N   UNL     1       7.286   7.779  16.990  0.00  0.00    +0.000 N 
ATOM      5  H   UNL     1       7.688  10.112  17.136  0.00  0.00    +0.000 HD
ATOM      6  H   UNL     1       7.334   8.248  16.097  0.00  0.00    +0.000 HD
ENDROOT
BRANCH   1  11
ATOM      7  C   UNL     1      10.846  12.215  18.631  0.00  0.00    +0.000 A 
ATOM      8  C   UNL     1      10.847  12.173  20.025  0.00  0.00    +0.000 A 
ATOM      9  C   UNL     1       9.998  11.305  20.704  0.00  0.00    +0.000 A 
ATOM     10  C   UNL     1       9.145  10.467  19.987  0.00  0.00    +0.000 A 
ATOM     11  C   UNL     1       9.122  10.496  18.589  0.00  0.00    +0.000 A 
ATOM     12  C   UNL     1       9.979  11.380  17.916  0.00  0.00    +0.000 A 
BRANCH   7  14
ATOM     13  C   UNL     1      11.792  13.197  16.681  0.00  0.00    +0.000 C 
ATOM     14  O   UNL     1      11.739  13.103  18.096  0.00  0.00    +0.000 OA
ENDBRANCH   7  14
ENDBRANCH   1  11
BRANCH   4  15
ATOM     15  C   UNL     1       7.118   6.337  16.974  0.00  0.00    +0.000 C 
BRANCH  15  16
ATOM     16  C   UNL     1       5.670   5.858  16.864  0.00  0.00    +0.000 C 
ATOM     17  C   UNL     1       4.759   6.504  17.915  0.00  0.00    +0.000 C 
ATOM     18  C   UNL     1       3.327   5.985  17.799  0.00  0.00    +0.000 C 
ATOM     19  N   UNL     1       3.291   4.520  17.896  0.00  0.00    +0.000 NA
ATOM     20  C   UNL     1       1.910   4.043  17.836  0.00  0.00    +0.000 C 
ATOM     21  C   UNL     1       4.091   3.895  16.831  0.00  0.00    +0.000 C 
ATOM     22  C   UNL     1       5.553   4.332  16.919  0.00  0.00    +0.000 C 
ENDBRANCH  15  16
ENDBRANCH   4  15
TORSDOF 4
ENDMDL
MODEL 8
REMARK VINA RESULT:      -6.9      1.437      2.440
REMARK  Name = 
REMARK  6 active torsions:
REMARK  status: ('A' for Active; 'I' for Inactive)
REMARK    1  A    between atoms: C_1  and  O_2
REMARK    2  A    between atoms: O_2  and  C_3
REMARK    3  A    between atoms: C_7  and  N_8
REMARK    4  A    between atoms: N_11  and  C_12
REMARK    5  A    between atoms: C_12  and  C_13
REMARK    6  A    between atoms: N_16  and  C_17
REMARK                            x       y       z     vdW  Elec       q    Type
REMARK                         _______ _______ _______ _____ _____    ______ ____
ROOT
ATOM      1  N   UNL     1       6.776   7.738  17.046  0.00  0.00    +0.000 N 
ATOM      2  C   UNL     1       7.783   7.935  17.962  0.00  0.00    +0.000 C 
ATOM      3  O   UNL     1       8.274   7.094  18.706  0.00  0.00    +0.000 OA
ATOM      4  N   UNL     1       8.227   9.243  17.967  0.00  0.00    +0.000 N 
ATOM      5  H   UNL     1       6.606   8.495  16.405  0.00  0.00    +0.000 HD
ATOM      6  H   UNL     1       7.523   9.930  17.738  0.00  0.00    +0.000 HD
ENDROOT
BRANCH   1  11
ATOM      7  C   UNL     1       5.854   4.432  15.642  0.00  0.00    +0.000 A 
ATOM      8  C   UNL     1       4.676   4.151  16.335  0.00  0.00    +0.000 A 
ATOM      9  C   UNL     1       4.182   5.050  17.274  0.00  0.00    +0.000 A 
ATOM     10  C   UNL     1       4.863   6.241  17.521  0.00  0.00    +0.000 A 
ATOM     11  C   UNL     1       6.048   6.541  16.842  0.00  0.00    +0.000 A 
ATOM     12  C   UNL     1       6.541   5.624  15.901  0.00  0.00    +0.000 A 
BRANCH   7  14
ATOM     13  C   UNL     1       6.149   3.812  13.364  0.00  0.00    +0.000 C 
ATOM     14  O   UNL     1       6.216   3.469  14.740  0.00  0.00    +0.000 OA
ENDBRANCH   7  14
ENDBRANCH   1  11
BRANCH   4  15
ATOM     15  C   UNL     1       9.208   9.607  18.973  0.00  0.00    +0.000 C 
BRANCH  15  16
ATOM     16  C   UNL     1       9.687  11.057  18.911  0.00  0.00    +0.000 C 
ATOM     17  C   UNL     1       9.676  11.736  20.287  0.00  0.00    +0.000 C 
ATOM     18  C   UNL     1      10.130  13.191  20.189  0.00  0.00    +0.000 C 
ATOM     19  N   UNL     1       9.308  13.934  19.225  0.00  0.00    +0.000 NA
ATOM     20  C   UNL     1       9.721  15.336  19.182  0.00  0.00    +0.000 C 
ATOM     21  C   UNL     1       9.389  13.338  17.883  0.00  0.00    +0.000 C 
ATOM     22  C   UNL     1       8.897  11.890  17.897  0.00  0.00    +0.000 C 
ENDBRANCH  15  16
ENDBRANCH   4  15
TORSDOF 4
ENDMDL
MODEL 9
REMARK VINA RESULT:      -6.6      5.824      7.912
REMARK  Name = 
REMARK  6 active torsions:
REMARK  status: ('A' for Active; 'I' for Inactive)
REMARK    1  A    between atoms: C_1  and  O_2
REMARK    2  A    between atoms: O_2  and  C_3
REMARK    3  A    between atoms: C_7  and  N_8
REMARK    4  A    between atoms: N_11  and  C_12
REMARK    5  A    between atoms: C_12  and  C_13
REMARK    6  A    between atoms: N_16  and  C_17
REMARK                            x       y       z     vdW  Elec       q    Type
REMARK                         _______ _______ _______ _____ _____    ______ ____
ROOT
ATOM      1  N   UNL     1       2.900   6.814  18.923  0.00  0.00    +0.000 N 
ATOM      2  C   UNL     1       2.123   6.771  20.057  0.00  0.00    +0.000 C 
ATOM      3  O   UNL     1       1.800   5.770  20.688  0.00  0.00    +0.000 OA
ATOM      4  N   UNL     1       1.717   8.030  20.453  0.00  0.00    +0.000 N 
ATOM      5  H   UNL     1       3.202   7.728  18.628  0.00  0.00    +0.000 HD
ATOM      6  H   UNL     1       1.587   8.689  19.699  0.00  0.00    +0.000 HD
ENDROOT
BRANCH   1  11
ATOM      7  C   UNL     1       5.331   4.652  17.143  0.00  0.00    +0.000 A 
ATOM      8  C   UNL     1       4.529   3.569  16.780  0.00  0.00    +0.000 A 
ATOM      9  C   UNL     1       3.182   3.544  17.125  0.00  0.00    +0.000 A 
ATOM     10  C   UNL     1       2.627   4.610  17.833  0.00  0.00    +0.000 A 
ATOM     11  C   UNL     1       3.412   5.703  18.212  0.00  0.00    +0.000 A 
ATOM     12  C   UNL     1       4.771   5.714  17.863  0.00  0.00    +0.000 A 
BRANCH   7  14
ATOM     13  C   UNL     1       7.638   4.628  17.724  0.00  0.00    +0.000 C 
ATOM     14  O   UNL     1       6.630   4.551  16.727  0.00  0.00    +0.000 OA
ENDBRANCH   7  14
ENDBRANCH   1  11
BRANCH   4  15
ATOM     15  C   UNL     1       0.793   8.109  21.570  0.00  0.00    +0.000 C 
BRANCH  15  16
ATOM     16  C   UNL     1       0.014   9.420  21.670  0.00  0.00    +0.000 C 
ATOM     17  C   UNL     1       0.825  10.622  21.173  0.00  0.00    +0.000 C 
ATOM     18  C   UNL     1       0.032  11.920  21.313  0.00  0.00    +0.000 C 
ATOM     19  N   UNL     1      -0.409  12.118  22.699  0.00  0.00    +0.000 NA
ATOM     20  C   UNL     1      -1.121  13.389  22.828  0.00  0.00    +0.000 C 
ATOM     21  C   UNL     1      -1.264  11.009  23.150  0.00  0.00    +0.000 C 
ATOM     22  C   UNL     1      -0.513   9.679  23.085  0.00  0.00    +0.000 C 
ENDBRANCH  15  16
ENDBRANCH   4  15
TORSDOF 4
ENDMDL
