MODEL 1
REMARK VINA RESULT:      -7.2      0.000      0.000
REMARK  Name = 
REMARK  5 active torsions:
REMARK  status: ('A' for Active; 'I' for Inactive)
REMARK    1  A    between atoms: C_1  and  O_2
REMARK    2  A    between atoms: O_2  and  C_3
REMARK    3  A    between atoms: C_6  and  S_7
REMARK    4  A    between atoms: S_7  and  N_10
REMARK    5  A    between atoms: C_13  and  N_14
REMARK                            x       y       z     vdW  Elec       q    Type
REMARK                         _______ _______ _______ _____ _____    ______ ____
ROOT
ATOM      1  S   UNL     1       5.280   4.859  17.665  0.00  0.00    +0.000 S 
ATOM      2  O   UNL     1       6.254   4.156  18.478  0.00  0.00    +0.000 OA
ATOM      3  O   UNL     1       4.969   6.249  17.915  0.00  0.00    +0.000 OA
ENDROOT
BRANCH   1   7
ATOM      4  C   UNL     1       6.719   4.322  13.338  0.00  0.00    +0.000 A 
ATOM      5  C   UNL     1       7.551   4.941  14.279  0.00  0.00    +0.000 A 
ATOM      6  C   UNL     1       7.126   5.134  15.601  0.00  0.00    +0.000 A 
ATOM      7  C   UNL     1       5.840   4.734  15.969  0.00  0.00    +0.000 A 
ATOM      8  C   UNL     1       5.002   4.120  15.030  0.00  0.00    +0.000 A 
ATOM      9  C   UNL     1       5.439   3.923  13.716  0.00  0.00    +0.000 A 
BRANCH   4  11
ATOM     10  C   UNL     1       7.107   2.901  11.479  0.00  0.00    +0.000 C 
ATOM     11  O   UNL     1       7.259   4.183  12.091  0.00  0.00    +0.000 OA
ENDBRANCH   4  11
ENDBRANCH   1   7
BRANCH   1  12
ATOM     12  N   UNL     1       3.818   3.954  17.721  0.00  0.00    +0.000 NA
ATOM     13  C   UNL     1       3.829   2.827  18.674  0.00  0.00    +0.000 C 
ATOM     14  C   UNL     1       2.562   1.988  18.617  0.00  0.00    +0.000 C 
ATOM     15  C   UNL     1       1.269   2.796  18.720  0.00  0.00    +0.000 C 
ATOM     16  C   UNL     1       1.301   3.911  17.666  0.00  0.00    +0.000 C 
ATOM     17  C   UNL     1       2.570   4.753  17.631  0.00  0.00    +0.000 C 
BRANCH  15  18
ATOM     18  N   UNL     1       0.804   3.226  20.053  0.00  0.00    +0.000 NA
ATOM     19  C   UNL     1       0.924   4.622  20.457  0.00  0.00    +0.000 C 
ATOM     20  C   UNL     1       2.207   4.733  21.263  0.00  0.00    +0.000 C 
ATOM     21  C   UNL     1       2.419   3.350  21.847  0.00  0.00    +0.000 C 
ATOM     22  C   UNL     1       1.398   2.453  21.159  0.00  0.00    +0.000 C 
ENDBRANCH  15  18
ENDBRANCH   1  12
TORSDOF 4
ENDMDL
MODEL 2
REMARK VINA RESULT:      -7.2      0.349      1.043
REMARK  Name = 
REMARK  5 active torsions:
REMARK  status: ('A' for Active; 'I' for Inactive)
REMARK    1  A    between atoms: C_1  and  O_2
REMARK    2  A    between atoms: O_2  and  C_3
REMARK    3  A    between atoms: C_6  and  S_7
REMARK    4  A    between atoms: S_7  and  N_10
REMARK    5  A    between atoms: C_13  and  N_14
REMARK                            x       y       z     vdW  Elec       q    Type
REMARK                         _______ _______ _______ _____ _____    ______ ____
ROOT
ATOM      1  S   UNL     1       5.439   4.822  17.718  0.00  0.00    +0.000 S 
ATOM      2  O   UNL     1       6.279   4.031  18.595  0.00  0.00    +0.000 OA
ATOM      3  O   UNL     1       5.250   6.238  17.946  0.00  0.00    +0.000 OA
ENDROOT
BRANCH   1   7
ATOM      4  C   UNL     1       7.047   4.531  13.426  0.00  0.00    +0.000 A 
ATOM      5  C   UNL     1       6.062   3.637  13.865  0.00  0.00    +0.000 A 
ATOM      6  C   UNL     1       5.571   3.693  15.178  0.00  0.00    +0.000 A 
ATOM      7  C   UNL     1       6.101   4.633  16.064  0.00  0.00    +0.000 A 
ATOM      8  C   UNL     1       7.089   5.525  15.631  0.00  0.00    +0.000 A 
ATOM      9  C   UNL     1       7.566   5.467  14.318  0.00  0.00    +0.000 A 
BRANCH   4  11
ATOM     10  C   UNL     1       7.049   3.150  11.498  0.00  0.00    +0.000 C 
ATOM     11  O   UNL     1       7.427   4.377  12.123  0.00  0.00    +0.000 OA
ENDBRANCH   4  11
ENDBRANCH   1   7
BRANCH   1  12
ATOM     12  N   UNL     1       3.894   4.066  17.670  0.00  0.00    +0.000 NA
ATOM     13  C   UNL     1       3.781   2.846  18.493  0.00  0.00    +0.000 C 
ATOM     14  C   UNL     1       2.439   2.149  18.340  0.00  0.00    +0.000 C 
ATOM     15  C   UNL     1       1.231   3.064  18.528  0.00  0.00    +0.000 C 
ATOM     16  C   UNL     1       1.386   4.280  17.603  0.00  0.00    +0.000 C 
ATOM     17  C   UNL     1       2.732   4.990  17.665  0.00  0.00    +0.000 C 
BRANCH  15  18
ATOM     18  N   UNL     1       0.791   3.390  19.899  0.00  0.00    +0.000 NA
ATOM     19  C   UNL     1       1.010   4.727  20.441  0.00  0.00    +0.000 C 
ATOM     20  C   UNL     1       2.295   4.662  21.251  0.00  0.00    +0.000 C 
ATOM     21  C   UNL     1       2.403   3.215  21.692  0.00  0.00    +0.000 C 
ATOM     22  C   UNL     1       1.323   2.469  20.919  0.00  0.00    +0.000 C 
ENDBRANCH  15  18
ENDBRANCH   1  12
TORSDOF 4
ENDMDL
MODEL 3
REMARK VINA RESULT:      -7.1      3.217      5.329
REMARK  Name = 
REMARK  5 active torsions:
REMARK  status: ('A' for Active; 'I' for Inactive)
REMARK    1  A    between atoms: C_1  and  O_2
REMARK    2  A    between atoms: O_2  and  C_3
REMARK    3  A    between atoms: C_6  and  S_7
REMARK    4  A    between atoms: S_7  and  N_10
REMARK    5  A    between atoms: C_13  and  N_14
REMARK                            x       y       z     vdW  Elec       q    Type
REMARK                         _______ _______ _______ _____ _____    ______ ____
ROOT
ATOM      1  S   UNL     1       4.756   5.865  17.660  0.00  0.00    +0.000 S 
ATOM      2  O   UNL     1       4.889   6.122  16.240  0.00  0.00    +0.000 OA
ATOM      3  O   UNL     1       5.874   6.051  18.558  0.00  0.00    +0.000 OA
ENDROOT
BRANCH   1   7
ATOM      4  C   UNL     1       1.464   8.698  19.152  0.00  0.00    +0.000 A 
ATOM      5  C   UNL     1       2.008   7.741  20.018  0.00  0.00    +0.000 A 
ATOM      6  C   UNL     1       2.999   6.851  19.579  0.00  0.00    +0.000 A 
ATOM      7  C   UNL     1       3.420   6.903  18.249  0.00  0.00    +0.000 A 
ATOM      8  C   UNL     1       2.876   7.854  17.378  0.00  0.00    +0.000 A 
ATOM      9  C   UNL     1       1.895   8.743  17.827  0.00  0.00    +0.000 A 
BRANCH   4  11
ATOM     10  C   UNL     1       0.165   9.228  21.064  0.00  0.00    +0.000 C 
ATOM     11  O   UNL     1       0.517   9.510  19.708  0.00  0.00    +0.000 OA
ENDBRANCH   4  11
ENDBRANCH   1   7
BRANCH   1  12
ATOM     12  N   UNL     1       4.179   4.253  17.835  0.00  0.00    +0.000 NA
ATOM     13  C   UNL     1       4.622   3.572  19.067  0.00  0.00    +0.000 C 
ATOM     14  C   UNL     1       4.182   2.118  19.134  0.00  0.00    +0.000 C 
ATOM     15  C   UNL     1       2.692   1.901  18.880  0.00  0.00    +0.000 C 
ATOM     16  C   UNL     1       2.314   2.584  17.558  0.00  0.00    +0.000 C 
ATOM     17  C   UNL     1       2.776   4.027  17.404  0.00  0.00    +0.000 C 
BRANCH  15  18
ATOM     18  N   UNL     1       1.741   2.134  19.984  0.00  0.00    +0.000 NA
ATOM     19  C   UNL     1       0.656   3.096  19.827  0.00  0.00    +0.000 C 
ATOM     20  C   UNL     1       1.138   4.400  20.443  0.00  0.00    +0.000 C 
ATOM     21  C   UNL     1       2.157   3.982  21.486  0.00  0.00    +0.000 C 
ATOM     22  C   UNL     1       2.395   2.496  21.255  0.00  0.00    +0.000 C 
ENDBRANCH  15  18
ENDBRANCH   1  12
TORSDOF 4
ENDMDL
MODEL 4
REMARK VINA RESULT:      -7.0      1.612      2.565
REMARK  Name = 
REMARK  5 active torsions:
REMARK  status: ('A' for Active; 'I' for Inactive)
REMARK    1  A    between atoms: C_1  and  O_2
REMARK    2  A    between atoms: O_2  and  C_3
REMARK    3  A    between atoms: C_6  and  S_7
REMARK    4  A    between atoms: S_7  and  N_10
REMARK    5  A    between atoms: C_13  and  N_14
REMARK                            x       y       z     vdW  Elec       q    Type
REMARK                         _______ _______ _______ _____ _____    ______ ____
ROOT
ATOM      1  S   UNL     1       6.854   5.493  17.806  0.00  0.00    +0.000 S 
ATOM      2  O   UNL     1       7.460   4.385  18.518  0.00  0.00    +0.000 OA
ATOM      3  O   UNL     1       7.503   6.785  17.750  0.00  0.00    +0.000 OA
ENDROOT
BRANCH   1   7
ATOM      4  C   UNL     1       6.318   3.906  13.530  0.00  0.00    +0.000 A 
ATOM      5  C   UNL     1       7.177   4.986  13.772  0.00  0.00    +0.000 A 
ATOM      6  C   UNL     1       7.341   5.501  15.066  0.00  0.00    +0.000 A 
ATOM      7  C   UNL     1       6.607   4.948  16.118  0.00  0.00    +0.000 A 
ATOM      8  C   UNL     1       5.744   3.872  15.880  0.00  0.00    +0.000 A 
ATOM      9  C   UNL     1       5.594   3.360  14.587  0.00  0.00    +0.000 A 
BRANCH   4  11
ATOM     10  C   UNL     1       4.981   3.057  11.765  0.00  0.00    +0.000 C 
ATOM     11  O   UNL     1       6.260   3.494  12.229  0.00  0.00    +0.000 OA
ENDBRANCH   4  11
ENDBRANCH   1   7
BRANCH   1  12
ATOM     12  N   UNL     1       5.270   5.706  18.442  0.00  0.00    +0.000 NA
ATOM     13  C   UNL     1       4.285   6.229  17.476  0.00  0.00    +0.000 C 
ATOM     14  C   UNL     1       2.927   6.505  18.103  0.00  0.00    +0.000 C 
ATOM     15  C   UNL     1       2.357   5.336  18.906  0.00  0.00    +0.000 C 
ATOM     16  C   UNL     1       3.410   4.882  19.927  0.00  0.00    +0.000 C 
ATOM     17  C   UNL     1       4.809   4.645  19.373  0.00  0.00    +0.000 C 
BRANCH  15  18
ATOM     18  N   UNL     1       1.689   4.236  18.185  0.00  0.00    +0.000 NA
ATOM     19  C   UNL     1       0.993   3.189  18.925  0.00  0.00    +0.000 C 
ATOM     20  C   UNL     1       1.969   2.031  19.060  0.00  0.00    +0.000 C 
ATOM     21  C   UNL     1       2.899   2.168  17.870  0.00  0.00    +0.000 C 
ATOM     22  C   UNL     1       2.578   3.522  17.251  0.00  0.00    +0.000 C 
ENDBRANCH  15  18
ENDBRANCH   1  12
TORSDOF 4
ENDMDL
MODEL 5
REMARK VINA RESULT:      -7.0      1.677      2.759
REMARK  Name = 
REMARK  5 active torsions:
REMARK  status: ('A' for Active; 'I' for Inactive)
REMARK    1  A    between atoms: C_1  and  O_2
REMARK    2  A    between atoms: O_2  and  C_3
REMARK    3  A    between atoms: C_6  and  S_7
REMARK    4  A    between atoms: S_7  and  N_10
REMARK    5  A    between atoms: C_13  and  N_14
REMARK                            x       y       z     vdW  Elec       q    Type
REMARK                         _______ _______ _______ _____ _____    ______ ____
ROOT
ATOM      1  S   UNL     1       6.912   5.545  17.671  0.00  0.00    +0.000 S 
ATOM      2  O   UNL     1       7.581   4.558  18.495  0.00  0.00    +0.000 OA
ATOM      3  O   UNL     1       7.486   6.858  17.470  0.00  0.00    +0.000 OA
ENDROOT
BRANCH   1   7
ATOM      4  C   UNL     1       6.258   3.831  13.461  0.00  0.00    +0.000 A 
ATOM      5  C   UNL     1       5.596   3.264  14.557  0.00  0.00    +0.000 A 
ATOM      6  C   UNL     1       5.796   3.757  15.855  0.00  0.00    +0.000 A 
ATOM      7  C   UNL     1       6.696   4.805  16.054  0.00  0.00    +0.000 A 
ATOM      8  C   UNL     1       7.364   5.372  14.962  0.00  0.00    +0.000 A 
ATOM      9  C   UNL     1       7.151   4.880  13.671  0.00  0.00    +0.000 A 
BRANCH   4  11
ATOM     10  C   UNL     1       4.606   3.369  11.824  0.00  0.00    +0.000 C 
ATOM     11  O   UNL     1       5.965   3.266  12.252  0.00  0.00    +0.000 OA
ENDBRANCH   4  11
ENDBRANCH   1   7
BRANCH   1  12
ATOM     12  N   UNL     1       5.319   5.735  18.292  0.00  0.00    +0.000 NA
ATOM     13  C   UNL     1       4.330   6.218  17.309  0.00  0.00    +0.000 C 
ATOM     14  C   UNL     1       2.962   6.476  17.920  0.00  0.00    +0.000 C 
ATOM     15  C   UNL     1       2.411   5.311  18.741  0.00  0.00    +0.000 C 
ATOM     16  C   UNL     1       3.466   4.898  19.777  0.00  0.00    +0.000 C 
ATOM     17  C   UNL     1       4.874   4.681  19.238  0.00  0.00    +0.000 C 
BRANCH  15  18
ATOM     18  N   UNL     1       1.772   4.183  18.035  0.00  0.00    +0.000 NA
ATOM     19  C   UNL     1       0.981   3.208  18.776  0.00  0.00    +0.000 C 
ATOM     20  C   UNL     1       1.902   2.035  19.072  0.00  0.00    +0.000 C 
ATOM     21  C   UNL     1       2.936   2.066  17.965  0.00  0.00    +0.000 C 
ATOM     22  C   UNL     1       2.716   3.384  17.233  0.00  0.00    +0.000 C 
ENDBRANCH  15  18
ENDBRANCH   1  12
TORSDOF 4
ENDMDL
MODEL 6
REMARK VINA RESULT:      -7.0      1.781      2.715
REMARK  Name = 
REMARK  5 active torsions:
REMARK  status: ('A' for Active; 'I' for Inactive)
REMARK    1  A    between atoms: C_1  and  O_2
REMARK    2  A    between atoms: O_2  and  C_3
REMARK    3  A    between atoms: C_6  and  S_7
REMARK    4  A    between atoms: S_7  and  N_10
REMARK    5  A    between atoms: C_13  and  N_14
REMARK                            x       y       z     vdW  Elec       q    Type
REMARK                         _______ _______ _______ _____ _____    ______ ____
ROOT
ATOM      1  S   UNL     1       7.298   5.546  16.799  0.00  0.00    +0.000 S 
ATOM      2  O   UNL     1       8.132   4.608  17.523  0.00  0.00    +0.000 OA
ATOM      3  O   UNL     1       7.779   6.872  16.474  0.00  0.00    +0.000 OA
ENDROOT
BRANCH   1   7
ATOM      4  C   UNL     1       6.048   3.697  12.786  0.00  0.00    +0.000 A 
ATOM      5  C   UNL     1       5.453   3.255  13.974  0.00  0.00    +0.000 A 
ATOM      6  C   UNL     1       5.834   3.790  15.214  0.00  0.00    +0.000 A 
ATOM      7  C   UNL     1       6.845   4.752  15.259  0.00  0.00    +0.000 A 
ATOM      8  C   UNL     1       7.446   5.193  14.074  0.00  0.00    +0.000 A 
ATOM      9  C   UNL     1       7.054   4.660  12.843  0.00  0.00    +0.000 A 
BRANCH   4  11
ATOM     10  C   UNL     1       4.177   3.235  11.404  0.00  0.00    +0.000 C 
ATOM     11  O   UNL     1       5.578   3.104  11.648  0.00  0.00    +0.000 OA
ENDBRANCH   4  11
ENDBRANCH   1   7
BRANCH   1  12
ATOM     12  N   UNL     1       5.823   5.701  17.672  0.00  0.00    +0.000 NA
ATOM     13  C   UNL     1       4.626   5.883  16.829  0.00  0.00    +0.000 C 
ATOM     14  C   UNL     1       3.361   6.123  17.638  0.00  0.00    +0.000 C 
ATOM     15  C   UNL     1       3.117   5.095  18.742  0.00  0.00    +0.000 C 
ATOM     16  C   UNL     1       4.379   5.000  19.612  0.00  0.00    +0.000 C 
ATOM     17  C   UNL     1       5.689   4.817  18.858  0.00  0.00    +0.000 C 
BRANCH  15  18
ATOM     18  N   UNL     1       2.520   3.794  18.383  0.00  0.00    +0.000 NA
ATOM     19  C   UNL     1       1.070   3.640  18.336  0.00  0.00    +0.000 C 
ATOM     20  C   UNL     1       0.651   3.060  19.677  0.00  0.00    +0.000 C 
ATOM     21  C   UNL     1       1.868   2.300  20.169  0.00  0.00    +0.000 C 
ATOM     22  C   UNL     1       2.998   2.679  19.221  0.00  0.00    +0.000 C 
ENDBRANCH  15  18
ENDBRANCH   1  12
TORSDOF 4
ENDMDL
MODEL 7
REMARK VINA RESULT:      -6.9      1.756      2.507
REMARK  Name = 
REMARK  5 active torsions:
REMARK  status: ('A' for Active; 'I' for Inactive)
REMARK    1  A    between atoms: C_1  and  O_2
REMARK    2  A    between atoms: O_2  and  C_3
REMARK    3  A    between atoms: C_6  and  S_7
REMARK    4  A    between atoms: S_7  and  N_10
REMARK    5  A    between atoms: C_13  and  N_14
REMARK                            x       y       z     vdW  Elec       q    Type
REMARK                         _______ _______ _______ _____ _____    ______ ____
ROOT
ATOM      1  S   UNL     1       7.275   5.529  16.721  0.00  0.00    +0.000 S 
ATOM      2  O   UNL     1       8.097   4.512  17.345  0.00  0.00    +0.000 OA
ATOM      3  O   UNL     1       7.802   6.850  16.453  0.00  0.00    +0.000 OA
ENDROOT
BRANCH   1   7
ATOM      4  C   UNL     1       5.900   3.598  12.789  0.00  0.00    +0.000 A 
ATOM      5  C   UNL     1       6.970   4.502  12.787  0.00  0.00    +0.000 A 
ATOM      6  C   UNL     1       7.394   5.120  13.972  0.00  0.00    +0.000 A 
ATOM      7  C   UNL     1       6.713   4.853  15.161  0.00  0.00    +0.000 A 
ATOM      8  C   UNL     1       5.640   3.955  15.167  0.00  0.00    +0.000 A 
ATOM      9  C   UNL     1       5.230   3.336  13.982  0.00  0.00    +0.000 A 
BRANCH   4  11
ATOM     10  C   UNL     1       5.894   1.670  11.408  0.00  0.00    +0.000 C 
ATOM     11  O   UNL     1       5.597   3.058  11.571  0.00  0.00    +0.000 OA
ENDBRANCH   4  11
ENDBRANCH   1   7
BRANCH   1  12
ATOM     12  N   UNL     1       5.852   5.694  17.675  0.00  0.00    +0.000 NA
ATOM     13  C   UNL     1       4.607   5.850  16.899  0.00  0.00    +0.000 C 
ATOM     14  C   UNL     1       3.389   6.100  17.774  0.00  0.00    +0.000 C 
ATOM     15  C   UNL     1       3.217   5.096  18.912  0.00  0.00    +0.000 C 
ATOM     16  C   UNL     1       4.527   5.027  19.709  0.00  0.00    +0.000 C 
ATOM     17  C   UNL     1       5.794   4.836  18.885  0.00  0.00    +0.000 C 
BRANCH  15  18
ATOM     18  N   UNL     1       2.610   3.783  18.617  0.00  0.00    +0.000 NA
ATOM     19  C   UNL     1       1.163   3.659  18.479  0.00  0.00    +0.000 C 
ATOM     20  C   UNL     1       0.636   3.200  19.828  0.00  0.00    +0.000 C 
ATOM     21  C   UNL     1       1.793   2.455  20.464  0.00  0.00    +0.000 C 
ATOM     22  C   UNL     1       2.997   2.730  19.572  0.00  0.00    +0.000 C 
ENDBRANCH  15  18
ENDBRANCH   1  12
TORSDOF 4
ENDMDL
MODEL 8
REMARK VINA RESULT:      -6.8      0.802      1.363
REMARK  Name = 
REMARK  5 active torsions:
REMARK  status: ('A' for Active; 'I' for Inactive)
REMARK    1  A    between atoms: C_1  and  O_2
REMARK    2  A    between atoms: O_2  and  C_3
REMARK    3  A    between atoms: C_6  and  S_7
REMARK    4  A    between atoms: S_7  and  N_10
REMARK    5  A    between atoms: C_13  and  N_14
REMARK                            x       y       z     vdW  Elec       q    Type
REMARK                         _______ _______ _______ _____ _____    ______ ____
ROOT
ATOM      1  S   UNL     1       5.221   5.128  17.450  0.00  0.00    +0.000 S 
ATOM      2  O   UNL     1       6.351   5.231  18.352  0.00  0.00    +0.000 OA
ATOM      3  O   UNL     1       4.282   6.219  17.307  0.00  0.00    +0.000 OA
ENDROOT
BRANCH   1   7
ATOM      4  C   UNL     1       6.881   4.445  13.223  0.00  0.00    +0.000 A 
ATOM      5  C   UNL     1       5.741   3.751  13.647  0.00  0.00    +0.000 A 
ATOM      6  C   UNL     1       5.228   3.927  14.940  0.00  0.00    +0.000 A 
ATOM      7  C   UNL     1       5.889   4.782  15.824  0.00  0.00    +0.000 A 
ATOM      8  C   UNL     1       7.032   5.474  15.407  0.00  0.00    +0.000 A 
ATOM      9  C   UNL     1       7.530   5.299  14.113  0.00  0.00    +0.000 A 
BRANCH   4  11
ATOM     10  C   UNL     1       7.019   2.872  11.454  0.00  0.00    +0.000 C 
ATOM     11  O   UNL     1       7.268   4.192  11.938  0.00  0.00    +0.000 OA
ENDBRANCH   4  11
ENDBRANCH   1   7
BRANCH   1  12
ATOM     12  N   UNL     1       4.347   3.710  17.885  0.00  0.00    +0.000 NA
ATOM     13  C   UNL     1       4.607   3.225  19.254  0.00  0.00    +0.000 C 
ATOM     14  C   UNL     1       3.901   1.914  19.562  0.00  0.00    +0.000 C 
ATOM     15  C   UNL     1       2.407   1.914  19.242  0.00  0.00    +0.000 C 
ATOM     16  C   UNL     1       2.216   2.373  17.790  0.00  0.00    +0.000 C 
ATOM     17  C   UNL     1       2.945   3.652  17.399  0.00  0.00    +0.000 C 
BRANCH  15  18
ATOM     18  N   UNL     1       1.473   2.527  20.207  0.00  0.00    +0.000 NA
ATOM     19  C   UNL     1       0.809   3.785  19.886  0.00  0.00    +0.000 C 
ATOM     20  C   UNL     1       1.634   4.889  20.527  0.00  0.00    +0.000 C 
ATOM     21  C   UNL     1       2.321   4.225  21.704  0.00  0.00    +0.000 C 
ATOM     22  C   UNL     1       2.062   2.732  21.542  0.00  0.00    +0.000 C 
ENDBRANCH  15  18
ENDBRANCH   1  12
TORSDOF 4
ENDMDL
MODEL 9
REMARK VINA RESULT:      -6.8      2.674      3.555
REMARK  Name = 
REMARK  5 active torsions:
REMARK  status: ('A' for Active; 'I' for Inactive)
REMARK    1  A    between atoms: C_1  and  O_2
REMARK    2  A    between atoms: O_2  and  C_3
REMARK    3  A    between atoms: C_6  and  S_7
REMARK    4  A    between atoms: S_7  and  N_10
REMARK    5  A    between atoms: C_13  and  N_14
REMARK                            x       y       z     vdW  Elec       q    Type
REMARK                         _______ _______ _______ _____ _____    ______ ____
ROOT
ATOM      1  S   UNL     1       5.400   4.598  19.016  0.00  0.00    +0.000 S 
ATOM      2  O   UNL     1       5.283   3.244  19.519  0.00  0.00    +0.000 OA
ATOM      3  O   UNL     1       6.281   5.555  19.650  0.00  0.00    +0.000 OA
ENDROOT
BRANCH   1   7
ATOM      4  C   UNL     1       6.661   4.483  14.602  0.00  0.00    +0.000 A 
ATOM      5  C   UNL     1       5.453   3.896  14.999  0.00  0.00    +0.000 A 
ATOM      6  C   UNL     1       5.057   3.901  16.344  0.00  0.00    +0.000 A 
ATOM      7  C   UNL     1       5.900   4.469  17.301  0.00  0.00    +0.000 A 
ATOM      8  C   UNL     1       7.111   5.052  16.909  0.00  0.00    +0.000 A 
ATOM      9  C   UNL     1       7.494   5.050  15.565  0.00  0.00    +0.000 A 
BRANCH   4  11
ATOM     10  C   UNL     1       6.174   3.456  12.520  0.00  0.00    +0.000 C 
ATOM     11  O   UNL     1       6.922   4.421  13.262  0.00  0.00    +0.000 OA
ENDBRANCH   4  11
ENDBRANCH   1   7
BRANCH   1  12
ATOM     12  N   UNL     1       3.814   5.265  18.969  0.00  0.00    +0.000 NA
ATOM     13  C   UNL     1       3.082   5.199  20.249  0.00  0.00    +0.000 C 
ATOM     14  C   UNL     1       1.650   5.698  20.140  0.00  0.00    +0.000 C 
ATOM     15  C   UNL     1       1.512   7.072  19.487  0.00  0.00    +0.000 C 
ATOM     16  C   UNL     1       2.245   7.050  18.138  0.00  0.00    +0.000 C 
ATOM     17  C   UNL     1       3.668   6.506  18.168  0.00  0.00    +0.000 C 
BRANCH  15  18
ATOM     18  N   UNL     1       1.763   8.276  20.302  0.00  0.00    +0.000 NA
ATOM     19  C   UNL     1       1.367   8.307  21.705  0.00  0.00    +0.000 C 
ATOM     20  C   UNL     1       0.010   8.990  21.759  0.00  0.00    +0.000 C 
ATOM     21  C   UNL     1      -0.019   9.892  20.541  0.00  0.00    +0.000 C 
ATOM     22  C   UNL     1       1.203   9.507  19.716  0.00  0.00    +0.000 C 
ENDBRANCH  15  18
ENDBRANCH   1  12
TORSDOF 4
ENDMDL
