MODEL 1
REMARK VINA RESULT:      -8.3      0.000      0.000
REMARK  Name = 
REMARK  6 active torsions:
REMARK  status: ('A' for Active; 'I' for Inactive)
REMARK    1  A    between atoms: C_2  and  O_3
REMARK    2  A    between atoms: C_2  and  C_4
REMARK    3  A    between atoms: C_9  and  S_10
REMARK    4  A    between atoms: S_10  and  C_11
REMARK    5  A    between atoms: N_15  and  C_16
REMARK    6  A    between atoms: C_20  and  C_21
REMARK                            x       y       z     vdW  Elec       q    Type
REMARK                         _______ _______ _______ _____ _____    ______ ____
ROOT
ATOM      1  C   UNL     1       5.931   5.911  17.997  0.00  0.00    +0.000 C 
ATOM      2  C   UNL     1       4.950   6.835  17.330  0.00  0.00    +0.000 C 
ATOM      3  C   UNL     1       5.187   6.602  15.866  0.00  0.00    +0.000 C 
ATOM      4  O   UNL     1       4.672   7.334  15.028  0.00  0.00    +0.000 OA
ATOM      5  N   UNL     1       6.044   5.531  15.686  0.00  0.00    +0.000 N 
ATOM      6  C   UNL     1       6.528   5.076  16.900  0.00  0.00    +0.000 C 
ATOM      7  O   UNL     1       7.368   4.212  17.123  0.00  0.00    +0.000 OA
ENDROOT
BRANCH   5   8
ATOM      8  C   UNL     1       6.376   4.961  14.407  0.00  0.00    +0.000 A 
ATOM      9  C   UNL     1       7.613   5.211  13.789  0.00  0.00    +0.000 A 
ATOM     10  C   UNL     1       7.901   4.763  12.494  0.00  0.00    +0.000 A 
ATOM     11  C   UNL     1       6.948   4.061  11.769  0.00  0.00    +0.000 A 
ATOM     12  C   UNL     1       5.709   3.774  12.347  0.00  0.00    +0.000 A 
ATOM     13  C   UNL     1       5.456   4.192  13.673  0.00  0.00    +0.000 A 
BRANCH  12  14
ATOM     14  C   UNL     1       4.623   3.081  11.560  0.00  0.00    +0.000 C 
ATOM     15  F   UNL     1       4.226   3.777  10.458  0.00  0.00    +0.000 F 
ATOM     16  F   UNL     1       4.994   1.851  11.113  0.00  0.00    +0.000 F 
ATOM     17  F   UNL     1       3.494   2.892  12.300  0.00  0.00    +0.000 F 
ENDBRANCH  12  14
ENDBRANCH   5   8
BRANCH   1  18
ATOM     18  S   UNL     1       5.356   4.975  19.456  0.00  0.00    +0.000 S 
BRANCH  18  24
ATOM     19  C   UNL     1       2.602   4.607  19.280  0.00  0.00    +0.000 A 
ATOM     20  C   UNL     1       1.459   3.889  18.888  0.00  0.00    +0.000 A 
ATOM     21  C   UNL     1       1.602   2.683  18.223  0.00  0.00    +0.000 A 
ATOM     22  C   UNL     1       2.890   2.236  17.974  0.00  0.00    +0.000 A 
ATOM     23  N   UNL     1       4.028   2.902  18.344  0.00  0.00    +0.000 NA
ATOM     24  C   UNL     1       3.871   4.082  18.987  0.00  0.00    +0.000 A 
BRANCH  19  26
ATOM     25  O   UNL     1       2.241   6.939  19.265  0.00  0.00    +0.000 OA
ATOM     26  C   UNL     1       2.342   5.913  19.920  0.00  0.00    +0.000 C 
BRANCH  26  27
ATOM     27  O   UNL     1       2.096   5.866  21.244  0.00  0.00    +0.000 OA
ATOM     28  H   UNL     1       1.270   5.413  21.502  0.00  0.00    +0.000 HD
ENDBRANCH  26  27
ENDBRANCH  19  26
ENDBRANCH  18  24
ENDBRANCH   1  18
TORSDOF 6
ENDMDL
MODEL 2
REMARK VINA RESULT:      -7.9      1.542      2.214
REMARK  Name = 
REMARK  6 active torsions:
REMARK  status: ('A' for Active; 'I' for Inactive)
REMARK    1  A    between atoms: C_2  and  O_3
REMARK    2  A    between atoms: C_2  and  C_4
REMARK    3  A    between atoms: C_9  and  S_10
REMARK    4  A    between atoms: S_10  and  C_11
REMARK    5  A    between atoms: N_15  and  C_16
REMARK    6  A    between atoms: C_20  and  C_21
REMARK                            x       y       z     vdW  Elec       q    Type
REMARK                         _______ _______ _______ _____ _____    ______ ____
ROOT
ATOM      1  C   UNL     1       5.932   5.767  18.032  0.00  0.00    +0.000 C 
ATOM      2  C   UNL     1       4.981   6.737  17.387  0.00  0.00    +0.000 C 
ATOM      3  C   UNL     1       5.232   6.554  15.919  0.00  0.00    +0.000 C 
ATOM      4  O   UNL     1       4.744   7.328  15.103  0.00  0.00    +0.000 OA
ATOM      5  N   UNL     1       6.068   5.471  15.710  0.00  0.00    +0.000 N 
ATOM      6  C   UNL     1       6.524   4.961  16.912  0.00  0.00    +0.000 C 
ATOM      7  O   UNL     1       7.343   4.070  17.114  0.00  0.00    +0.000 OA
ENDROOT
BRANCH   5   8
ATOM      8  C   UNL     1       6.404   4.942  14.415  0.00  0.00    +0.000 A 
ATOM      9  C   UNL     1       7.614   5.266  13.780  0.00  0.00    +0.000 A 
ATOM     10  C   UNL     1       7.900   4.857  12.471  0.00  0.00    +0.000 A 
ATOM     11  C   UNL     1       6.971   4.119  11.751  0.00  0.00    +0.000 A 
ATOM     12  C   UNL     1       5.760   3.758  12.346  0.00  0.00    +0.000 A 
ATOM     13  C   UNL     1       5.511   4.138  13.683  0.00  0.00    +0.000 A 
BRANCH  12  14
ATOM     14  C   UNL     1       4.697   3.023  11.566  0.00  0.00    +0.000 C 
ATOM     15  F   UNL     1       5.081   1.778  11.167  0.00  0.00    +0.000 F 
ATOM     16  F   UNL     1       3.545   2.854  12.268  0.00  0.00    +0.000 F 
ATOM     17  F   UNL     1       4.351   3.682  10.424  0.00  0.00    +0.000 F 
ENDBRANCH  12  14
ENDBRANCH   5   8
BRANCH   1  18
ATOM     18  S   UNL     1       5.317   4.791  19.447  0.00  0.00    +0.000 S 
BRANCH  18  24
ATOM     19  C   UNL     1       3.431   2.779  19.065  0.00  0.00    +0.000 A 
ATOM     20  C   UNL     1       2.146   2.316  18.732  0.00  0.00    +0.000 A 
ATOM     21  C   UNL     1       1.166   3.222  18.362  0.00  0.00    +0.000 A 
ATOM     22  C   UNL     1       1.509   4.563  18.338  0.00  0.00    +0.000 A 
ATOM     23  N   UNL     1       2.749   5.054  18.649  0.00  0.00    +0.000 NA
ATOM     24  C   UNL     1       3.694   4.156  19.015  0.00  0.00    +0.000 A 
BRANCH  19  26
ATOM     25  O   UNL     1       4.957   1.817  20.587  0.00  0.00    +0.000 OA
ATOM     26  C   UNL     1       4.382   1.740  19.512  0.00  0.00    +0.000 C 
BRANCH  26  27
ATOM     27  O   UNL     1       4.464   0.655  18.718  0.00  0.00    +0.000 OA
ATOM     28  H   UNL     1       4.510   0.838  17.760  0.00  0.00    +0.000 HD
ENDBRANCH  26  27
ENDBRANCH  19  26
ENDBRANCH  18  24
ENDBRANCH   1  18
TORSDOF 6
ENDMDL
MODEL 3
REMARK VINA RESULT:      -7.9      1.657      2.277
REMARK  Name = 
REMARK  6 active torsions:
REMARK  status: ('A' for Active; 'I' for Inactive)
REMARK    1  A    between atoms: C_2  and  O_3
REMARK    2  A    between atoms: C_2  and  C_4
REMARK    3  A    between atoms: C_9  and  S_10
REMARK    4  A    between atoms: S_10  and  C_11
REMARK    5  A    between atoms: N_15  and  C_16
REMARK    6  A    between atoms: C_20  and  C_21
REMARK                            x       y       z     vdW  Elec       q    Type
REMARK                         _______ _______ _______ _____ _____    ______ ____
ROOT
ATOM      1  C   UNL     1       6.415   5.820  17.981  0.00  0.00    +0.000 C 
ATOM      2  C   UNL     1       5.309   6.667  17.416  0.00  0.00    +0.000 C 
ATOM      3  C   UNL     1       5.438   6.472  15.933  0.00  0.00    +0.000 C 
ATOM      4  O   UNL     1       4.796   7.170  15.156  0.00  0.00    +0.000 OA
ATOM      5  N   UNL     1       6.361   5.478  15.662  0.00  0.00    +0.000 N 
ATOM      6  C   UNL     1       6.982   5.051  16.822  0.00  0.00    +0.000 C 
ATOM      7  O   UNL     1       7.906   4.256  16.957  0.00  0.00    +0.000 OA
ENDROOT
BRANCH   5   8
ATOM      8  C   UNL     1       6.628   4.953  14.349  0.00  0.00    +0.000 A 
ATOM      9  C   UNL     1       7.764   5.340  13.619  0.00  0.00    +0.000 A 
ATOM     10  C   UNL     1       7.973   4.932  12.296  0.00  0.00    +0.000 A 
ATOM     11  C   UNL     1       7.037   4.131  11.655  0.00  0.00    +0.000 A 
ATOM     12  C   UNL     1       5.899   3.708  12.345  0.00  0.00    +0.000 A 
ATOM     13  C   UNL     1       5.731   4.090  13.695  0.00  0.00    +0.000 A 
BRANCH  12  14
ATOM     14  C   UNL     1       4.824   2.902  11.656  0.00  0.00    +0.000 C 
ATOM     15  F   UNL     1       3.661   2.836  12.361  0.00  0.00    +0.000 F 
ATOM     16  F   UNL     1       4.494   3.396  10.432  0.00  0.00    +0.000 F 
ATOM     17  F   UNL     1       5.203   1.609  11.453  0.00  0.00    +0.000 F 
ENDBRANCH  12  14
ENDBRANCH   5   8
BRANCH   1  18
ATOM     18  S   UNL     1       6.045   4.822  19.464  0.00  0.00    +0.000 S 
BRANCH  18  24
ATOM     19  C   UNL     1       3.659   3.394  19.600  0.00  0.00    +0.000 A 
ATOM     20  C   UNL     1       2.260   3.303  19.712  0.00  0.00    +0.000 A 
ATOM     21  C   UNL     1       1.504   4.459  19.808  0.00  0.00    +0.000 A 
ATOM     22  C   UNL     1       2.177   5.669  19.789  0.00  0.00    +0.000 A 
ATOM     23  N   UNL     1       3.536   5.801  19.676  0.00  0.00    +0.000 NA
ATOM     24  C   UNL     1       4.261   4.662  19.589  0.00  0.00    +0.000 A 
BRANCH  19  26
ATOM     25  O   UNL     1       5.037   1.716  20.526  0.00  0.00    +0.000 OA
ATOM     26  C   UNL     1       4.378   2.103  19.574  0.00  0.00    +0.000 C 
BRANCH  26  27
ATOM     27  O   UNL     1       4.146   1.338  18.489  0.00  0.00    +0.000 OA
ATOM     28  H   UNL     1       4.578   0.462  18.491  0.00  0.00    +0.000 HD
ENDBRANCH  26  27
ENDBRANCH  19  26
ENDBRANCH  18  24
ENDBRANCH   1  18
TORSDOF 6
ENDMDL
MODEL 4
REMARK VINA RESULT:      -7.8      0.649      1.065
REMARK  Name = 
REMARK  6 active torsions:
REMARK  status: ('A' for Active; 'I' for Inactive)
REMARK    1  A    between atoms: C_2  and  O_3
REMARK    2  A    between atoms: C_2  and  C_4
REMARK    3  A    between atoms: C_9  and  S_10
REMARK    4  A    between atoms: S_10  and  C_11
REMARK    5  A    between atoms: N_15  and  C_16
REMARK    6  A    between atoms: C_20  and  C_21
REMARK                            x       y       z     vdW  Elec       q    Type
REMARK                         _______ _______ _______ _____ _____    ______ ____
ROOT
ATOM      1  C   UNL     1       6.057   5.707  17.904  0.00  0.00    +0.000 C 
ATOM      2  C   UNL     1       4.991   6.530  17.235  0.00  0.00    +0.000 C 
ATOM      3  C   UNL     1       5.306   6.393  15.773  0.00  0.00    +0.000 C 
ATOM      4  O   UNL     1       4.732   7.092  14.945  0.00  0.00    +0.000 OA
ATOM      5  N   UNL     1       6.297   5.446  15.586  0.00  0.00    +0.000 N 
ATOM      6  C   UNL     1       6.792   5.002  16.799  0.00  0.00    +0.000 C 
ATOM      7  O   UNL     1       7.726   4.240  17.022  0.00  0.00    +0.000 OA
ENDROOT
BRANCH   5   8
ATOM      8  C   UNL     1       6.742   4.979  14.300  0.00  0.00    +0.000 A 
ATOM      9  C   UNL     1       7.737   5.656  13.575  0.00  0.00    +0.000 A 
ATOM     10  C   UNL     1       8.094   5.283  12.274  0.00  0.00    +0.000 A 
ATOM     11  C   UNL     1       7.449   4.224  11.648  0.00  0.00    +0.000 A 
ATOM     12  C   UNL     1       6.464   3.510  12.334  0.00  0.00    +0.000 A 
ATOM     13  C   UNL     1       6.154   3.871  13.664  0.00  0.00    +0.000 A 
BRANCH  12  14
ATOM     14  C   UNL     1       5.690   2.405  11.658  0.00  0.00    +0.000 C 
ATOM     15  F   UNL     1       5.532   1.299  12.439  0.00  0.00    +0.000 F 
ATOM     16  F   UNL     1       4.438   2.784  11.286  0.00  0.00    +0.000 F 
ATOM     17  F   UNL     1       6.306   1.967  10.524  0.00  0.00    +0.000 F 
ENDBRANCH  12  14
ENDBRANCH   5   8
BRANCH   1  18
ATOM     18  S   UNL     1       5.554   4.643  19.300  0.00  0.00    +0.000 S 
BRANCH  18  24
ATOM     19  C   UNL     1       2.784   4.371  19.274  0.00  0.00    +0.000 A 
ATOM     20  C   UNL     1       1.594   3.725  18.897  0.00  0.00    +0.000 A 
ATOM     21  C   UNL     1       1.653   2.580  18.119  0.00  0.00    +0.000 A 
ATOM     22  C   UNL     1       2.906   2.122  17.747  0.00  0.00    +0.000 A 
ATOM     23  N   UNL     1       4.088   2.718  18.098  0.00  0.00    +0.000 NA
ATOM     24  C   UNL     1       4.012   3.839  18.853  0.00  0.00    +0.000 A 
BRANCH  19  26
ATOM     25  O   UNL     1       2.533   6.708  19.493  0.00  0.00    +0.000 OA
ATOM     26  C   UNL     1       2.609   5.621  20.044  0.00  0.00    +0.000 C 
BRANCH  26  27
ATOM     27  O   UNL     1       2.410   5.458  21.367  0.00  0.00    +0.000 OA
ATOM     28  H   UNL     1       1.617   4.944  21.612  0.00  0.00    +0.000 HD
ENDBRANCH  26  27
ENDBRANCH  19  26
ENDBRANCH  18  24
ENDBRANCH   1  18
TORSDOF 6
ENDMDL
MODEL 5
REMARK VINA RESULT:      -7.8      1.645      2.047
REMARK  Name = 
REMARK  6 active torsions:
REMARK  status: ('A' for Active; 'I' for Inactive)
REMARK    1  A    between atoms: C_2  and  O_3
REMARK    2  A    between atoms: C_2  and  C_4
REMARK    3  A    between atoms: C_9  and  S_10
REMARK    4  A    between atoms: S_10  and  C_11
REMARK    5  A    between atoms: N_15  and  C_16
REMARK    6  A    between atoms: C_20  and  C_21
REMARK                            x       y       z     vdW  Elec       q    Type
REMARK                         _______ _______ _______ _____ _____    ______ ____
ROOT
ATOM      1  C   UNL     1       6.204   5.721  18.023  0.00  0.00    +0.000 C 
ATOM      2  C   UNL     1       5.138   6.599  17.431  0.00  0.00    +0.000 C 
ATOM      3  C   UNL     1       5.328   6.437  15.951  0.00  0.00    +0.000 C 
ATOM      4  O   UNL     1       4.731   7.163  15.163  0.00  0.00    +0.000 OA
ATOM      5  N   UNL     1       6.246   5.435  15.695  0.00  0.00    +0.000 N 
ATOM      6  C   UNL     1       6.809   4.969  16.871  0.00  0.00    +0.000 C 
ATOM      7  O   UNL     1       7.714   4.157  17.027  0.00  0.00    +0.000 OA
ENDROOT
BRANCH   5   8
ATOM      8  C   UNL     1       6.562   4.936  14.383  0.00  0.00    +0.000 A 
ATOM      9  C   UNL     1       7.717   5.348  13.698  0.00  0.00    +0.000 A 
ATOM     10  C   UNL     1       7.973   4.966  12.375  0.00  0.00    +0.000 A 
ATOM     11  C   UNL     1       7.068   4.166  11.691  0.00  0.00    +0.000 A 
ATOM     12  C   UNL     1       5.913   3.718  12.336  0.00  0.00    +0.000 A 
ATOM     13  C   UNL     1       5.697   4.074  13.685  0.00  0.00    +0.000 A 
BRANCH  12  14
ATOM     14  C   UNL     1       4.871   2.913  11.597  0.00  0.00    +0.000 C 
ATOM     15  F   UNL     1       4.571   3.414  10.366  0.00  0.00    +0.000 F 
ATOM     16  F   UNL     1       5.243   1.620  11.395  0.00  0.00    +0.000 F 
ATOM     17  F   UNL     1       3.687   2.865  12.271  0.00  0.00    +0.000 F 
ENDBRANCH  12  14
ENDBRANCH   5   8
BRANCH   1  18
ATOM     18  S   UNL     1       5.754   4.695  19.464  0.00  0.00    +0.000 S 
BRANCH  18  24
ATOM     19  C   UNL     1       3.287   3.617  18.754  0.00  0.00    +0.000 A 
ATOM     20  C   UNL     1       1.885   3.545  18.830  0.00  0.00    +0.000 A 
ATOM     21  C   UNL     1       1.198   4.420  19.656  0.00  0.00    +0.000 A 
ATOM     22  C   UNL     1       1.942   5.338  20.377  0.00  0.00    +0.000 A 
ATOM     23  N   UNL     1       3.307   5.445  20.327  0.00  0.00    +0.000 NA
ATOM     24  C   UNL     1       3.964   4.579  19.520  0.00  0.00    +0.000 A 
BRANCH  19  26
ATOM     25  O   UNL     1       4.317   2.856  16.771  0.00  0.00    +0.000 OA
ATOM     26  C   UNL     1       3.929   2.596  17.899  0.00  0.00    +0.000 C 
BRANCH  26  27
ATOM     27  O   UNL     1       4.169   1.414  18.499  0.00  0.00    +0.000 OA
ATOM     28  H   UNL     1       5.100   1.249  18.744  0.00  0.00    +0.000 HD
ENDBRANCH  26  27
ENDBRANCH  19  26
ENDBRANCH  18  24
ENDBRANCH   1  18
TORSDOF 6
ENDMDL
MODEL 6
REMARK VINA RESULT:      -7.8      1.974      2.431
REMARK  Name = 
REMARK  6 active torsions:
REMARK  status: ('A' for Active; 'I' for Inactive)
REMARK    1  A    between atoms: C_2  and  O_3
REMARK    2  A    between atoms: C_2  and  C_4
REMARK    3  A    between atoms: C_9  and  S_10
REMARK    4  A    between atoms: S_10  and  C_11
REMARK    5  A    between atoms: N_15  and  C_16
REMARK    6  A    between atoms: C_20  and  C_21
REMARK                            x       y       z     vdW  Elec       q    Type
REMARK                         _______ _______ _______ _____ _____    ______ ____
ROOT
ATOM      1  C   UNL     1       4.821   5.323  18.076  0.00  0.00    +0.000 C 
ATOM      2  C   UNL     1       5.908   6.361  18.066  0.00  0.00    +0.000 C 
ATOM      3  C   UNL     1       6.641   6.092  16.785  0.00  0.00    +0.000 C 
ATOM      4  O   UNL     1       7.707   6.650  16.548  0.00  0.00    +0.000 OA
ATOM      5  N   UNL     1       5.956   5.155  16.031  0.00  0.00    +0.000 N 
ATOM      6  C   UNL     1       4.874   4.653  16.732  0.00  0.00    +0.000 C 
ATOM      7  O   UNL     1       4.100   3.754  16.422  0.00  0.00    +0.000 OA
ENDROOT
BRANCH   5   8
ATOM      8  C   UNL     1       6.315   4.768  14.693  0.00  0.00    +0.000 A 
ATOM      9  C   UNL     1       7.533   5.162  14.115  0.00  0.00    +0.000 A 
ATOM     10  C   UNL     1       7.842   4.895  12.776  0.00  0.00    +0.000 A 
ATOM     11  C   UNL     1       6.929   4.234  11.966  0.00  0.00    +0.000 A 
ATOM     12  C   UNL     1       5.711   3.808  12.500  0.00  0.00    +0.000 A 
ATOM     13  C   UNL     1       5.438   4.043  13.866  0.00  0.00    +0.000 A 
BRANCH  12  14
ATOM     14  C   UNL     1       4.664   3.156  11.629  0.00  0.00    +0.000 C 
ATOM     15  F   UNL     1       3.492   2.914  12.280  0.00  0.00    +0.000 F 
ATOM     16  F   UNL     1       4.340   3.903  10.539  0.00  0.00    +0.000 F 
ATOM     17  F   UNL     1       5.073   1.947  11.152  0.00  0.00    +0.000 F 
ENDBRANCH  12  14
ENDBRANCH   5   8
BRANCH   1  18
ATOM     18  S   UNL     1       3.156   5.843  18.615  0.00  0.00    +0.000 S 
BRANCH  18  24
ATOM     19  C   UNL     1       1.772   3.518  19.270  0.00  0.00    +0.000 A 
ATOM     20  C   UNL     1       1.307   2.554  20.181  0.00  0.00    +0.000 A 
ATOM     21  C   UNL     1       1.601   2.686  21.528  0.00  0.00    +0.000 A 
ATOM     22  C   UNL     1       2.353   3.783  21.915  0.00  0.00    +0.000 A 
ATOM     23  N   UNL     1       2.820   4.746  21.061  0.00  0.00    +0.000 NA
ATOM     24  C   UNL     1       2.529   4.599  19.747  0.00  0.00    +0.000 A 
BRANCH  19  26
ATOM     25  O   UNL     1       0.881   4.066  17.154  0.00  0.00    +0.000 OA
ATOM     26  C   UNL     1       1.463   3.249  17.850  0.00  0.00    +0.000 C 
BRANCH  26  27
ATOM     27  O   UNL     1       1.982   2.108  17.355  0.00  0.00    +0.000 OA
ATOM     28  H   UNL     1       2.858   1.857  17.708  0.00  0.00    +0.000 HD
ENDBRANCH  26  27
ENDBRANCH  19  26
ENDBRANCH  18  24
ENDBRANCH   1  18
TORSDOF 6
ENDMDL
MODEL 7
REMARK VINA RESULT:      -7.7      1.413      1.725
REMARK  Name = 
REMARK  6 active torsions:
REMARK  status: ('A' for Active; 'I' for Inactive)
REMARK    1  A    between atoms: C_2  and  O_3
REMARK    2  A    between atoms: C_2  and  C_4
REMARK    3  A    between atoms: C_9  and  S_10
REMARK    4  A    between atoms: S_10  and  C_11
REMARK    5  A    between atoms: N_15  and  C_16
REMARK    6  A    between atoms: C_20  and  C_21
REMARK                            x       y       z     vdW  Elec       q    Type
REMARK                         _______ _______ _______ _____ _____    ______ ____
ROOT
ATOM      1  C   UNL     1       5.780   5.812  18.112  0.00  0.00    +0.000 C 
ATOM      2  C   UNL     1       4.858   6.788  17.436  0.00  0.00    +0.000 C 
ATOM      3  C   UNL     1       5.146   6.592  15.976  0.00  0.00    +0.000 C 
ATOM      4  O   UNL     1       4.691   7.366  15.142  0.00  0.00    +0.000 OA
ATOM      5  N   UNL     1       5.975   5.498  15.796  0.00  0.00    +0.000 N 
ATOM      6  C   UNL     1       6.393   4.991  17.014  0.00  0.00    +0.000 C 
ATOM      7  O   UNL     1       7.194   4.091  17.243  0.00  0.00    +0.000 OA
ENDROOT
BRANCH   5   8
ATOM      8  C   UNL     1       6.339   4.956  14.515  0.00  0.00    +0.000 A 
ATOM      9  C   UNL     1       7.578   5.244  13.920  0.00  0.00    +0.000 A 
ATOM     10  C   UNL     1       7.897   4.823  12.623  0.00  0.00    +0.000 A 
ATOM     11  C   UNL     1       6.972   4.109  11.872  0.00  0.00    +0.000 A 
ATOM     12  C   UNL     1       5.732   3.785  12.427  0.00  0.00    +0.000 A 
ATOM     13  C   UNL     1       5.449   4.176  13.755  0.00  0.00    +0.000 A 
BRANCH  12  14
ATOM     14  C   UNL     1       4.675   3.078  11.613  0.00  0.00    +0.000 C 
ATOM     15  F   UNL     1       4.309   3.761  10.492  0.00  0.00    +0.000 F 
ATOM     16  F   UNL     1       5.066   1.845  11.191  0.00  0.00    +0.000 F 
ATOM     17  F   UNL     1       3.524   2.890  12.319  0.00  0.00    +0.000 F 
ENDBRANCH  12  14
ENDBRANCH   5   8
BRANCH   1  18
ATOM     18  S   UNL     1       5.115   4.853  19.516  0.00  0.00    +0.000 S 
BRANCH  18  24
ATOM     19  C   UNL     1       3.303   2.741  19.622  0.00  0.00    +0.000 A 
ATOM     20  C   UNL     1       2.216   2.001  19.127  0.00  0.00    +0.000 A 
ATOM     21  C   UNL     1       1.598   2.394  17.952  0.00  0.00    +0.000 A 
ATOM     22  C   UNL     1       2.092   3.518  17.312  0.00  0.00    +0.000 A 
ATOM     23  N   UNL     1       3.151   4.264  17.757  0.00  0.00    +0.000 NA
ATOM     24  C   UNL     1       3.741   3.870  18.910  0.00  0.00    +0.000 A 
BRANCH  19  26
ATOM     25  O   UNL     1       4.990   1.861  21.019  0.00  0.00    +0.000 OA
ATOM     26  C   UNL     1       3.847   2.280  20.917  0.00  0.00    +0.000 C 
BRANCH  26  27
ATOM     27  O   UNL     1       3.045   2.480  21.980  0.00  0.00    +0.000 OA
ATOM     28  H   UNL     1       3.083   3.373  22.374  0.00  0.00    +0.000 HD
ENDBRANCH  26  27
ENDBRANCH  19  26
ENDBRANCH  18  24
ENDBRANCH   1  18
TORSDOF 6
ENDMDL
MODEL 8
REMARK VINA RESULT:      -7.7      5.903      8.370
REMARK  Name = 
REMARK  6 active torsions:
REMARK  status: ('A' for Active; 'I' for Inactive)
REMARK    1  A    between atoms: C_2  and  O_3
REMARK    2  A    between atoms: C_2  and  C_4
REMARK    3  A    between atoms: C_9  and  S_10
REMARK    4  A    between atoms: S_10  and  C_11
REMARK    5  A    between atoms: N_15  and  C_16
REMARK    6  A    between atoms: C_20  and  C_21
REMARK                            x       y       z     vdW  Elec       q    Type
REMARK                         _______ _______ _______ _____ _____    ______ ____
ROOT
ATOM      1  C   UNL     1       2.529   7.403  19.115  0.00  0.00    +0.000 C 
ATOM      2  C   UNL     1       1.906   7.432  20.482  0.00  0.00    +0.000 C 
ATOM      3  C   UNL     1       1.132   8.718  20.491  0.00  0.00    +0.000 C 
ATOM      4  O   UNL     1       0.643   9.144  21.531  0.00  0.00    +0.000 OA
ATOM      5  N   UNL     1       1.124   9.278  19.225  0.00  0.00    +0.000 N 
ATOM      6  C   UNL     1       1.933   8.559  18.363  0.00  0.00    +0.000 C 
ATOM      7  O   UNL     1       2.236   8.806  17.201  0.00  0.00    +0.000 OA
ENDROOT
BRANCH   5   8
ATOM      8  C   UNL     1       0.366  10.443  18.857  0.00  0.00    +0.000 A 
ATOM      9  C   UNL     1       0.876  11.740  19.035  0.00  0.00    +0.000 A 
ATOM     10  C   UNL     1       0.104  12.883  18.794  0.00  0.00    +0.000 A 
ATOM     11  C   UNL     1      -1.216  12.761  18.380  0.00  0.00    +0.000 A 
ATOM     12  C   UNL     1      -1.762  11.493  18.174  0.00  0.00    +0.000 A 
ATOM     13  C   UNL     1      -0.953  10.353  18.374  0.00  0.00    +0.000 A 
BRANCH  12  14
ATOM     14  C   UNL     1      -3.215  11.323  17.799  0.00  0.00    +0.000 C 
ATOM     15  F   UNL     1      -3.483  11.653  16.505  0.00  0.00    +0.000 F 
ATOM     16  F   UNL     1      -3.659  10.047  17.960  0.00  0.00    +0.000 F 
ATOM     17  F   UNL     1      -4.035  12.107  18.554  0.00  0.00    +0.000 F 
ENDBRANCH  12  14
ENDBRANCH   5   8
BRANCH   1  18
ATOM     18  S   UNL     1       2.530   5.814  18.216  0.00  0.00    +0.000 S 
BRANCH  18  24
ATOM     19  C   UNL     1       3.590   3.665  19.633  0.00  0.00    +0.000 A 
ATOM     20  C   UNL     1       3.519   2.649  20.602  0.00  0.00    +0.000 A 
ATOM     21  C   UNL     1       2.357   2.483  21.337  0.00  0.00    +0.000 A 
ATOM     22  C   UNL     1       1.304   3.343  21.075  0.00  0.00    +0.000 A 
ATOM     23  N   UNL     1       1.331   4.341  20.138  0.00  0.00    +0.000 NA
ATOM     24  C   UNL     1       2.475   4.494  19.432  0.00  0.00    +0.000 A 
BRANCH  19  26
ATOM     25  O   UNL     1       5.837   4.372  19.483  0.00  0.00    +0.000 OA
ATOM     26  C   UNL     1       4.895   3.803  18.953  0.00  0.00    +0.000 C 
BRANCH  26  27
ATOM     27  O   UNL     1       5.004   3.147  17.781  0.00  0.00    +0.000 OA
ATOM     28  H   UNL     1       5.826   2.633  17.662  0.00  0.00    +0.000 HD
ENDBRANCH  26  27
ENDBRANCH  19  26
ENDBRANCH  18  24
ENDBRANCH   1  18
TORSDOF 6
ENDMDL
MODEL 9
REMARK VINA RESULT:      -7.6      3.656      5.371
REMARK  Name = 
REMARK  6 active torsions:
REMARK  status: ('A' for Active; 'I' for Inactive)
REMARK    1  A    between atoms: C_2  and  O_3
REMARK    2  A    between atoms: C_2  and  C_4
REMARK    3  A    between atoms: C_9  and  S_10
REMARK    4  A    between atoms: S_10  and  C_11
REMARK    5  A    between atoms: N_15  and  C_16
REMARK    6  A    between atoms: C_20  and  C_21
REMARK                            x       y       z     vdW  Elec       q    Type
REMARK                         _______ _______ _______ _____ _____    ______ ____
ROOT
ATOM      1  C   UNL     1       1.960   6.498  19.723  0.00  0.00    +0.000 C 
ATOM      2  C   UNL     1       1.872   5.084  20.226  0.00  0.00    +0.000 C 
ATOM      3  C   UNL     1       2.965   4.376  19.480  0.00  0.00    +0.000 C 
ATOM      4  O   UNL     1       3.056   3.154  19.521  0.00  0.00    +0.000 OA
ATOM      5  N   UNL     1       3.737   5.290  18.784  0.00  0.00    +0.000 N 
ATOM      6  C   UNL     1       3.200   6.561  18.877  0.00  0.00    +0.000 C 
ATOM      7  O   UNL     1       3.557   7.595  18.321  0.00  0.00    +0.000 OA
ENDROOT
BRANCH   5   8
ATOM      8  C   UNL     1       4.942   4.960  18.071  0.00  0.00    +0.000 A 
ATOM      9  C   UNL     1       6.198   4.985  18.699  0.00  0.00    +0.000 A 
ATOM     10  C   UNL     1       7.389   4.785  17.990  0.00  0.00    +0.000 A 
ATOM     11  C   UNL     1       7.358   4.568  16.619  0.00  0.00    +0.000 A 
ATOM     12  C   UNL     1       6.132   4.518  15.953  0.00  0.00    +0.000 A 
ATOM     13  C   UNL     1       4.939   4.673  16.694  0.00  0.00    +0.000 A 
BRANCH  12  14
ATOM     14  C   UNL     1       6.066   4.362  14.452  0.00  0.00    +0.000 C 
ATOM     15  F   UNL     1       4.836   4.637  13.933  0.00  0.00    +0.000 F 
ATOM     16  F   UNL     1       6.940   5.170  13.795  0.00  0.00    +0.000 F 
ATOM     17  F   UNL     1       6.354   3.090  14.056  0.00  0.00    +0.000 F 
ENDBRANCH  12  14
ENDBRANCH   5   8
BRANCH   1  18
ATOM     18  S   UNL     1       1.788   7.845  20.944  0.00  0.00    +0.000 S 
BRANCH  18  24
ATOM     19  C   UNL     1      -0.156   9.837  20.999  0.00  0.00    +0.000 A 
ATOM     20  C   UNL     1      -0.935  10.841  20.398  0.00  0.00    +0.000 A 
ATOM     21  C   UNL     1      -0.785  11.109  19.048  0.00  0.00    +0.000 A 
ATOM     22  C   UNL     1       0.143  10.359  18.345  0.00  0.00    +0.000 A 
ATOM     23  N   UNL     1       0.917   9.369  18.890  0.00  0.00    +0.000 NA
ATOM     24  C   UNL     1       0.763   9.124  20.213  0.00  0.00    +0.000 A 
BRANCH  19  26
ATOM     25  O   UNL     1      -0.046  10.564  23.242  0.00  0.00    +0.000 OA
ATOM     26  C   UNL     1      -0.342   9.677  22.456  0.00  0.00    +0.000 C 
BRANCH  26  27
ATOM     27  O   UNL     1      -0.977   8.550  22.834  0.00  0.00    +0.000 OA
ATOM     28  H   UNL     1      -1.944   8.546  22.698  0.00  0.00    +0.000 HD
ENDBRANCH  26  27
ENDBRANCH  19  26
ENDBRANCH  18  24
ENDBRANCH   1  18
TORSDOF 6
ENDMDL
