MODEL 1
REMARK VINA RESULT:      -9.6      0.000      0.000
REMARK  Name = 
REMARK  3 active torsions:
REMARK  status: ('A' for Active; 'I' for Inactive)
REMARK    1  A    between atoms: C_1  and  O_2
REMARK    2  A    between atoms: O_2  and  C_3
REMARK    3  A    between atoms: C_7  and  C_8
REMARK                            x       y       z     vdW  Elec       q    Type
REMARK                         _______ _______ _______ _____ _____    ______ ____
ROOT
ATOM      1  C   UNL     1       3.768   5.328  17.533  0.00  0.00    +0.000 A 
ATOM      2  C   UNL     1       3.256   4.064  17.760  0.00  0.00    +0.000 A 
ATOM      3  C   UNL     1       4.011   3.189  18.497  0.00  0.00    +0.000 A 
ATOM      4  N   UNL     1       5.139   3.559  19.159  0.00  0.00    +0.000 NA
ATOM      5  C   UNL     1       5.699   4.728  18.728  0.00  0.00    +0.000 A 
ATOM      6  C   UNL     1       6.733   5.480  19.320  0.00  0.00    +0.000 A 
ATOM      7  C   UNL     1       7.382   6.394  18.513  0.00  0.00    +0.000 A 
ATOM      8  C   UNL     1       7.161   6.410  17.155  0.00  0.00    +0.000 A 
ATOM      9  C   UNL     1       6.029   5.863  16.633  0.00  0.00    +0.000 A 
ATOM     10  C   UNL     1       5.167   5.293  17.581  0.00  0.00    +0.000 A 
ATOM     11  O   UNL     1       7.992   7.255  16.495  0.00  0.00    +0.000 OA
ATOM     12  C   UNL     1       8.296   8.114  17.604  0.00  0.00    +0.000 C 
ATOM     13  O   UNL     1       8.218   7.409  18.870  0.00  0.00    +0.000 OA
ATOM     14  C   UNL     1       3.307   1.884  18.515  0.00  0.00    +0.000 C 
ATOM     15  O   UNL     1       1.953   2.251  18.160  0.00  0.00    +0.000 OA
ATOM     16  C   UNL     1       1.892   3.561  17.763  0.00  0.00    +0.000 C 
ATOM     17  O   UNL     1       0.882   4.179  17.498  0.00  0.00    +0.000 OA
ENDROOT
BRANCH   1  22
ATOM     18  C   UNL     1       1.876   7.528  20.073  0.00  0.00    +0.000 A 
ATOM     19  C   UNL     1       1.588   8.651  19.285  0.00  0.00    +0.000 A 
ATOM     20  C   UNL     1       2.048   8.740  17.976  0.00  0.00    +0.000 A 
ATOM     21  C   UNL     1       2.779   7.668  17.455  0.00  0.00    +0.000 A 
ATOM     22  C   UNL     1       3.126   6.522  18.219  0.00  0.00    +0.000 A 
ATOM     23  C   UNL     1       2.650   6.477  19.548  0.00  0.00    +0.000 A 
BRANCH  18  25
ATOM     24  C   UNL     1       1.171   8.864  21.916  0.00  0.00    +0.000 C 
ATOM     25  O   UNL     1       1.297   7.591  21.309  0.00  0.00    +0.000 OA
ENDBRANCH  18  25
ENDBRANCH   1  22
TORSDOF 2
ENDMDL
MODEL 2
REMARK VINA RESULT:      -9.4      1.066      1.566
REMARK  Name = 
REMARK  3 active torsions:
REMARK  status: ('A' for Active; 'I' for Inactive)
REMARK    1  A    between atoms: C_1  and  O_2
REMARK    2  A    between atoms: O_2  and  C_3
REMARK    3  A    between atoms: C_7  and  C_8
REMARK                            x       y       z     vdW  Elec       q    Type
REMARK                         _______ _______ _______ _____ _____    ______ ____
ROOT
ATOM      1  C   UNL     1       3.679   4.964  17.537  0.00  0.00    +0.000 A 
ATOM      2  C   UNL     1       3.242   3.687  17.835  0.00  0.00    +0.000 A 
ATOM      3  C   UNL     1       4.035   2.908  18.636  0.00  0.00    +0.000 A 
ATOM      4  N   UNL     1       5.127   3.387  19.289  0.00  0.00    +0.000 NA
ATOM      5  C   UNL     1       5.623   4.559  18.793  0.00  0.00    +0.000 A 
ATOM      6  C   UNL     1       6.599   5.408  19.351  0.00  0.00    +0.000 A 
ATOM      7  C   UNL     1       7.205   6.310  18.497  0.00  0.00    +0.000 A 
ATOM      8  C   UNL     1       7.007   6.228  17.138  0.00  0.00    +0.000 A 
ATOM      9  C   UNL     1       5.920   5.581  16.636  0.00  0.00    +0.000 A 
ATOM     10  C   UNL     1       5.077   5.018  17.606  0.00  0.00    +0.000 A 
ATOM     11  O   UNL     1       7.797   7.080  16.438  0.00  0.00    +0.000 OA
ATOM     12  C   UNL     1       8.029   8.024  17.495  0.00  0.00    +0.000 C 
ATOM     13  O   UNL     1       7.972   7.394  18.802  0.00  0.00    +0.000 OA
ATOM     14  C   UNL     1       3.412   1.565  18.726  0.00  0.00    +0.000 C 
ATOM     15  O   UNL     1       2.045   1.825  18.331  0.00  0.00    +0.000 OA
ATOM     16  C   UNL     1       1.911   3.102  17.851  0.00  0.00    +0.000 C 
ATOM     17  O   UNL     1       0.870   3.639  17.534  0.00  0.00    +0.000 OA
ENDROOT
BRANCH   1  22
ATOM     18  C   UNL     1       2.311   8.522  18.120  0.00  0.00    +0.000 A 
ATOM     19  C   UNL     1       1.950   8.446  19.472  0.00  0.00    +0.000 A 
ATOM     20  C   UNL     1       2.077   7.256  20.179  0.00  0.00    +0.000 A 
ATOM     21  C   UNL     1       2.602   6.143  19.514  0.00  0.00    +0.000 A 
ATOM     22  C   UNL     1       2.954   6.156  18.138  0.00  0.00    +0.000 A 
ATOM     23  C   UNL     1       2.798   7.381  17.455  0.00  0.00    +0.000 A 
BRANCH  18  25
ATOM     24  C   UNL     1       1.566  10.765  18.428  0.00  0.00    +0.000 C 
ATOM     25  O   UNL     1       2.172   9.781  17.608  0.00  0.00    +0.000 OA
ENDBRANCH  18  25
ENDBRANCH   1  22
TORSDOF 2
ENDMDL
MODEL 3
REMARK VINA RESULT:      -8.3      1.381      4.846
REMARK  Name = 
REMARK  3 active torsions:
REMARK  status: ('A' for Active; 'I' for Inactive)
REMARK    1  A    between atoms: C_1  and  O_2
REMARK    2  A    between atoms: O_2  and  C_3
REMARK    3  A    between atoms: C_7  and  C_8
REMARK                            x       y       z     vdW  Elec       q    Type
REMARK                         _______ _______ _______ _____ _____    ______ ____
ROOT
ATOM      1  C   UNL     1       4.873   5.382  18.386  0.00  0.00    +0.000 A 
ATOM      2  C   UNL     1       5.864   5.445  17.424  0.00  0.00    +0.000 A 
ATOM      3  C   UNL     1       5.750   4.627  16.331  0.00  0.00    +0.000 A 
ATOM      4  N   UNL     1       4.633   3.899  16.063  0.00  0.00    +0.000 NA
ATOM      5  C   UNL     1       3.803   3.709  17.131  0.00  0.00    +0.000 A 
ATOM      6  C   UNL     1       2.494   3.188  17.147  0.00  0.00    +0.000 A 
ATOM      7  C   UNL     1       2.016   2.736  18.362  0.00  0.00    +0.000 A 
ATOM      8  C   UNL     1       2.858   2.617  19.445  0.00  0.00    +0.000 A 
ATOM      9  C   UNL     1       4.024   3.317  19.494  0.00  0.00    +0.000 A 
ATOM     10  C   UNL     1       4.270   4.118  18.369  0.00  0.00    +0.000 A 
ATOM     11  O   UNL     1       2.269   2.011  20.506  0.00  0.00    +0.000 OA
ATOM     12  C   UNL     1       0.909   2.310  20.155  0.00  0.00    +0.000 C 
ATOM     13  O   UNL     1       0.737   2.431  18.719  0.00  0.00    +0.000 OA
ATOM     14  C   UNL     1       6.969   4.799  15.504  0.00  0.00    +0.000 C 
ATOM     15  O   UNL     1       7.488   6.067  15.968  0.00  0.00    +0.000 OA
ATOM     16  C   UNL     1       6.806   6.497  17.076  0.00  0.00    +0.000 C 
ATOM     17  O   UNL     1       6.949   7.566  17.631  0.00  0.00    +0.000 OA
ENDROOT
BRANCH   1  22
ATOM     18  C   UNL     1       2.098   7.707  19.713  0.00  0.00    +0.000 A 
ATOM     19  C   UNL     1       1.884   8.525  18.595  0.00  0.00    +0.000 A 
ATOM     20  C   UNL     1       2.660   8.386  17.450  0.00  0.00    +0.000 A 
ATOM     21  C   UNL     1       3.640   7.388  17.430  0.00  0.00    +0.000 A 
ATOM     22  C   UNL     1       3.919   6.553  18.545  0.00  0.00    +0.000 A 
ATOM     23  C   UNL     1       3.116   6.737  19.692  0.00  0.00    +0.000 A 
BRANCH  18  25
ATOM     24  C   UNL     1       0.799   9.289  20.934  0.00  0.00    +0.000 C 
ATOM     25  O   UNL     1       1.207   7.949  20.720  0.00  0.00    +0.000 OA
ENDBRANCH  18  25
ENDBRANCH   1  22
TORSDOF 2
ENDMDL
MODEL 4
REMARK VINA RESULT:      -7.9      1.807      2.215
REMARK  Name = 
REMARK  3 active torsions:
REMARK  status: ('A' for Active; 'I' for Inactive)
REMARK    1  A    between atoms: C_1  and  O_2
REMARK    2  A    between atoms: O_2  and  C_3
REMARK    3  A    between atoms: C_7  and  C_8
REMARK                            x       y       z     vdW  Elec       q    Type
REMARK                         _______ _______ _______ _____ _____    ______ ____
ROOT
ATOM      1  C   UNL     1       2.824   4.427  18.585  0.00  0.00    +0.000 A 
ATOM      2  C   UNL     1       2.532   3.594  19.648  0.00  0.00    +0.000 A 
ATOM      3  C   UNL     1       3.575   2.972  20.282  0.00  0.00    +0.000 A 
ATOM      4  N   UNL     1       4.878   3.272  20.034  0.00  0.00    +0.000 NA
ATOM      5  C   UNL     1       5.101   3.919  18.852  0.00  0.00    +0.000 A 
ATOM      6  C   UNL     1       6.282   4.539  18.397  0.00  0.00    +0.000 A 
ATOM      7  C   UNL     1       6.381   4.777  17.040  0.00  0.00    +0.000 A 
ATOM      8  C   UNL     1       5.460   4.244  16.167  0.00  0.00    +0.000 A 
ATOM      9  C   UNL     1       4.232   3.856  16.610  0.00  0.00    +0.000 A 
ATOM     10  C   UNL     1       4.027   4.033  17.986  0.00  0.00    +0.000 A 
ATOM     11  O   UNL     1       5.793   4.437  14.867  0.00  0.00    +0.000 OA
ATOM     12  C   UNL     1       6.638   5.581  15.063  0.00  0.00    +0.000 C 
ATOM     13  O   UNL     1       7.265   5.569  16.372  0.00  0.00    +0.000 OA
ATOM     14  C   UNL     1       3.009   2.064  21.308  0.00  0.00    +0.000 C 
ATOM     15  O   UNL     1       1.674   2.590  21.493  0.00  0.00    +0.000 OA
ATOM     16  C   UNL     1       1.392   3.544  20.550  0.00  0.00    +0.000 C 
ATOM     17  O   UNL     1       0.391   4.228  20.506  0.00  0.00    +0.000 OA
ENDROOT
BRANCH   1  22
ATOM     18  C   UNL     1       1.942   7.887  20.040  0.00  0.00    +0.000 A 
ATOM     19  C   UNL     1       1.924   8.665  18.875  0.00  0.00    +0.000 A 
ATOM     20  C   UNL     1       2.255   8.113  17.643  0.00  0.00    +0.000 A 
ATOM     21  C   UNL     1       2.576   6.753  17.591  0.00  0.00    +0.000 A 
ATOM     22  C   UNL     1       2.640   5.926  18.745  0.00  0.00    +0.000 A 
ATOM     23  C   UNL     1       2.310   6.531  19.977  0.00  0.00    +0.000 A 
BRANCH  18  25
ATOM     24  C   UNL     1       0.144   8.673  21.394  0.00  0.00    +0.000 C 
ATOM     25  O   UNL     1       1.536   8.583  21.144  0.00  0.00    +0.000 OA
ENDBRANCH  18  25
ENDBRANCH   1  22
TORSDOF 2
ENDMDL
MODEL 5
REMARK VINA RESULT:      -7.9      2.083      4.946
REMARK  Name = 
REMARK  3 active torsions:
REMARK  status: ('A' for Active; 'I' for Inactive)
REMARK    1  A    between atoms: C_1  and  O_2
REMARK    2  A    between atoms: O_2  and  C_3
REMARK    3  A    between atoms: C_7  and  C_8
REMARK                            x       y       z     vdW  Elec       q    Type
REMARK                         _______ _______ _______ _____ _____    ______ ____
ROOT
ATOM      1  C   UNL     1       4.363   5.370  18.388  0.00  0.00    +0.000 A 
ATOM      2  C   UNL     1       5.029   5.280  17.180  0.00  0.00    +0.000 A 
ATOM      3  C   UNL     1       4.725   4.228  16.357  0.00  0.00    +0.000 A 
ATOM      4  N   UNL     1       3.687   3.382  16.589  0.00  0.00    +0.000 NA
ATOM      5  C   UNL     1       3.221   3.384  17.873  0.00  0.00    +0.000 A 
ATOM      6  C   UNL     1       2.052   2.789  18.386  0.00  0.00    +0.000 A 
ATOM      7  C   UNL     1       1.997   2.595  19.753  0.00  0.00    +0.000 A 
ATOM      8  C   UNL     1       3.115   2.787  20.532  0.00  0.00    +0.000 A 
ATOM      9  C   UNL     1       4.143   3.560  20.087  0.00  0.00    +0.000 A 
ATOM     10  C   UNL     1       3.956   4.097  18.805  0.00  0.00    +0.000 A 
ATOM     11  O   UNL     1       2.932   2.401  21.820  0.00  0.00    +0.000 OA
ATOM     12  C   UNL     1       1.502   2.515  21.843  0.00  0.00    +0.000 C 
ATOM     13  O   UNL     1       0.921   2.290  20.531  0.00  0.00    +0.000 OA
ATOM     14  C   UNL     1       5.631   4.291  15.185  0.00  0.00    +0.000 C 
ATOM     15  O   UNL     1       6.083   5.665  15.209  0.00  0.00    +0.000 OA
ATOM     16  C   UNL     1       5.685   6.288  16.363  0.00  0.00    +0.000 C 
ATOM     17  O   UNL     1       5.832   7.464  16.625  0.00  0.00    +0.000 OA
ENDROOT
BRANCH   1  22
ATOM     18  C   UNL     1       2.405   8.674  18.042  0.00  0.00    +0.000 A 
ATOM     19  C   UNL     1       1.702   8.691  19.254  0.00  0.00    +0.000 A 
ATOM     20  C   UNL     1       1.795   7.631  20.147  0.00  0.00    +0.000 A 
ATOM     21  C   UNL     1       2.632   6.559  19.820  0.00  0.00    +0.000 A 
ATOM     22  C   UNL     1       3.342   6.477  18.593  0.00  0.00    +0.000 A 
ATOM     23  C   UNL     1       3.210   7.569  17.708  0.00  0.00    +0.000 A 
BRANCH  18  25
ATOM     24  C   UNL     1       2.041  11.030  18.034  0.00  0.00    +0.000 C 
ATOM     25  O   UNL     1       2.237   9.822  17.320  0.00  0.00    +0.000 OA
ENDBRANCH  18  25
ENDBRANCH   1  22
TORSDOF 2
ENDMDL
MODEL 6
REMARK VINA RESULT:      -7.5      1.958      5.806
REMARK  Name = 
REMARK  3 active torsions:
REMARK  status: ('A' for Active; 'I' for Inactive)
REMARK    1  A    between atoms: C_1  and  O_2
REMARK    2  A    between atoms: O_2  and  C_3
REMARK    3  A    between atoms: C_7  and  C_8
REMARK                            x       y       z     vdW  Elec       q    Type
REMARK                         _______ _______ _______ _____ _____    ______ ____
ROOT
ATOM      1  C   UNL     1       2.901   6.303  17.795  0.00  0.00    +0.000 A 
ATOM      2  C   UNL     1       2.306   7.392  18.403  0.00  0.00    +0.000 A 
ATOM      3  C   UNL     1       2.002   7.297  19.735  0.00  0.00    +0.000 A 
ATOM      4  N   UNL     1       2.417   6.265  20.518  0.00  0.00    +0.000 NA
ATOM      5  C   UNL     1       2.795   5.145  19.835  0.00  0.00    +0.000 A 
ATOM      6  C   UNL     1       3.452   3.997  20.322  0.00  0.00    +0.000 A 
ATOM      7  C   UNL     1       3.379   2.858  19.545  0.00  0.00    +0.000 A 
ATOM      8  C   UNL     1       2.533   2.803  18.460  0.00  0.00    +0.000 A 
ATOM      9  C   UNL     1       2.090   3.948  17.871  0.00  0.00    +0.000 A 
ATOM     10  C   UNL     1       2.552   5.128  18.472  0.00  0.00    +0.000 A 
ATOM     11  O   UNL     1       2.463   1.567  17.908  0.00  0.00    +0.000 OA
ATOM     12  C   UNL     1       3.729   1.083  18.383  0.00  0.00    +0.000 C 
ATOM     13  O   UNL     1       4.111   1.712  19.634  0.00  0.00    +0.000 OA
ATOM     14  C   UNL     1       1.287   8.535  20.129  0.00  0.00    +0.000 C 
ATOM     15  O   UNL     1       1.648   9.457  19.075  0.00  0.00    +0.000 OA
ATOM     16  C   UNL     1       2.307   8.807  18.064  0.00  0.00    +0.000 C 
ATOM     17  O   UNL     1       2.815   9.328  17.093  0.00  0.00    +0.000 OA
ENDROOT
BRANCH   1  22
ATOM     18  C   UNL     1       6.178   5.899  15.802  0.00  0.00    +0.000 A 
ATOM     19  C   UNL     1       7.124   6.222  16.785  0.00  0.00    +0.000 A 
ATOM     20  C   UNL     1       6.725   6.631  18.052  0.00  0.00    +0.000 A 
ATOM     21  C   UNL     1       5.356   6.682  18.332  0.00  0.00    +0.000 A 
ATOM     22  C   UNL     1       4.355   6.396  17.365  0.00  0.00    +0.000 A 
ATOM     23  C   UNL     1       4.803   5.998  16.087  0.00  0.00    +0.000 A 
BRANCH  18  25
ATOM     24  C   UNL     1       6.368   4.196  14.146  0.00  0.00    +0.000 C 
ATOM     25  O   UNL     1       6.752   5.467  14.641  0.00  0.00    +0.000 OA
ENDBRANCH  18  25
ENDBRANCH   1  22
TORSDOF 2
ENDMDL
MODEL 7
REMARK VINA RESULT:      -7.3      1.723      5.115
REMARK  Name = 
REMARK  3 active torsions:
REMARK  status: ('A' for Active; 'I' for Inactive)
REMARK    1  A    between atoms: C_1  and  O_2
REMARK    2  A    between atoms: O_2  and  C_3
REMARK    3  A    between atoms: C_7  and  C_8
REMARK                            x       y       z     vdW  Elec       q    Type
REMARK                         _______ _______ _______ _____ _____    ______ ____
ROOT
ATOM      1  C   UNL     1       4.625   5.483  18.437  0.00  0.00    +0.000 A 
ATOM      2  C   UNL     1       5.639   5.657  17.514  0.00  0.00    +0.000 A 
ATOM      3  C   UNL     1       5.648   4.847  16.410  0.00  0.00    +0.000 A 
ATOM      4  N   UNL     1       4.620   4.014  16.093  0.00  0.00    +0.000 NA
ATOM      5  C   UNL     1       3.775   3.728  17.127  0.00  0.00    +0.000 A 
ATOM      6  C   UNL     1       2.526   3.078  17.088  0.00  0.00    +0.000 A 
ATOM      7  C   UNL     1       2.051   2.564  18.280  0.00  0.00    +0.000 A 
ATOM      8  C   UNL     1       2.860   2.516  19.393  0.00  0.00    +0.000 A 
ATOM      9  C   UNL     1       3.948   3.329  19.493  0.00  0.00    +0.000 A 
ATOM     10  C   UNL     1       4.153   4.165  18.386  0.00  0.00    +0.000 A 
ATOM     11  O   UNL     1       2.297   1.840  20.425  0.00  0.00    +0.000 OA
ATOM     12  C   UNL     1       0.928   2.006  20.026  0.00  0.00    +0.000 C 
ATOM     13  O   UNL     1       0.798   2.127  18.585  0.00  0.00    +0.000 OA
ATOM     14  C   UNL     1       6.873   5.151  15.632  0.00  0.00    +0.000 C 
ATOM     15  O   UNL     1       7.244   6.458  16.127  0.00  0.00    +0.000 OA
ATOM     16  C   UNL     1       6.482   6.803  17.212  0.00  0.00    +0.000 C 
ATOM     17  O   UNL     1       6.496   7.874  17.782  0.00  0.00    +0.000 OA
ENDROOT
BRANCH   1  22
ATOM     18  C   UNL     1       2.566   8.707  17.948  0.00  0.00    +0.000 A 
ATOM     19  C   UNL     1       1.792   8.704  19.116  0.00  0.00    +0.000 A 
ATOM     20  C   UNL     1       1.871   7.652  20.022  0.00  0.00    +0.000 A 
ATOM     21  C   UNL     1       2.767   6.612  19.754  0.00  0.00    +0.000 A 
ATOM     22  C   UNL     1       3.552   6.550  18.571  0.00  0.00    +0.000 A 
ATOM     23  C   UNL     1       3.431   7.632  17.672  0.00  0.00    +0.000 A 
BRANCH  18  25
ATOM     24  C   UNL     1       2.109  11.045  17.899  0.00  0.00    +0.000 C 
ATOM     25  O   UNL     1       2.398   9.843  17.208  0.00  0.00    +0.000 OA
ENDBRANCH  18  25
ENDBRANCH   1  22
TORSDOF 2
ENDMDL
MODEL 8
REMARK VINA RESULT:      -7.2      2.077      2.861
REMARK  Name = 
REMARK  3 active torsions:
REMARK  status: ('A' for Active; 'I' for Inactive)
REMARK    1  A    between atoms: C_1  and  O_2
REMARK    2  A    between atoms: O_2  and  C_3
REMARK    3  A    between atoms: C_7  and  C_8
REMARK                            x       y       z     vdW  Elec       q    Type
REMARK                         _______ _______ _______ _____ _____    ______ ____
ROOT
ATOM      1  C   UNL     1       2.816   4.011  18.777  0.00  0.00    +0.000 A 
ATOM      2  C   UNL     1       2.802   3.149  19.857  0.00  0.00    +0.000 A 
ATOM      3  C   UNL     1       4.006   2.738  20.365  0.00  0.00    +0.000 A 
ATOM      4  N   UNL     1       5.195   3.272  19.978  0.00  0.00    +0.000 NA
ATOM      5  C   UNL     1       5.163   3.938  18.786  0.00  0.00    +0.000 A 
ATOM      6  C   UNL     1       6.151   4.762  18.212  0.00  0.00    +0.000 A 
ATOM      7  C   UNL     1       6.054   5.001  16.854  0.00  0.00    +0.000 A 
ATOM      8  C   UNL     1       5.158   4.298  16.082  0.00  0.00    +0.000 A 
ATOM      9  C   UNL     1       4.080   3.693  16.653  0.00  0.00    +0.000 A 
ATOM     10  C   UNL     1       3.997   3.842  18.045  0.00  0.00    +0.000 A 
ATOM     11  O   UNL     1       5.303   4.538  14.755  0.00  0.00    +0.000 OA
ATOM     12  C   UNL     1       5.937   5.821  14.871  0.00  0.00    +0.000 C 
ATOM     13  O   UNL     1       6.697   5.938  16.103  0.00  0.00    +0.000 OA
ATOM     14  C   UNL     1       3.734   1.749  21.437  0.00  0.00    +0.000 C 
ATOM     15  O   UNL     1       2.354   2.020  21.773  0.00  0.00    +0.000 OA
ATOM     16  C   UNL     1       1.797   2.896  20.877  0.00  0.00    +0.000 C 
ATOM     17  O   UNL     1       0.689   3.383  20.952  0.00  0.00    +0.000 OA
ENDROOT
BRANCH   1  22
ATOM     18  C   UNL     1       2.233   7.784  18.227  0.00  0.00    +0.000 A 
ATOM     19  C   UNL     1       1.918   8.193  19.530  0.00  0.00    +0.000 A 
ATOM     20  C   UNL     1       1.825   7.271  20.565  0.00  0.00    +0.000 A 
ATOM     21  C   UNL     1       2.084   5.926  20.280  0.00  0.00    +0.000 A 
ATOM     22  C   UNL     1       2.376   5.452  18.973  0.00  0.00    +0.000 A 
ATOM     23  C   UNL     1       2.447   6.421  17.948  0.00  0.00    +0.000 A 
BRANCH  18  25
ATOM     24  C   UNL     1       1.994  10.121  17.831  0.00  0.00    +0.000 C 
ATOM     25  O   UNL     1       2.334   8.831  17.356  0.00  0.00    +0.000 OA
ENDBRANCH  18  25
ENDBRANCH   1  22
TORSDOF 2
ENDMDL
MODEL 9
REMARK VINA RESULT:      -7.2      1.898      5.264
REMARK  Name = 
REMARK  3 active torsions:
REMARK  status: ('A' for Active; 'I' for Inactive)
REMARK    1  A    between atoms: C_1  and  O_2
REMARK    2  A    between atoms: O_2  and  C_3
REMARK    3  A    between atoms: C_7  and  C_8
REMARK                            x       y       z     vdW  Elec       q    Type
REMARK                         _______ _______ _______ _____ _____    ______ ____
ROOT
ATOM      1  C   UNL     1       3.726   5.134  19.472  0.00  0.00    +0.000 A 
ATOM      2  C   UNL     1       3.302   3.820  19.410  0.00  0.00    +0.000 A 
ATOM      3  C   UNL     1       2.195   3.537  18.654  0.00  0.00    +0.000 A 
ATOM      4  N   UNL     1       1.609   4.446  17.829  0.00  0.00    +0.000 NA
ATOM      5  C   UNL     1       1.925   5.748  18.095  0.00  0.00    +0.000 A 
ATOM      6  C   UNL     1       1.657   6.894  17.320  0.00  0.00    +0.000 A 
ATOM      7  C   UNL     1       1.723   8.114  17.966  0.00  0.00    +0.000 A 
ATOM      8  C   UNL     1       1.840   8.175  19.336  0.00  0.00    +0.000 A 
ATOM      9  C   UNL     1       2.318   7.111  20.037  0.00  0.00    +0.000 A 
ATOM     10  C   UNL     1       2.644   5.996  19.252  0.00  0.00    +0.000 A 
ATOM     11  O   UNL     1       1.728   9.438  19.818  0.00  0.00    +0.000 OA
ATOM     12  C   UNL     1       2.107  10.126  18.617  0.00  0.00    +0.000 C 
ATOM     13  O   UNL     1       1.765   9.365  17.429  0.00  0.00    +0.000 OA
ATOM     14  C   UNL     1       1.880   2.099  18.826  0.00  0.00    +0.000 C 
ATOM     15  O   UNL     1       3.129   1.560  19.319  0.00  0.00    +0.000 OA
ATOM     16  C   UNL     1       4.010   2.566  19.618  0.00  0.00    +0.000 C 
ATOM     17  O   UNL     1       5.165   2.425  19.959  0.00  0.00    +0.000 OA
ENDROOT
BRANCH   1  22
ATOM     18  C   UNL     1       6.374   5.861  16.765  0.00  0.00    +0.000 A 
ATOM     19  C   UNL     1       7.543   5.869  17.537  0.00  0.00    +0.000 A 
ATOM     20  C   UNL     1       7.488   5.712  18.917  0.00  0.00    +0.000 A 
ATOM     21  C   UNL     1       6.238   5.514  19.513  0.00  0.00    +0.000 A 
ATOM     22  C   UNL     1       5.020   5.529  18.782  0.00  0.00    +0.000 A 
ATOM     23  C   UNL     1       5.120   5.705  17.385  0.00  0.00    +0.000 A 
BRANCH  18  25
ATOM     24  C   UNL     1       6.936   4.790  14.711  0.00  0.00    +0.000 C 
ATOM     25  O   UNL     1       6.626   5.973  15.427  0.00  0.00    +0.000 OA
ENDBRANCH  18  25
ENDBRANCH   1  22
TORSDOF 2
ENDMDL
