MODEL 1
REMARK VINA RESULT:      -7.8      0.000      0.000
REMARK  Name = 
REMARK  3 active torsions:
REMARK  status: ('A' for Active; 'I' for Inactive)
REMARK    1  A    between atoms: S_2  and  C_4
REMARK    2  A    between atoms: S_2  and  C_11
REMARK    3  A    between atoms: N_13  and  C_14
REMARK                            x       y       z     vdW  Elec       q    Type
REMARK                         _______ _______ _______ _____ _____    ______ ____
ROOT
ATOM      1  C   UNL     1       4.348   4.516  17.072  0.00  0.00    +0.000 A 
ATOM      2  C   UNL     1       4.939   3.346  16.580  0.00  0.00    +0.000 A 
ATOM      3  N   UNL     1       5.997   3.846  15.866  0.00  0.00    +0.000 N 
ATOM      4  C   UNL     1       6.558   4.556  16.923  0.00  0.00    +0.000 A 
ATOM      5  C   UNL     1       7.675   4.395  17.734  0.00  0.00    +0.000 A 
ATOM      6  C   UNL     1       8.028   5.529  18.456  0.00  0.00    +0.000 A 
ATOM      7  C   UNL     1       7.283   6.704  18.293  0.00  0.00    +0.000 A 
ATOM      8  C   UNL     1       5.979   6.655  17.740  0.00  0.00    +0.000 A 
ATOM      9  F   UNL     1       5.323   7.802  17.517  0.00  0.00    +0.000 F 
ATOM     10  C   UNL     1       5.496   5.403  17.305  0.00  0.00    +0.000 A 
ENDROOT
BRANCH   3  11
ATOM     11  C   UNL     1       5.712   4.563  14.577  0.00  0.00    +0.000 C 
ATOM     12  C   UNL     1       5.046   3.727  13.487  0.00  0.00    +0.000 C 
ATOM     13  C   UNL     1       6.202   3.295  12.616  0.00  0.00    +0.000 C 
ATOM     14  N   UNL     1       7.168   4.398  12.649  0.00  0.00    +0.000 NA
ATOM     15  C   UNL     1       6.979   5.104  13.926  0.00  0.00    +0.000 C 
ATOM     16  H   UNL     1       6.970   5.043  11.883  0.00  0.00    +0.000 HD
ENDBRANCH   3  11
BRANCH   1  18
ATOM     17  O   UNL     1       2.105   3.547  16.472  0.00  0.00    +0.000 OA
ATOM     18  S   UNL     1       2.672   4.426  17.481  0.00  0.00    +0.000 S 
ATOM     19  O   UNL     1       2.219   5.779  17.681  0.00  0.00    +0.000 OA
BRANCH  18  20
ATOM     20  C   UNL     1       2.647   3.570  19.056  0.00  0.00    +0.000 A 
ATOM     21  C   UNL     1       1.533   3.740  19.897  0.00  0.00    +0.000 A 
ATOM     22  C   UNL     1       1.530   3.179  21.184  0.00  0.00    +0.000 A 
ATOM     23  C   UNL     1       2.650   2.486  21.662  0.00  0.00    +0.000 A 
ATOM     24  C   UNL     1       3.763   2.336  20.841  0.00  0.00    +0.000 A 
ATOM     25  F   UNL     1       4.845   1.700  21.316  0.00  0.00    +0.000 F 
ATOM     26  C   UNL     1       3.786   2.866  19.541  0.00  0.00    +0.000 A 
ENDBRANCH  18  20
ENDBRANCH   1  18
TORSDOF 3
ENDMDL
MODEL 2
REMARK VINA RESULT:      -7.4      0.898      1.318
REMARK  Name = 
REMARK  3 active torsions:
REMARK  status: ('A' for Active; 'I' for Inactive)
REMARK    1  A    between atoms: S_2  and  C_4
REMARK    2  A    between atoms: S_2  and  C_11
REMARK    3  A    between atoms: N_13  and  C_14
REMARK                            x       y       z     vdW  Elec       q    Type
REMARK                         _______ _______ _______ _____ _____    ______ ____
ROOT
ATOM      1  C   UNL     1       4.434   4.439  17.061  0.00  0.00    +0.000 A 
ATOM      2  C   UNL     1       5.063   3.296  16.552  0.00  0.00    +0.000 A 
ATOM      3  N   UNL     1       6.082   3.843  15.815  0.00  0.00    +0.000 N 
ATOM      4  C   UNL     1       6.636   4.573  16.862  0.00  0.00    +0.000 A 
ATOM      5  C   UNL     1       7.778   4.459  17.647  0.00  0.00    +0.000 A 
ATOM      6  C   UNL     1       8.098   5.606  18.363  0.00  0.00    +0.000 A 
ATOM      7  C   UNL     1       7.300   6.748  18.220  0.00  0.00    +0.000 A 
ATOM      8  C   UNL     1       5.986   6.645  17.698  0.00  0.00    +0.000 A 
ATOM      9  F   UNL     1       5.277   7.762  17.493  0.00  0.00    +0.000 F 
ATOM     10  C   UNL     1       5.548   5.374  17.270  0.00  0.00    +0.000 A 
ENDROOT
BRANCH   3  11
ATOM     11  C   UNL     1       5.737   4.549  14.535  0.00  0.00    +0.000 C 
ATOM     12  C   UNL     1       5.063   3.693  13.466  0.00  0.00    +0.000 C 
ATOM     13  C   UNL     1       6.204   3.293  12.561  0.00  0.00    +0.000 C 
ATOM     14  N   UNL     1       7.137   4.424  12.564  0.00  0.00    +0.000 NA
ATOM     15  C   UNL     1       6.967   5.127  13.846  0.00  0.00    +0.000 C 
ATOM     16  H   UNL     1       6.898   5.063  11.804  0.00  0.00    +0.000 HD
ENDBRANCH   3  11
BRANCH   1  18
ATOM     17  O   UNL     1       2.254   3.273  16.592  0.00  0.00    +0.000 OA
ATOM     18  S   UNL     1       2.774   4.275  17.508  0.00  0.00    +0.000 S 
ATOM     19  O   UNL     1       2.233   5.609  17.594  0.00  0.00    +0.000 OA
BRANCH  18  20
ATOM     20  C   UNL     1       2.826   3.566  19.154  0.00  0.00    +0.000 A 
ATOM     21  C   UNL     1       4.012   2.944  19.582  0.00  0.00    +0.000 A 
ATOM     22  C   UNL     1       4.051   2.278  20.816  0.00  0.00    +0.000 A 
ATOM     23  C   UNL     1       2.903   2.185  21.613  0.00  0.00    +0.000 A 
ATOM     24  C   UNL     1       1.722   2.778  21.182  0.00  0.00    +0.000 A 
ATOM     25  F   UNL     1       0.616   2.657  21.933  0.00  0.00    +0.000 F 
ATOM     26  C   UNL     1       1.657   3.472  19.962  0.00  0.00    +0.000 A 
ENDBRANCH  18  20
ENDBRANCH   1  18
TORSDOF 3
ENDMDL
MODEL 3
REMARK VINA RESULT:      -7.4      7.501      9.438
REMARK  Name = 
REMARK  3 active torsions:
REMARK  status: ('A' for Active; 'I' for Inactive)
REMARK    1  A    between atoms: S_2  and  C_4
REMARK    2  A    between atoms: S_2  and  C_11
REMARK    3  A    between atoms: N_13  and  C_14
REMARK                            x       y       z     vdW  Elec       q    Type
REMARK                         _______ _______ _______ _____ _____    ______ ____
ROOT
ATOM      1  C   UNL     1      -0.251  10.363  20.650  0.00  0.00    +0.000 A 
ATOM      2  C   UNL     1      -0.347  11.534  21.412  0.00  0.00    +0.000 A 
ATOM      3  N   UNL     1      -0.402  12.498  20.437  0.00  0.00    +0.000 N 
ATOM      4  C   UNL     1      -1.505  11.967  19.776  0.00  0.00    +0.000 A 
ATOM      5  C   UNL     1      -2.845  12.316  19.660  0.00  0.00    +0.000 A 
ATOM      6  C   UNL     1      -3.517  11.675  18.626  0.00  0.00    +0.000 A 
ATOM      7  C   UNL     1      -2.815  10.790  17.798  0.00  0.00    +0.000 A 
ATOM      8  C   UNL     1      -1.580  10.239  18.220  0.00  0.00    +0.000 A 
ATOM      9  F   UNL     1      -0.890   9.464  17.374  0.00  0.00    +0.000 F 
ATOM     10  C   UNL     1      -1.061  10.665  19.461  0.00  0.00    +0.000 A 
ENDROOT
BRANCH   3  11
ATOM     11  C   UNL     1       0.846  12.791  19.655  0.00  0.00    +0.000 C 
ATOM     12  C   UNL     1       2.056  13.232  20.475  0.00  0.00    +0.000 C 
ATOM     13  C   UNL     1       2.024  14.738  20.373  0.00  0.00    +0.000 C 
ATOM     14  N   UNL     1       1.494  15.041  19.039  0.00  0.00    +0.000 NA
ATOM     15  C   UNL     1       0.641  13.911  18.641  0.00  0.00    +0.000 C 
ATOM     16  H   UNL     1       2.268  15.118  18.377  0.00  0.00    +0.000 HD
ENDBRANCH   3  11
BRANCH   1  18
ATOM     17  O   UNL     1      -0.653   8.093  21.657  0.00  0.00    +0.000 OA
ATOM     18  S   UNL     1       0.464   8.993  21.420  0.00  0.00    +0.000 S 
ATOM     19  O   UNL     1       1.295   9.500  22.483  0.00  0.00    +0.000 OA
BRANCH  18  20
ATOM     20  C   UNL     1       1.514   8.272  20.159  0.00  0.00    +0.000 A 
ATOM     21  C   UNL     1       1.783   9.020  18.999  0.00  0.00    +0.000 A 
ATOM     22  C   UNL     1       2.504   8.444  17.942  0.00  0.00    +0.000 A 
ATOM     23  C   UNL     1       2.924   7.109  18.008  0.00  0.00    +0.000 A 
ATOM     24  C   UNL     1       2.639   6.359  19.144  0.00  0.00    +0.000 A 
ATOM     25  F   UNL     1       3.013   5.071  19.189  0.00  0.00    +0.000 F 
ATOM     26  C   UNL     1       1.939   6.915  20.228  0.00  0.00    +0.000 A 
ENDBRANCH  18  20
ENDBRANCH   1  18
TORSDOF 3
ENDMDL
MODEL 4
REMARK VINA RESULT:      -7.2      1.433      1.735
REMARK  Name = 
REMARK  3 active torsions:
REMARK  status: ('A' for Active; 'I' for Inactive)
REMARK    1  A    between atoms: S_2  and  C_4
REMARK    2  A    between atoms: S_2  and  C_11
REMARK    3  A    between atoms: N_13  and  C_14
REMARK                            x       y       z     vdW  Elec       q    Type
REMARK                         _______ _______ _______ _____ _____    ______ ____
ROOT
ATOM      1  C   UNL     1       4.533   3.756  16.897  0.00  0.00    +0.000 A 
ATOM      2  C   UNL     1       5.442   2.856  16.327  0.00  0.00    +0.000 A 
ATOM      3  N   UNL     1       6.293   3.702  15.661  0.00  0.00    +0.000 N 
ATOM      4  C   UNL     1       6.627   4.469  16.773  0.00  0.00    +0.000 A 
ATOM      5  C   UNL     1       7.751   4.594  17.582  0.00  0.00    +0.000 A 
ATOM      6  C   UNL     1       7.755   5.727  18.386  0.00  0.00    +0.000 A 
ATOM      7  C   UNL     1       6.689   6.632  18.300  0.00  0.00    +0.000 A 
ATOM      8  C   UNL     1       5.454   6.234  17.732  0.00  0.00    +0.000 A 
ATOM      9  F   UNL     1       4.481   7.143  17.586  0.00  0.00    +0.000 F 
ATOM     10  C   UNL     1       5.364   4.929  17.204  0.00  0.00    +0.000 A 
ENDROOT
BRANCH   3  11
ATOM     11  C   UNL     1       5.790   4.389  14.425  0.00  0.00    +0.000 C 
ATOM     12  C   UNL     1       5.138   3.486  13.382  0.00  0.00    +0.000 C 
ATOM     13  C   UNL     1       6.250   3.225  12.394  0.00  0.00    +0.000 C 
ATOM     14  N   UNL     1       7.059   4.447  12.364  0.00  0.00    +0.000 NA
ATOM     15  C   UNL     1       6.904   5.106  13.670  0.00  0.00    +0.000 C 
ATOM     16  H   UNL     1       6.704   5.070  11.637  0.00  0.00    +0.000 HD
ENDBRANCH   3  11
BRANCH   1  18
ATOM     17  O   UNL     1       3.130   1.694  17.226  0.00  0.00    +0.000 OA
ATOM     18  S   UNL     1       2.967   3.138  17.281  0.00  0.00    +0.000 S 
ATOM     19  O   UNL     1       2.024   3.848  16.454  0.00  0.00    +0.000 OA
BRANCH  18  20
ATOM     20  C   UNL     1       2.710   3.615  18.990  0.00  0.00    +0.000 A 
ATOM     21  C   UNL     1       2.793   2.625  19.985  0.00  0.00    +0.000 A 
ATOM     22  C   UNL     1       2.484   2.939  21.317  0.00  0.00    +0.000 A 
ATOM     23  C   UNL     1       2.047   4.224  21.664  0.00  0.00    +0.000 A 
ATOM     24  C   UNL     1       1.941   5.199  20.678  0.00  0.00    +0.000 A 
ATOM     25  F   UNL     1       1.489   6.419  21.010  0.00  0.00    +0.000 F 
ATOM     26  C   UNL     1       2.265   4.921  19.340  0.00  0.00    +0.000 A 
ENDBRANCH  18  20
ENDBRANCH   1  18
TORSDOF 3
ENDMDL
MODEL 5
REMARK VINA RESULT:      -7.1      7.364      9.395
REMARK  Name = 
REMARK  3 active torsions:
REMARK  status: ('A' for Active; 'I' for Inactive)
REMARK    1  A    between atoms: S_2  and  C_4
REMARK    2  A    between atoms: S_2  and  C_11
REMARK    3  A    between atoms: N_13  and  C_14
REMARK                            x       y       z     vdW  Elec       q    Type
REMARK                         _______ _______ _______ _____ _____    ______ ____
ROOT
ATOM      1  C   UNL     1      -0.136  10.344  20.764  0.00  0.00    +0.000 A 
ATOM      2  C   UNL     1      -0.247  11.545  21.476  0.00  0.00    +0.000 A 
ATOM      3  N   UNL     1      -0.234  12.471  20.464  0.00  0.00    +0.000 N 
ATOM      4  C   UNL     1      -1.313  11.935  19.769  0.00  0.00    +0.000 A 
ATOM      5  C   UNL     1      -2.639  12.303  19.572  0.00  0.00    +0.000 A 
ATOM      6  C   UNL     1      -3.271  11.635  18.530  0.00  0.00    +0.000 A 
ATOM      7  C   UNL     1      -2.547  10.706  17.772  0.00  0.00    +0.000 A 
ATOM      8  C   UNL     1      -1.345  10.150  18.277  0.00  0.00    +0.000 A 
ATOM      9  F   UNL     1      -0.629   9.330  17.497  0.00  0.00    +0.000 F 
ATOM     10  C   UNL     1      -0.880  10.614  19.526  0.00  0.00    +0.000 A 
ENDROOT
BRANCH   3  11
ATOM     11  C   UNL     1       1.057  12.712  19.735  0.00  0.00    +0.000 C 
ATOM     12  C   UNL     1       2.215  13.225  20.588  0.00  0.00    +0.000 C 
ATOM     13  C   UNL     1       2.184  14.718  20.365  0.00  0.00    +0.000 C 
ATOM     14  N   UNL     1       1.733  14.912  18.983  0.00  0.00    +0.000 NA
ATOM     15  C   UNL     1       0.908  13.747  18.626  0.00  0.00    +0.000 C 
ATOM     16  H   UNL     1       2.544  14.942  18.363  0.00  0.00    +0.000 HD
ENDBRANCH   3  11
BRANCH   1  18
ATOM     17  O   UNL     1      -0.660   8.263  22.078  0.00  0.00    +0.000 OA
ATOM     18  S   UNL     1       0.512   8.992  21.621  0.00  0.00    +0.000 S 
ATOM     19  O   UNL     1       1.508   9.510  22.525  0.00  0.00    +0.000 OA
BRANCH  18  20
ATOM     20  C   UNL     1       1.328   8.017  20.358  0.00  0.00    +0.000 A 
ATOM     21  C   UNL     1       1.641   6.675  20.639  0.00  0.00    +0.000 A 
ATOM     22  C   UNL     1       2.381   5.917  19.719  0.00  0.00    +0.000 A 
ATOM     23  C   UNL     1       2.857   6.497  18.536  0.00  0.00    +0.000 A 
ATOM     24  C   UNL     1       2.570   7.831  18.266  0.00  0.00    +0.000 A 
ATOM     25  F   UNL     1       3.056   8.391  17.147  0.00  0.00    +0.000 F 
ATOM     26  C   UNL     1       1.811   8.608  19.156  0.00  0.00    +0.000 A 
ENDBRANCH  18  20
ENDBRANCH   1  18
TORSDOF 3
ENDMDL
MODEL 6
REMARK VINA RESULT:      -7.1      1.286      1.638
REMARK  Name = 
REMARK  3 active torsions:
REMARK  status: ('A' for Active; 'I' for Inactive)
REMARK    1  A    between atoms: S_2  and  C_4
REMARK    2  A    between atoms: S_2  and  C_11
REMARK    3  A    between atoms: N_13  and  C_14
REMARK                            x       y       z     vdW  Elec       q    Type
REMARK                         _______ _______ _______ _____ _____    ______ ____
ROOT
ATOM      1  C   UNL     1       4.581   3.782  16.870  0.00  0.00    +0.000 A 
ATOM      2  C   UNL     1       5.486   2.880  16.298  0.00  0.00    +0.000 A 
ATOM      3  N   UNL     1       6.356   3.725  15.657  0.00  0.00    +0.000 N 
ATOM      4  C   UNL     1       6.685   4.470  16.785  0.00  0.00    +0.000 A 
ATOM      5  C   UNL     1       7.800   4.567  17.611  0.00  0.00    +0.000 A 
ATOM      6  C   UNL     1       7.808   5.687  18.434  0.00  0.00    +0.000 A 
ATOM      7  C   UNL     1       6.755   6.606  18.349  0.00  0.00    +0.000 A 
ATOM      8  C   UNL     1       5.522   6.233  17.758  0.00  0.00    +0.000 A 
ATOM      9  F   UNL     1       4.563   7.157  17.614  0.00  0.00    +0.000 F 
ATOM     10  C   UNL     1       5.423   4.939  17.207  0.00  0.00    +0.000 A 
ENDROOT
BRANCH   3  11
ATOM     11  C   UNL     1       5.879   4.439  14.425  0.00  0.00    +0.000 C 
ATOM     12  C   UNL     1       5.159   3.575  13.393  0.00  0.00    +0.000 C 
ATOM     13  C   UNL     1       6.241   3.246  12.392  0.00  0.00    +0.000 C 
ATOM     14  N   UNL     1       7.121   4.418  12.347  0.00  0.00    +0.000 NA
ATOM     15  C   UNL     1       7.023   5.087  13.654  0.00  0.00    +0.000 C 
ATOM     16  H   UNL     1       6.793   5.060  11.624  0.00  0.00    +0.000 HD
ENDBRANCH   3  11
BRANCH   1  18
ATOM     17  O   UNL     1       3.227   1.793  17.604  0.00  0.00    +0.000 OA
ATOM     18  S   UNL     1       3.002   3.178  17.223  0.00  0.00    +0.000 S 
ATOM     19  O   UNL     1       2.155   3.555  16.120  0.00  0.00    +0.000 OA
BRANCH  18  20
ATOM     20  C   UNL     1       2.495   4.091  18.680  0.00  0.00    +0.000 A 
ATOM     21  C   UNL     1       2.224   5.465  18.554  0.00  0.00    +0.000 A 
ATOM     22  C   UNL     1       1.938   6.233  19.693  0.00  0.00    +0.000 A 
ATOM     23  C   UNL     1       1.962   5.655  20.968  0.00  0.00    +0.000 A 
ATOM     24  C   UNL     1       2.252   4.301  21.099  0.00  0.00    +0.000 A 
ATOM     25  F   UNL     1       2.307   3.759  22.326  0.00  0.00    +0.000 F 
ATOM     26  C   UNL     1       2.520   3.501  19.976  0.00  0.00    +0.000 A 
ENDBRANCH  18  20
ENDBRANCH   1  18
TORSDOF 3
ENDMDL
MODEL 7
REMARK VINA RESULT:      -7.1      9.011     10.862
REMARK  Name = 
REMARK  3 active torsions:
REMARK  status: ('A' for Active; 'I' for Inactive)
REMARK    1  A    between atoms: S_2  and  C_4
REMARK    2  A    between atoms: S_2  and  C_11
REMARK    3  A    between atoms: N_13  and  C_14
REMARK                            x       y       z     vdW  Elec       q    Type
REMARK                         _______ _______ _______ _____ _____    ______ ____
ROOT
ATOM      1  C   UNL     1       8.183  14.113  20.082  0.00  0.00    +0.000 A 
ATOM      2  C   UNL     1       7.948  14.542  18.770  0.00  0.00    +0.000 A 
ATOM      3  N   UNL     1       9.102  14.155  18.137  0.00  0.00    +0.000 N 
ATOM      4  C   UNL     1       9.012  12.812  18.491  0.00  0.00    +0.000 A 
ATOM      5  C   UNL     1       8.702  11.635  17.819  0.00  0.00    +0.000 A 
ATOM      6  C   UNL     1       9.054  10.476  18.500  0.00  0.00    +0.000 A 
ATOM      7  C   UNL     1       9.696  10.579  19.741  0.00  0.00    +0.000 A 
ATOM      8  C   UNL     1       9.633  11.785  20.484  0.00  0.00    +0.000 A 
ATOM      9  F   UNL     1      10.325  11.883  21.626  0.00  0.00    +0.000 F 
ATOM     10  C   UNL     1       8.964  12.881  19.900  0.00  0.00    +0.000 A 
ENDROOT
BRANCH   3  11
ATOM     11  C   UNL     1      10.367  14.905  18.440  0.00  0.00    +0.000 C 
ATOM     12  C   UNL     1      10.340  16.401  18.135  0.00  0.00    +0.000 C 
ATOM     13  C   UNL     1      10.990  16.496  16.775  0.00  0.00    +0.000 C 
ATOM     14  N   UNL     1      12.002  15.436  16.735  0.00  0.00    +0.000 NA
ATOM     15  C   UNL     1      11.556  14.373  17.649  0.00  0.00    +0.000 C 
ATOM     16  H   UNL     1      12.893  15.805  17.069  0.00  0.00    +0.000 HD
ENDBRANCH   3  11
BRANCH   1  18
ATOM     17  O   UNL     1       5.948  14.991  20.833  0.00  0.00    +0.000 OA
ATOM     18  S   UNL     1       7.312  14.926  21.332  0.00  0.00    +0.000 S 
ATOM     19  O   UNL     1       8.074  16.101  21.673  0.00  0.00    +0.000 OA
BRANCH  18  20
ATOM     20  C   UNL     1       7.356  13.786  22.715  0.00  0.00    +0.000 A 
ATOM     21  C   UNL     1       8.513  13.739  23.513  0.00  0.00    +0.000 A 
ATOM     22  C   UNL     1       8.627  12.780  24.530  0.00  0.00    +0.000 A 
ATOM     23  C   UNL     1       7.616  11.832  24.735  0.00  0.00    +0.000 A 
ATOM     24  C   UNL     1       6.481  11.861  23.932  0.00  0.00    +0.000 A 
ATOM     25  F   UNL     1       5.530  10.930  24.109  0.00  0.00    +0.000 F 
ATOM     26  C   UNL     1       6.327  12.824  22.920  0.00  0.00    +0.000 A 
ENDBRANCH  18  20
ENDBRANCH   1  18
TORSDOF 3
ENDMDL
MODEL 8
REMARK VINA RESULT:      -6.9      9.096     11.038
REMARK  Name = 
REMARK  3 active torsions:
REMARK  status: ('A' for Active; 'I' for Inactive)
REMARK    1  A    between atoms: S_2  and  C_4
REMARK    2  A    between atoms: S_2  and  C_11
REMARK    3  A    between atoms: N_13  and  C_14
REMARK                            x       y       z     vdW  Elec       q    Type
REMARK                         _______ _______ _______ _____ _____    ______ ____
ROOT
ATOM      1  C   UNL     1       8.249  14.043  20.101  0.00  0.00    +0.000 A 
ATOM      2  C   UNL     1       7.842  14.434  18.819  0.00  0.00    +0.000 A 
ATOM      3  N   UNL     1       8.925  14.072  18.059  0.00  0.00    +0.000 N 
ATOM      4  C   UNL     1       8.928  12.736  18.446  0.00  0.00    +0.000 A 
ATOM      5  C   UNL     1       8.584  11.534  17.838  0.00  0.00    +0.000 A 
ATOM      6  C   UNL     1       9.059  10.404  18.493  0.00  0.00    +0.000 A 
ATOM      7  C   UNL     1       9.841  10.557  19.645  0.00  0.00    +0.000 A 
ATOM      8  C   UNL     1       9.822  11.777  20.367  0.00  0.00    +0.000 A 
ATOM      9  F   UNL     1      10.643  11.925  21.415  0.00  0.00    +0.000 F 
ATOM     10  C   UNL     1       9.048  12.835  19.848  0.00  0.00    +0.000 A 
ENDROOT
BRANCH   3  11
ATOM     11  C   UNL     1      10.188  14.873  18.192  0.00  0.00    +0.000 C 
ATOM     12  C   UNL     1      10.008  16.387  18.279  0.00  0.00    +0.000 C 
ATOM     13  C   UNL     1      10.244  16.853  16.862  0.00  0.00    +0.000 C 
ATOM     14  N   UNL     1      11.251  15.948  16.300  0.00  0.00    +0.000 NA
ATOM     15  C   UNL     1      11.130  14.665  17.012  0.00  0.00    +0.000 C 
ATOM     16  H   UNL     1      12.182  16.331  16.469  0.00  0.00    +0.000 HD
ENDBRANCH   3  11
BRANCH   1  18
ATOM     17  O   UNL     1       6.098  14.914  21.071  0.00  0.00    +0.000 OA
ATOM     18  S   UNL     1       7.505  14.854  21.431  0.00  0.00    +0.000 S 
ATOM     19  O   UNL     1       8.293  16.031  21.695  0.00  0.00    +0.000 OA
BRANCH  18  20
ATOM     20  C   UNL     1       7.691  13.715  22.803  0.00  0.00    +0.000 A 
ATOM     21  C   UNL     1       6.920  12.538  22.811  0.00  0.00    +0.000 A 
ATOM     22  C   UNL     1       6.955  11.683  23.923  0.00  0.00    +0.000 A 
ATOM     23  C   UNL     1       7.716  12.010  25.052  0.00  0.00    +0.000 A 
ATOM     24  C   UNL     1       8.460  13.185  25.057  0.00  0.00    +0.000 A 
ATOM     25  F   UNL     1       9.162  13.511  26.155  0.00  0.00    +0.000 F 
ATOM     26  C   UNL     1       8.465  14.050  23.951  0.00  0.00    +0.000 A 
ENDBRANCH  18  20
ENDBRANCH   1  18
TORSDOF 3
ENDMDL
MODEL 9
REMARK VINA RESULT:      -6.9      9.485     10.907
REMARK  Name = 
REMARK  3 active torsions:
REMARK  status: ('A' for Active; 'I' for Inactive)
REMARK    1  A    between atoms: S_2  and  C_4
REMARK    2  A    between atoms: S_2  and  C_11
REMARK    3  A    between atoms: N_13  and  C_14
REMARK                            x       y       z     vdW  Elec       q    Type
REMARK                         _______ _______ _______ _____ _____    ______ ____
ROOT
ATOM      1  C   UNL     1      -0.449  11.776  20.982  0.00  0.00    +0.000 A 
ATOM      2  C   UNL     1      -0.359  10.456  20.525  0.00  0.00    +0.000 A 
ATOM      3  N   UNL     1      -0.499  10.619  19.170  0.00  0.00    +0.000 N 
ATOM      4  C   UNL     1       0.557  11.513  19.026  0.00  0.00    +0.000 A 
ATOM      5  C   UNL     1       1.842  11.443  18.499  0.00  0.00    +0.000 A 
ATOM      6  C   UNL     1       2.437  12.679  18.272  0.00  0.00    +0.000 A 
ATOM      7  C   UNL     1       1.716  13.847  18.550  0.00  0.00    +0.000 A 
ATOM      8  C   UNL     1       0.588  13.808  19.407  0.00  0.00    +0.000 A 
ATOM      9  F   UNL     1      -0.132  14.922  19.587  0.00  0.00    +0.000 F 
ATOM     10  C   UNL     1       0.187  12.551  19.907  0.00  0.00    +0.000 A 
ENDROOT
BRANCH   3  11
ATOM     11  C   UNL     1      -1.850  10.995  18.633  0.00  0.00    +0.000 C 
ATOM     12  C   UNL     1      -2.679   9.848  18.060  0.00  0.00    +0.000 C 
ATOM     13  C   UNL     1      -2.422   9.933  16.574  0.00  0.00    +0.000 C 
ATOM     14  N   UNL     1      -2.256  11.359  16.274  0.00  0.00    +0.000 NA
ATOM     15  C   UNL     1      -1.759  12.007  17.498  0.00  0.00    +0.000 C 
ATOM     16  H   UNL     1      -3.163  11.762  16.034  0.00  0.00    +0.000 HD
ENDBRANCH   3  11
BRANCH   1  18
ATOM     17  O   UNL     1      -0.259  13.200  23.048  0.00  0.00    +0.000 OA
ATOM     18  S   UNL     1      -0.954  11.997  22.619  0.00  0.00    +0.000 S 
ATOM     19  O   UNL     1      -0.793  10.726  23.279  0.00  0.00    +0.000 OA
BRANCH  18  20
ATOM     20  C   UNL     1      -2.704  12.367  22.497  0.00  0.00    +0.000 A 
ATOM     21  C   UNL     1      -3.209  12.840  21.272  0.00  0.00    +0.000 A 
ATOM     22  C   UNL     1      -4.547  13.248  21.174  0.00  0.00    +0.000 A 
ATOM     23  C   UNL     1      -5.382  13.234  22.299  0.00  0.00    +0.000 A 
ATOM     24  C   UNL     1      -4.879  12.790  23.518  0.00  0.00    +0.000 A 
ATOM     25  F   UNL     1      -5.673  12.811  24.600  0.00  0.00    +0.000 F 
ATOM     26  C   UNL     1      -3.550  12.353  23.642  0.00  0.00    +0.000 A 
ENDBRANCH  18  20
ENDBRANCH   1  18
TORSDOF 3
ENDMDL
