MODEL 1
REMARK VINA RESULT:      -7.1      0.000      0.000
REMARK  Name = 
REMARK  9 active torsions:
REMARK  status: ('A' for Active; 'I' for Inactive)
REMARK    1  A    between atoms: C_1  and  S_2
REMARK    2  A    between atoms: S_2  and  C_3
REMARK    3  A    between atoms: C_6  and  C_7
REMARK    4  A    between atoms: C_8  and  N_9
REMARK    5  A    between atoms: C_8  and  C_18
REMARK    6  A    between atoms: C_10  and  C_12
REMARK    7  A    between atoms: N_20  and  C_21
REMARK    8  A    between atoms: C_21  and  C_22
REMARK    9  A    between atoms: C_22  and  N_23
REMARK                            x       y       z     vdW  Elec       q    Type
REMARK                         _______ _______ _______ _____ _____    ______ ____
ROOT
ATOM      1  C   UNL     1       2.040   9.059  17.722  0.00  0.00    +0.000 C 
ATOM      2  C   UNL     1       2.537   7.891  18.187  0.00  0.00    +0.000 C 
ENDROOT
BRANCH   1   6
ATOM      3  C   UNL     1      -0.867  11.570  19.621  0.00  0.00    +0.000 A 
ATOM      4  C   UNL     1       0.502  11.767  19.829  0.00  0.00    +0.000 A 
ATOM      5  C   UNL     1       1.445  10.954  19.191  0.00  0.00    +0.000 A 
ATOM      6  C   UNL     1       1.026   9.924  18.346  0.00  0.00    +0.000 A 
ATOM      7  C   UNL     1      -0.339   9.740  18.112  0.00  0.00    +0.000 A 
ATOM      8  C   UNL     1      -1.284  10.557  18.756  0.00  0.00    +0.000 A 
BRANCH   3  10
ATOM      9  C   UNL     1      -3.533  12.319  19.588  0.00  0.00    +0.000 C 
ATOM     10  S   UNL     1      -2.020  12.566  20.552  0.00  0.00    +0.000 S 
ENDBRANCH   3  10
ENDBRANCH   1   6
BRANCH   2  11
ATOM     11  N   UNL     1       3.536   7.185  17.533  0.00  0.00    +0.000 N 
ATOM     12  C   UNL     1       4.479   6.331  18.096  0.00  0.00    +0.000 C 
ATOM     13  O   UNL     1       4.555   6.016  19.278  0.00  0.00    +0.000 OA
ATOM     14  H   UNL     1       3.504   7.231  16.524  0.00  0.00    +0.000 HD
BRANCH  12  15
ATOM     15  C   UNL     1       5.396   5.683  17.119  0.00  0.00    +0.000 A 
ATOM     16  C   UNL     1       6.532   4.978  17.540  0.00  0.00    +0.000 A 
ATOM     17  C   UNL     1       7.391   4.414  16.593  0.00  0.00    +0.000 A 
ATOM     18  C   UNL     1       7.116   4.545  15.233  0.00  0.00    +0.000 A 
ATOM     19  C   UNL     1       5.977   5.227  14.809  0.00  0.00    +0.000 A 
ATOM     20  C   UNL     1       5.113   5.791  15.750  0.00  0.00    +0.000 A 
ENDBRANCH  12  15
ENDBRANCH   2  11
BRANCH   2  21
ATOM     21  C   UNL     1       1.996   7.256  19.466  0.00  0.00    +0.000 C 
ATOM     22  O   UNL     1       1.935   7.836  20.543  0.00  0.00    +0.000 OA
ATOM     23  N   UNL     1       1.590   5.931  19.331  0.00  0.00    +0.000 N 
ATOM     24  H   UNL     1       1.889   5.407  18.523  0.00  0.00    +0.000 HD
BRANCH  23  25
ATOM     25  C   UNL     1       1.251   5.191  20.542  0.00  0.00    +0.000 C 
BRANCH  25  26
ATOM     26  C   UNL     1       2.427   4.385  21.127  0.00  0.00    +0.000 C 
BRANCH  26  27
ATOM     27  N   UNL     1       2.225   2.922  21.111  0.00  0.00    +0.000 NA
ATOM     28  C   UNL     1       3.482   2.143  21.204  0.00  0.00    +0.000 C 
ATOM     29  C   UNL     1       4.347   2.214  19.934  0.00  0.00    +0.000 C 
ATOM     30  O   UNL     1       3.615   1.778  18.782  0.00  0.00    +0.000 OA
ATOM     31  C   UNL     1       2.406   2.531  18.617  0.00  0.00    +0.000 C 
ATOM     32  C   UNL     1       1.527   2.479  19.880  0.00  0.00    +0.000 C 
ENDBRANCH  26  27
ENDBRANCH  25  26
ENDBRANCH  23  25
ENDBRANCH   2  21
TORSDOF 8
ENDMDL
MODEL 2
REMARK VINA RESULT:      -7.0      0.709      1.168
REMARK  Name = 
REMARK  9 active torsions:
REMARK  status: ('A' for Active; 'I' for Inactive)
REMARK    1  A    between atoms: C_1  and  S_2
REMARK    2  A    between atoms: S_2  and  C_3
REMARK    3  A    between atoms: C_6  and  C_7
REMARK    4  A    between atoms: C_8  and  N_9
REMARK    5  A    between atoms: C_8  and  C_18
REMARK    6  A    between atoms: C_10  and  C_12
REMARK    7  A    between atoms: N_20  and  C_21
REMARK    8  A    between atoms: C_21  and  C_22
REMARK    9  A    between atoms: C_22  and  N_23
REMARK                            x       y       z     vdW  Elec       q    Type
REMARK                         _______ _______ _______ _____ _____    ______ ____
ROOT
ATOM      1  C   UNL     1       1.985   8.897  17.741  0.00  0.00    +0.000 C 
ATOM      2  C   UNL     1       2.501   7.731  18.189  0.00  0.00    +0.000 C 
ENDROOT
BRANCH   1   6
ATOM      3  C   UNL     1      -0.972  11.410  19.558  0.00  0.00    +0.000 A 
ATOM      4  C   UNL     1      -1.325  10.470  18.585  0.00  0.00    +0.000 A 
ATOM      5  C   UNL     1      -0.356   9.641  18.010  0.00  0.00    +0.000 A 
ATOM      6  C   UNL     1       0.982   9.754  18.394  0.00  0.00    +0.000 A 
ATOM      7  C   UNL     1       1.337  10.672  19.385  0.00  0.00    +0.000 A 
ATOM      8  C   UNL     1       0.362  11.505  19.960  0.00  0.00    +0.000 A 
BRANCH   3  10
ATOM      9  C   UNL     1      -1.339  13.345  21.506  0.00  0.00    +0.000 C 
ATOM     10  S   UNL     1      -2.234  12.515  20.169  0.00  0.00    +0.000 S 
ENDBRANCH   3  10
ENDBRANCH   1   6
BRANCH   2  11
ATOM     11  N   UNL     1       3.486   7.032  17.507  0.00  0.00    +0.000 N 
ATOM     12  C   UNL     1       4.453   6.188  18.044  0.00  0.00    +0.000 C 
ATOM     13  O   UNL     1       4.565   5.875  19.223  0.00  0.00    +0.000 OA
ATOM     14  H   UNL     1       3.424   7.076  16.499  0.00  0.00    +0.000 HD
BRANCH  12  15
ATOM     15  C   UNL     1       5.346   5.546  17.041  0.00  0.00    +0.000 A 
ATOM     16  C   UNL     1       6.658   5.996  16.837  0.00  0.00    +0.000 A 
ATOM     17  C   UNL     1       7.455   5.393  15.861  0.00  0.00    +0.000 A 
ATOM     18  C   UNL     1       6.953   4.342  15.096  0.00  0.00    +0.000 A 
ATOM     19  C   UNL     1       5.657   3.876  15.310  0.00  0.00    +0.000 A 
ATOM     20  C   UNL     1       4.855   4.472  16.286  0.00  0.00    +0.000 A 
ENDBRANCH  12  15
ENDBRANCH   2  11
BRANCH   2  21
ATOM     21  C   UNL     1       1.997   7.089  19.481  0.00  0.00    +0.000 C 
ATOM     22  O   UNL     1       2.005   7.651  20.569  0.00  0.00    +0.000 OA
ATOM     23  N   UNL     1       1.543   5.781  19.342  0.00  0.00    +0.000 N 
ATOM     24  H   UNL     1       1.788   5.263  18.512  0.00  0.00    +0.000 HD
BRANCH  23  25
ATOM     25  C   UNL     1       1.236   5.030  20.554  0.00  0.00    +0.000 C 
BRANCH  25  26
ATOM     26  C   UNL     1       2.444   4.274  21.140  0.00  0.00    +0.000 C 
BRANCH  26  27
ATOM     27  N   UNL     1       2.313   2.804  21.106  0.00  0.00    +0.000 NA
ATOM     28  C   UNL     1       3.609   2.087  21.104  0.00  0.00    +0.000 C 
ATOM     29  C   UNL     1       4.388   2.224  19.784  0.00  0.00    +0.000 C 
ATOM     30  O   UNL     1       3.607   1.773  18.671  0.00  0.00    +0.000 OA
ATOM     31  C   UNL     1       2.355   2.468  18.597  0.00  0.00    +0.000 C 
ATOM     32  C   UNL     1       1.561   2.350  19.912  0.00  0.00    +0.000 C 
ENDBRANCH  26  27
ENDBRANCH  25  26
ENDBRANCH  23  25
ENDBRANCH   2  21
TORSDOF 8
ENDMDL
MODEL 3
REMARK VINA RESULT:      -6.9      0.862      1.499
REMARK  Name = 
REMARK  9 active torsions:
REMARK  status: ('A' for Active; 'I' for Inactive)
REMARK    1  A    between atoms: C_1  and  S_2
REMARK    2  A    between atoms: S_2  and  C_3
REMARK    3  A    between atoms: C_6  and  C_7
REMARK    4  A    between atoms: C_8  and  N_9
REMARK    5  A    between atoms: C_8  and  C_18
REMARK    6  A    between atoms: C_10  and  C_12
REMARK    7  A    between atoms: N_20  and  C_21
REMARK    8  A    between atoms: C_21  and  C_22
REMARK    9  A    between atoms: C_22  and  N_23
REMARK                            x       y       z     vdW  Elec       q    Type
REMARK                         _______ _______ _______ _____ _____    ______ ____
ROOT
ATOM      1  C   UNL     1       2.069   8.936  17.783  0.00  0.00    +0.000 C 
ATOM      2  C   UNL     1       2.655   7.855  18.344  0.00  0.00    +0.000 C 
ENDROOT
BRANCH   1   6
ATOM      3  C   UNL     1      -1.188  11.304  19.248  0.00  0.00    +0.000 A 
ATOM      4  C   UNL     1      -1.389  10.336  18.260  0.00  0.00    +0.000 A 
ATOM      5  C   UNL     1      -0.323   9.555  17.800  0.00  0.00    +0.000 A 
ATOM      6  C   UNL     1       0.961   9.744  18.316  0.00  0.00    +0.000 A 
ATOM      7  C   UNL     1       1.162  10.690  19.325  0.00  0.00    +0.000 A 
ATOM      8  C   UNL     1       0.091  11.475  19.783  0.00  0.00    +0.000 A 
BRANCH   3  10
ATOM      9  C   UNL     1      -1.692  13.841  20.238  0.00  0.00    +0.000 C 
ATOM     10  S   UNL     1      -2.563  12.345  19.710  0.00  0.00    +0.000 S 
ENDBRANCH   3  10
ENDBRANCH   1   6
BRANCH   2  11
ATOM     11  N   UNL     1       3.734   7.201  17.769  0.00  0.00    +0.000 N 
ATOM     12  C   UNL     1       3.797   5.876  17.349  0.00  0.00    +0.000 C 
ATOM     13  O   UNL     1       2.877   5.066  17.372  0.00  0.00    +0.000 OA
ATOM     14  H   UNL     1       4.525   7.789  17.548  0.00  0.00    +0.000 HD
BRANCH  12  15
ATOM     15  C   UNL     1       5.089   5.479  16.725  0.00  0.00    +0.000 A 
ATOM     16  C   UNL     1       5.271   5.518  15.336  0.00  0.00    +0.000 A 
ATOM     17  C   UNL     1       6.486   5.103  14.783  0.00  0.00    +0.000 A 
ATOM     18  C   UNL     1       7.517   4.659  15.609  0.00  0.00    +0.000 A 
ATOM     19  C   UNL     1       7.348   4.638  16.993  0.00  0.00    +0.000 A 
ATOM     20  C   UNL     1       6.138   5.054  17.553  0.00  0.00    +0.000 A 
ENDBRANCH  12  15
ENDBRANCH   2  11
BRANCH   2  21
ATOM     21  C   UNL     1       2.133   7.264  19.652  0.00  0.00    +0.000 C 
ATOM     22  O   UNL     1       2.115   7.871  20.715  0.00  0.00    +0.000 OA
ATOM     23  N   UNL     1       1.694   5.946  19.561  0.00  0.00    +0.000 N 
ATOM     24  H   UNL     1       1.960   5.396  18.758  0.00  0.00    +0.000 HD
BRANCH  23  25
ATOM     25  C   UNL     1       1.371   5.244  20.798  0.00  0.00    +0.000 C 
BRANCH  25  26
ATOM     26  C   UNL     1       2.552   4.450  21.389  0.00  0.00    +0.000 C 
BRANCH  26  27
ATOM     27  N   UNL     1       2.314   2.997  21.490  0.00  0.00    +0.000 NA
ATOM     28  C   UNL     1       3.478   2.170  21.095  0.00  0.00    +0.000 C 
ATOM     29  C   UNL     1       3.768   2.195  19.585  0.00  0.00    +0.000 C 
ATOM     30  O   UNL     1       2.625   1.777  18.829  0.00  0.00    +0.000 OA
ATOM     31  C   UNL     1       1.475   2.575  19.139  0.00  0.00    +0.000 C 
ATOM     32  C   UNL     1       1.170   2.570  20.649  0.00  0.00    +0.000 C 
ENDBRANCH  26  27
ENDBRANCH  25  26
ENDBRANCH  23  25
ENDBRANCH   2  21
TORSDOF 8
ENDMDL
MODEL 4
REMARK VINA RESULT:      -6.9      0.613      1.075
REMARK  Name = 
REMARK  9 active torsions:
REMARK  status: ('A' for Active; 'I' for Inactive)
REMARK    1  A    between atoms: C_1  and  S_2
REMARK    2  A    between atoms: S_2  and  C_3
REMARK    3  A    between atoms: C_6  and  C_7
REMARK    4  A    between atoms: C_8  and  N_9
REMARK    5  A    between atoms: C_8  and  C_18
REMARK    6  A    between atoms: C_10  and  C_12
REMARK    7  A    between atoms: N_20  and  C_21
REMARK    8  A    between atoms: C_21  and  C_22
REMARK    9  A    between atoms: C_22  and  N_23
REMARK                            x       y       z     vdW  Elec       q    Type
REMARK                         _______ _______ _______ _____ _____    ______ ____
ROOT
ATOM      1  C   UNL     1       2.067   9.041  17.798  0.00  0.00    +0.000 C 
ATOM      2  C   UNL     1       2.544   7.852  18.230  0.00  0.00    +0.000 C 
ENDROOT
BRANCH   1   6
ATOM      3  C   UNL     1      -0.719  11.596  19.816  0.00  0.00    +0.000 A 
ATOM      4  C   UNL     1       0.659  11.757  19.987  0.00  0.00    +0.000 A 
ATOM      5  C   UNL     1       1.562  10.929  19.310  0.00  0.00    +0.000 A 
ATOM      6  C   UNL     1       1.093   9.922  18.463  0.00  0.00    +0.000 A 
ATOM      7  C   UNL     1      -0.282   9.776  18.267  0.00  0.00    +0.000 A 
ATOM      8  C   UNL     1      -1.187  10.606  18.949  0.00  0.00    +0.000 A 
BRANCH   3  10
ATOM      9  C   UNL     1      -1.445  12.001  22.458  0.00  0.00    +0.000 C 
ATOM     10  S   UNL     1      -1.820  12.607  20.794  0.00  0.00    +0.000 S 
ENDBRANCH   3  10
ENDBRANCH   1   6
BRANCH   2  11
ATOM     11  N   UNL     1       3.505   7.132  17.537  0.00  0.00    +0.000 N 
ATOM     12  C   UNL     1       4.451   6.256  18.062  0.00  0.00    +0.000 C 
ATOM     13  O   UNL     1       4.560   5.932  19.239  0.00  0.00    +0.000 OA
ATOM     14  H   UNL     1       3.439   7.185  16.530  0.00  0.00    +0.000 HD
BRANCH  12  15
ATOM     15  C   UNL     1       5.320   5.597  17.050  0.00  0.00    +0.000 A 
ATOM     16  C   UNL     1       4.787   5.039  15.881  0.00  0.00    +0.000 A 
ATOM     17  C   UNL     1       5.629   4.394  14.971  0.00  0.00    +0.000 A 
ATOM     18  C   UNL     1       6.998   4.313  15.220  0.00  0.00    +0.000 A 
ATOM     19  C   UNL     1       7.538   4.886  16.371  0.00  0.00    +0.000 A 
ATOM     20  C   UNL     1       6.702   5.534  17.283  0.00  0.00    +0.000 A 
ENDBRANCH  12  15
ENDBRANCH   2  11
BRANCH   2  21
ATOM     21  C   UNL     1       2.019   7.210  19.512  0.00  0.00    +0.000 C 
ATOM     22  O   UNL     1       2.016   7.767  20.602  0.00  0.00    +0.000 OA
ATOM     23  N   UNL     1       1.557   5.905  19.362  0.00  0.00    +0.000 N 
ATOM     24  H   UNL     1       1.810   5.389  18.533  0.00  0.00    +0.000 HD
BRANCH  23  25
ATOM     25  C   UNL     1       1.229   5.151  20.567  0.00  0.00    +0.000 C 
BRANCH  25  26
ATOM     26  C   UNL     1       2.412   4.347  21.139  0.00  0.00    +0.000 C 
BRANCH  26  27
ATOM     27  N   UNL     1       2.226   2.883  21.097  0.00  0.00    +0.000 NA
ATOM     28  C   UNL     1       3.490   2.115  21.175  0.00  0.00    +0.000 C 
ATOM     29  C   UNL     1       4.353   2.218  19.906  0.00  0.00    +0.000 C 
ATOM     30  O   UNL     1       3.625   1.796  18.746  0.00  0.00    +0.000 OA
ATOM     31  C   UNL     1       2.408   2.539  18.596  0.00  0.00    +0.000 C 
ATOM     32  C   UNL     1       1.531   2.455  19.859  0.00  0.00    +0.000 C 
ENDBRANCH  26  27
ENDBRANCH  25  26
ENDBRANCH  23  25
ENDBRANCH   2  21
TORSDOF 8
ENDMDL
MODEL 5
REMARK VINA RESULT:      -6.8      4.194      8.091
REMARK  Name = 
REMARK  9 active torsions:
REMARK  status: ('A' for Active; 'I' for Inactive)
REMARK    1  A    between atoms: C_1  and  S_2
REMARK    2  A    between atoms: S_2  and  C_3
REMARK    3  A    between atoms: C_6  and  C_7
REMARK    4  A    between atoms: C_8  and  N_9
REMARK    5  A    between atoms: C_8  and  C_18
REMARK    6  A    between atoms: C_10  and  C_12
REMARK    7  A    between atoms: N_20  and  C_21
REMARK    8  A    between atoms: C_21  and  C_22
REMARK    9  A    between atoms: C_22  and  N_23
REMARK                            x       y       z     vdW  Elec       q    Type
REMARK                         _______ _______ _______ _____ _____    ______ ____
ROOT
ATOM      1  C   UNL     1      -0.587  11.347  22.088  0.00  0.00    +0.000 C 
ATOM      2  C   UNL     1      -0.591  10.982  20.786  0.00  0.00    +0.000 C 
ENDROOT
BRANCH   1   6
ATOM      3  C   UNL     1      -2.972  14.403  23.914  0.00  0.00    +0.000 A 
ATOM      4  C   UNL     1      -3.480  13.116  23.715  0.00  0.00    +0.000 A 
ATOM      5  C   UNL     1      -2.688  12.119  23.135  0.00  0.00    +0.000 A 
ATOM      6  C   UNL     1      -1.381  12.405  22.734  0.00  0.00    +0.000 A 
ATOM      7  C   UNL     1      -0.859  13.681  22.956  0.00  0.00    +0.000 A 
ATOM      8  C   UNL     1      -1.657  14.682  23.537  0.00  0.00    +0.000 A 
BRANCH   3  10
ATOM      9  C   UNL     1      -5.620  15.198  23.744  0.00  0.00    +0.000 C 
ATOM     10  S   UNL     1      -4.068  15.659  24.554  0.00  0.00    +0.000 S 
ENDBRANCH   3  10
ENDBRANCH   1   6
BRANCH   2  11
ATOM     11  N   UNL     1       0.168   9.928  20.299  0.00  0.00    +0.000 N 
ATOM     12  C   UNL     1       1.155   9.975  19.320  0.00  0.00    +0.000 C 
ATOM     13  O   UNL     1       1.562  10.981  18.751  0.00  0.00    +0.000 OA
ATOM     14  H   UNL     1       0.045   9.051  20.785  0.00  0.00    +0.000 HD
BRANCH  12  15
ATOM     15  C   UNL     1       1.824   8.674  19.046  0.00  0.00    +0.000 A 
ATOM     16  C   UNL     1       1.846   7.648  20.001  0.00  0.00    +0.000 A 
ATOM     17  C   UNL     1       2.516   6.454  19.722  0.00  0.00    +0.000 A 
ATOM     18  C   UNL     1       3.154   6.277  18.496  0.00  0.00    +0.000 A 
ATOM     19  C   UNL     1       3.116   7.286  17.534  0.00  0.00    +0.000 A 
ATOM     20  C   UNL     1       2.446   8.481  17.804  0.00  0.00    +0.000 A 
ENDBRANCH  12  15
ENDBRANCH   2  11
BRANCH   2  21
ATOM     21  C   UNL     1      -1.420  11.744  19.755  0.00  0.00    +0.000 C 
ATOM     22  O   UNL     1      -1.460  12.965  19.679  0.00  0.00    +0.000 OA
ATOM     23  N   UNL     1      -2.169  10.938  18.901  0.00  0.00    +0.000 N 
ATOM     24  H   UNL     1      -2.323   9.973  19.149  0.00  0.00    +0.000 HD
BRANCH  23  25
ATOM     25  C   UNL     1      -3.139  11.585  18.024  0.00  0.00    +0.000 C 
BRANCH  25  26
ATOM     26  C   UNL     1      -4.591  11.122  18.255  0.00  0.00    +0.000 C 
BRANCH  26  27
ATOM     27  N   UNL     1      -5.563  12.224  18.392  0.00  0.00    +0.000 NA
ATOM     28  C   UNL     1      -5.359  13.057  19.600  0.00  0.00    +0.000 C 
ATOM     29  C   UNL     1      -5.720  12.340  20.912  0.00  0.00    +0.000 C 
ATOM     30  O   UNL     1      -7.075  11.875  20.894  0.00  0.00    +0.000 OA
ATOM     31  C   UNL     1      -7.319  11.024  19.766  0.00  0.00    +0.000 C 
ATOM     32  C   UNL     1      -6.957  11.720  18.440  0.00  0.00    +0.000 C 
ENDBRANCH  26  27
ENDBRANCH  25  26
ENDBRANCH  23  25
ENDBRANCH   2  21
TORSDOF 8
ENDMDL
MODEL 6
REMARK VINA RESULT:      -6.8      3.445      6.971
REMARK  Name = 
REMARK  9 active torsions:
REMARK  status: ('A' for Active; 'I' for Inactive)
REMARK    1  A    between atoms: C_1  and  S_2
REMARK    2  A    between atoms: S_2  and  C_3
REMARK    3  A    between atoms: C_6  and  C_7
REMARK    4  A    between atoms: C_8  and  N_9
REMARK    5  A    between atoms: C_8  and  C_18
REMARK    6  A    between atoms: C_10  and  C_12
REMARK    7  A    between atoms: N_20  and  C_21
REMARK    8  A    between atoms: C_21  and  C_22
REMARK    9  A    between atoms: C_22  and  N_23
REMARK                            x       y       z     vdW  Elec       q    Type
REMARK                         _______ _______ _______ _____ _____    ______ ____
ROOT
ATOM      1  C   UNL     1       1.147  10.209  18.902  0.00  0.00    +0.000 C 
ATOM      2  C   UNL     1       1.168   9.350  19.945  0.00  0.00    +0.000 C 
ENDROOT
BRANCH   1   6
ATOM      3  C   UNL     1       0.462  14.439  18.915  0.00  0.00    +0.000 A 
ATOM      4  C   UNL     1      -0.599  13.538  18.783  0.00  0.00    +0.000 A 
ATOM      5  C   UNL     1      -0.368  12.158  18.797  0.00  0.00    +0.000 A 
ATOM      6  C   UNL     1       0.932  11.665  18.932  0.00  0.00    +0.000 A 
ATOM      7  C   UNL     1       1.992  12.559  19.093  0.00  0.00    +0.000 A 
ATOM      8  C   UNL     1       1.758  13.945  19.076  0.00  0.00    +0.000 A 
BRANCH   3  10
ATOM      9  C   UNL     1      -1.284  16.345  19.910  0.00  0.00    +0.000 C 
ATOM     10  S   UNL     1       0.117  16.185  18.775  0.00  0.00    +0.000 S 
ENDBRANCH   3  10
ENDBRANCH   1   6
BRANCH   2  11
ATOM     11  N   UNL     1       1.434   7.996  19.799  0.00  0.00    +0.000 N 
ATOM     12  C   UNL     1       2.325   7.398  18.914  0.00  0.00    +0.000 C 
ATOM     13  O   UNL     1       3.074   7.981  18.137  0.00  0.00    +0.000 OA
ATOM     14  H   UNL     1       0.995   7.396  20.483  0.00  0.00    +0.000 HD
BRANCH  12  15
ATOM     15  C   UNL     1       2.420   5.918  19.029  0.00  0.00    +0.000 A 
ATOM     16  C   UNL     1       2.611   5.107  17.902  0.00  0.00    +0.000 A 
ATOM     17  C   UNL     1       2.657   3.718  18.044  0.00  0.00    +0.000 A 
ATOM     18  C   UNL     1       2.523   3.137  19.304  0.00  0.00    +0.000 A 
ATOM     19  C   UNL     1       2.355   3.939  20.431  0.00  0.00    +0.000 A 
ATOM     20  C   UNL     1       2.310   5.329  20.297  0.00  0.00    +0.000 A 
ENDBRANCH  12  15
ENDBRANCH   2  11
BRANCH   2  21
ATOM     21  C   UNL     1       0.866   9.824  21.365  0.00  0.00    +0.000 C 
ATOM     22  O   UNL     1       1.727  10.081  22.196  0.00  0.00    +0.000 OA
ATOM     23  N   UNL     1      -0.489   9.923  21.669  0.00  0.00    +0.000 N 
ATOM     24  H   UNL     1      -1.159   9.463  21.071  0.00  0.00    +0.000 HD
BRANCH  23  25
ATOM     25  C   UNL     1      -0.864  10.172  23.056  0.00  0.00    +0.000 C 
BRANCH  25  26
ATOM     26  C   UNL     1      -1.710  11.444  23.253  0.00  0.00    +0.000 C 
BRANCH  26  27
ATOM     27  N   UNL     1      -1.551  12.449  22.182  0.00  0.00    +0.000 NA
ATOM     28  C   UNL     1      -0.612  13.543  22.521  0.00  0.00    +0.000 C 
ATOM     29  C   UNL     1      -1.150  14.509  23.590  0.00  0.00    +0.000 C 
ATOM     30  O   UNL     1      -2.402  15.081  23.190  0.00  0.00    +0.000 OA
ATOM     31  C   UNL     1      -3.367  14.064  22.892  0.00  0.00    +0.000 C 
ATOM     32  C   UNL     1      -2.845  13.079  21.828  0.00  0.00    +0.000 C 
ENDBRANCH  26  27
ENDBRANCH  25  26
ENDBRANCH  23  25
ENDBRANCH   2  21
TORSDOF 8
ENDMDL
MODEL 7
REMARK VINA RESULT:      -6.8      3.561      6.778
REMARK  Name = 
REMARK  9 active torsions:
REMARK  status: ('A' for Active; 'I' for Inactive)
REMARK    1  A    between atoms: C_1  and  S_2
REMARK    2  A    between atoms: S_2  and  C_3
REMARK    3  A    between atoms: C_6  and  C_7
REMARK    4  A    between atoms: C_8  and  N_9
REMARK    5  A    between atoms: C_8  and  C_18
REMARK    6  A    between atoms: C_10  and  C_12
REMARK    7  A    between atoms: N_20  and  C_21
REMARK    8  A    between atoms: C_21  and  C_22
REMARK    9  A    between atoms: C_22  and  N_23
REMARK                            x       y       z     vdW  Elec       q    Type
REMARK                         _______ _______ _______ _____ _____    ______ ____
ROOT
ATOM      1  C   UNL     1       2.090  11.197  18.054  0.00  0.00    +0.000 C 
ATOM      2  C   UNL     1       1.609  10.051  18.588  0.00  0.00    +0.000 C 
ENDROOT
BRANCH   1   6
ATOM      3  C   UNL     1       1.044  15.219  19.098  0.00  0.00    +0.000 A 
ATOM      4  C   UNL     1       2.376  14.794  19.115  0.00  0.00    +0.000 A 
ATOM      5  C   UNL     1       2.710  13.483  18.756  0.00  0.00    +0.000 A 
ATOM      6  C   UNL     1       1.711  12.579  18.387  0.00  0.00    +0.000 A 
ATOM      7  C   UNL     1       0.382  13.007  18.340  0.00  0.00    +0.000 A 
ATOM      8  C   UNL     1       0.048  14.323  18.703  0.00  0.00    +0.000 A 
BRANCH   3  10
ATOM      9  C   UNL     1      -1.095  16.968  19.292  0.00  0.00    +0.000 C 
ATOM     10  S   UNL     1       0.671  16.866  19.676  0.00  0.00    +0.000 S 
ENDBRANCH   3  10
ENDBRANCH   1   6
BRANCH   2  11
ATOM     11  N   UNL     1       2.083   8.798  18.229  0.00  0.00    +0.000 N 
ATOM     12  C   UNL     1       2.294   7.702  19.060  0.00  0.00    +0.000 C 
ATOM     13  O   UNL     1       2.044   7.644  20.259  0.00  0.00    +0.000 OA
ATOM     14  H   UNL     1       2.194   8.649  17.236  0.00  0.00    +0.000 HD
BRANCH  12  15
ATOM     15  C   UNL     1       2.771   6.475  18.365  0.00  0.00    +0.000 A 
ATOM     16  C   UNL     1       4.009   6.441  17.710  0.00  0.00    +0.000 A 
ATOM     17  C   UNL     1       4.407   5.283  17.036  0.00  0.00    +0.000 A 
ATOM     18  C   UNL     1       3.580   4.161  17.021  0.00  0.00    +0.000 A 
ATOM     19  C   UNL     1       2.356   4.183  17.689  0.00  0.00    +0.000 A 
ATOM     20  C   UNL     1       1.953   5.336  18.367  0.00  0.00    +0.000 A 
ENDBRANCH  12  15
ENDBRANCH   2  11
BRANCH   2  21
ATOM     21  C   UNL     1       0.477  10.072  19.612  0.00  0.00    +0.000 C 
ATOM     22  O   UNL     1      -0.696   9.855  19.336  0.00  0.00    +0.000 OA
ATOM     23  N   UNL     1       0.871  10.388  20.909  0.00  0.00    +0.000 N 
ATOM     24  H   UNL     1       1.774  10.813  21.056  0.00  0.00    +0.000 HD
BRANCH  23  25
ATOM     25  C   UNL     1      -0.170  10.627  21.903  0.00  0.00    +0.000 C 
BRANCH  25  26
ATOM     26  C   UNL     1      -0.594  12.104  22.017  0.00  0.00    +0.000 C 
BRANCH  26  27
ATOM     27  N   UNL     1      -1.277  12.442  23.281  0.00  0.00    +0.000 NA
ATOM     28  C   UNL     1      -2.685  11.986  23.344  0.00  0.00    +0.000 C 
ATOM     29  C   UNL     1      -3.629  12.772  22.419  0.00  0.00    +0.000 C 
ATOM     30  O   UNL     1      -3.585  14.176  22.702  0.00  0.00    +0.000 OA
ATOM     31  C   UNL     1      -2.247  14.683  22.612  0.00  0.00    +0.000 C 
ATOM     32  C   UNL     1      -1.281  13.905  23.526  0.00  0.00    +0.000 C 
ENDBRANCH  26  27
ENDBRANCH  25  26
ENDBRANCH  23  25
ENDBRANCH   2  21
TORSDOF 8
ENDMDL
MODEL 8
REMARK VINA RESULT:      -6.8      3.525      7.224
REMARK  Name = 
REMARK  9 active torsions:
REMARK  status: ('A' for Active; 'I' for Inactive)
REMARK    1  A    between atoms: C_1  and  S_2
REMARK    2  A    between atoms: S_2  and  C_3
REMARK    3  A    between atoms: C_6  and  C_7
REMARK    4  A    between atoms: C_8  and  N_9
REMARK    5  A    between atoms: C_8  and  C_18
REMARK    6  A    between atoms: C_10  and  C_12
REMARK    7  A    between atoms: N_20  and  C_21
REMARK    8  A    between atoms: C_21  and  C_22
REMARK    9  A    between atoms: C_22  and  N_23
REMARK                            x       y       z     vdW  Elec       q    Type
REMARK                         _______ _______ _______ _____ _____    ______ ____
ROOT
ATOM      1  C   UNL     1       1.011   9.674  19.176  0.00  0.00    +0.000 C 
ATOM      2  C   UNL     1       1.090   8.994  20.342  0.00  0.00    +0.000 C 
ENDROOT
BRANCH   1   6
ATOM      3  C   UNL     1       0.232  13.859  18.688  0.00  0.00    +0.000 A 
ATOM      4  C   UNL     1       1.486  13.404  19.105  0.00  0.00    +0.000 A 
ATOM      5  C   UNL     1       1.738  12.035  19.245  0.00  0.00    +0.000 A 
ATOM      6  C   UNL     1       0.729  11.105  18.980  0.00  0.00    +0.000 A 
ATOM      7  C   UNL     1      -0.517  11.552  18.535  0.00  0.00    +0.000 A 
ATOM      8  C   UNL     1      -0.768  12.928  18.398  0.00  0.00    +0.000 A 
BRANCH   3  10
ATOM      9  C   UNL     1       1.499  16.240  19.318  0.00  0.00    +0.000 C 
ATOM     10  S   UNL     1      -0.060  15.620  18.639  0.00  0.00    +0.000 S 
ENDBRANCH   3  10
ENDBRANCH   1   6
BRANCH   2  11
ATOM     11  N   UNL     1       1.417   7.647  20.406  0.00  0.00    +0.000 N 
ATOM     12  C   UNL     1       2.275   6.943  19.569  0.00  0.00    +0.000 C 
ATOM     13  O   UNL     1       2.937   7.413  18.651  0.00  0.00    +0.000 OA
ATOM     14  H   UNL     1       1.058   7.156  21.213  0.00  0.00    +0.000 HD
BRANCH  12  15
ATOM     15  C   UNL     1       2.456   5.509  19.925  0.00  0.00    +0.000 A 
ATOM     16  C   UNL     1       1.530   4.834  20.732  0.00  0.00    +0.000 A 
ATOM     17  C   UNL     1       1.752   3.498  21.076  0.00  0.00    +0.000 A 
ATOM     18  C   UNL     1       2.885   2.833  20.612  0.00  0.00    +0.000 A 
ATOM     19  C   UNL     1       3.799   3.493  19.791  0.00  0.00    +0.000 A 
ATOM     20  C   UNL     1       3.582   4.828  19.441  0.00  0.00    +0.000 A 
ENDBRANCH  12  15
ENDBRANCH   2  11
BRANCH   2  21
ATOM     21  C   UNL     1       0.789   9.675  21.675  0.00  0.00    +0.000 C 
ATOM     22  O   UNL     1       1.604   9.789  22.582  0.00  0.00    +0.000 OA
ATOM     23  N   UNL     1      -0.514  10.147  21.806  0.00  0.00    +0.000 N 
ATOM     24  H   UNL     1      -1.222   9.814  21.169  0.00  0.00    +0.000 HD
BRANCH  23  25
ATOM     25  C   UNL     1      -0.941  10.627  23.116  0.00  0.00    +0.000 C 
BRANCH  25  26
ATOM     26  C   UNL     1      -1.975  11.767  23.054  0.00  0.00    +0.000 C 
BRANCH  26  27
ATOM     27  N   UNL     1      -1.408  13.112  23.279  0.00  0.00    +0.000 NA
ATOM     28  C   UNL     1      -2.252  13.985  24.127  0.00  0.00    +0.000 C 
ATOM     29  C   UNL     1      -3.544  14.453  23.436  0.00  0.00    +0.000 C 
ATOM     30  O   UNL     1      -3.260  15.135  22.209  0.00  0.00    +0.000 OA
ATOM     31  C   UNL     1      -2.479  14.317  21.327  0.00  0.00    +0.000 C 
ATOM     32  C   UNL     1      -1.183  13.831  22.001  0.00  0.00    +0.000 C 
ENDBRANCH  26  27
ENDBRANCH  25  26
ENDBRANCH  23  25
ENDBRANCH   2  21
TORSDOF 8
ENDMDL
MODEL 9
REMARK VINA RESULT:      -6.7      3.392      6.603
REMARK  Name = 
REMARK  9 active torsions:
REMARK  status: ('A' for Active; 'I' for Inactive)
REMARK    1  A    between atoms: C_1  and  S_2
REMARK    2  A    between atoms: S_2  and  C_3
REMARK    3  A    between atoms: C_6  and  C_7
REMARK    4  A    between atoms: C_8  and  N_9
REMARK    5  A    between atoms: C_8  and  C_18
REMARK    6  A    between atoms: C_10  and  C_12
REMARK    7  A    between atoms: N_20  and  C_21
REMARK    8  A    between atoms: C_21  and  C_22
REMARK    9  A    between atoms: C_22  and  N_23
REMARK                            x       y       z     vdW  Elec       q    Type
REMARK                         _______ _______ _______ _____ _____    ______ ____
ROOT
ATOM      1  C   UNL     1       1.915  11.235  18.378  0.00  0.00    +0.000 C 
ATOM      2  C   UNL     1       1.412  10.031  18.732  0.00  0.00    +0.000 C 
ENDROOT
BRANCH   1   6
ATOM      3  C   UNL     1       0.583  15.093  19.684  0.00  0.00    +0.000 A 
ATOM      4  C   UNL     1       1.766  14.534  20.177  0.00  0.00    +0.000 A 
ATOM      5  C   UNL     1       2.203  13.282  19.732  0.00  0.00    +0.000 A 
ATOM      6  C   UNL     1       1.451  12.568  18.796  0.00  0.00    +0.000 A 
ATOM      7  C   UNL     1       0.284  13.133  18.278  0.00  0.00    +0.000 A 
ATOM      8  C   UNL     1      -0.154  14.391  18.728  0.00  0.00    +0.000 A 
BRANCH   3  10
ATOM      9  C   UNL     1       1.424  17.064  21.439  0.00  0.00    +0.000 C 
ATOM     10  S   UNL     1       0.022  16.640  20.375  0.00  0.00    +0.000 S 
ENDBRANCH   3  10
ENDBRANCH   1   6
BRANCH   2  11
ATOM     11  N   UNL     1       1.969   8.831  18.313  0.00  0.00    +0.000 N 
ATOM     12  C   UNL     1       2.301   7.732  19.098  0.00  0.00    +0.000 C 
ATOM     13  O   UNL     1       2.107   7.619  20.303  0.00  0.00    +0.000 OA
ATOM     14  H   UNL     1       2.049   8.721  17.312  0.00  0.00    +0.000 HD
BRANCH  12  15
ATOM     15  C   UNL     1       2.844   6.569  18.345  0.00  0.00    +0.000 A 
ATOM     16  C   UNL     1       4.052   6.654  17.640  0.00  0.00    +0.000 A 
ATOM     17  C   UNL     1       4.512   5.554  16.913  0.00  0.00    +0.000 A 
ATOM     18  C   UNL     1       3.777   4.369  16.894  0.00  0.00    +0.000 A 
ATOM     19  C   UNL     1       2.586   4.271  17.611  0.00  0.00    +0.000 A 
ATOM     20  C   UNL     1       2.121   5.367  18.342  0.00  0.00    +0.000 A 
ENDBRANCH  12  15
ENDBRANCH   2  11
BRANCH   2  21
ATOM     21  C   UNL     1       0.161   9.922  19.602  0.00  0.00    +0.000 C 
ATOM     22  O   UNL     1      -0.980   9.928  19.159  0.00  0.00    +0.000 OA
ATOM     23  N   UNL     1       0.410   9.841  20.969  0.00  0.00    +0.000 N 
ATOM     24  H   UNL     1       1.320  10.100  21.318  0.00  0.00    +0.000 HD
BRANCH  23  25
ATOM     25  C   UNL     1      -0.727   9.938  21.879  0.00  0.00    +0.000 C 
BRANCH  25  26
ATOM     26  C   UNL     1      -0.734  11.222  22.730  0.00  0.00    +0.000 C 
BRANCH  26  27
ATOM     27  N   UNL     1      -0.926  12.463  21.953  0.00  0.00    +0.000 NA
ATOM     28  C   UNL     1      -0.831  13.699  22.764  0.00  0.00    +0.000 C 
ATOM     29  C   UNL     1      -2.020  13.904  23.718  0.00  0.00    +0.000 C 
ATOM     30  O   UNL     1      -3.263  13.912  23.005  0.00  0.00    +0.000 OA
ATOM     31  C   UNL     1      -3.429  12.714  22.235  0.00  0.00    +0.000 C 
ATOM     32  C   UNL     1      -2.245  12.485  21.276  0.00  0.00    +0.000 C 
ENDBRANCH  26  27
ENDBRANCH  25  26
ENDBRANCH  23  25
ENDBRANCH   2  21
TORSDOF 8
ENDMDL
