MODEL 1
REMARK VINA RESULT:      -8.6      0.000      0.000
REMARK  Name = 
REMARK  6 active torsions:
REMARK  status: ('A' for Active; 'I' for Inactive)
REMARK    1  A    between atoms: C_2  and  C_23
REMARK    2  A    between atoms: N_3  and  C_4
REMARK    3  A    between atoms: C_4  and  C_5
REMARK    4  A    between atoms: C_10  and  C_11
REMARK    5  A    between atoms: C_11  and  N_12
REMARK    6  A    between atoms: C_14  and  C_15
REMARK                            x       y       z     vdW  Elec       q    Type
REMARK                         _______ _______ _______ _____ _____    ______ ____
ROOT
ATOM      1  C   UNL     1       1.158   9.663  19.057  0.00  0.00    +0.000 A 
ATOM      2  C   UNL     1       0.928   9.087  20.312  0.00  0.00    +0.000 A 
ATOM      3  C   UNL     1       1.497   7.851  20.657  0.00  0.00    +0.000 A 
ATOM      4  C   UNL     1       2.322   7.188  19.726  0.00  0.00    +0.000 A 
ATOM      5  C   UNL     1       3.038   5.960  19.737  0.00  0.00    +0.000 A 
ATOM      6  C   UNL     1       3.689   5.823  18.524  0.00  0.00    +0.000 A 
ATOM      7  N   UNL     1       3.374   6.935  17.777  0.00  0.00    +0.000 N 
ATOM      8  C   UNL     1       2.548   7.779  18.486  0.00  0.00    +0.000 A 
ATOM      9  C   UNL     1       1.984   9.009  18.123  0.00  0.00    +0.000 A 
ATOM     10  H   UNL     1       3.724   7.104  16.842  0.00  0.00    +0.000 HD
ENDROOT
BRANCH   1  11
ATOM     11  C   UNL     1       0.521  10.975  18.693  0.00  0.00    +0.000 C 
BRANCH  11  14
ATOM     12  O   UNL     1       0.049  13.106  20.367  0.00  0.00    +0.000 OA
ATOM     13  C   UNL     1      -0.859  12.301  20.190  0.00  0.00    +0.000 C 
ATOM     14  N   UNL     1      -0.726  11.202  19.378  0.00  0.00    +0.000 N 
ATOM     15  H   UNL     1      -1.512  10.568  19.275  0.00  0.00    +0.000 HD
BRANCH  13  16
ATOM     16  C   UNL     1      -2.205  12.447  20.854  0.00  0.00    +0.000 A 
ATOM     17  C   UNL     1      -3.205  12.720  20.017  0.00  0.00    +0.000 A 
ATOM     18  C   UNL     1      -4.554  12.889  20.558  0.00  0.00    +0.000 A 
ATOM     19  O   UNL     1      -5.477  13.122  19.783  0.00  0.00    +0.000 OA
ATOM     20  N   UNL     1      -4.667  12.774  21.932  0.00  0.00    +0.000 N 
ATOM     21  C   UNL     1      -5.915  12.959  22.518  0.00  0.00    +0.000 A 
ATOM     22  C   UNL     1      -6.094  12.875  23.841  0.00  0.00    +0.000 A 
ATOM     23  C   UNL     1      -4.975  12.575  24.693  0.00  0.00    +0.000 A 
ATOM     24  C   UNL     1      -3.755  12.374  24.173  0.00  0.00    +0.000 A 
ATOM     25  C   UNL     1      -3.542  12.483  22.701  0.00  0.00    +0.000 A 
ATOM     26  N   UNL     1      -2.344  12.308  22.218  0.00  0.00    +0.000 NA
ENDBRANCH  13  16
ENDBRANCH  11  14
ENDBRANCH   1  11
BRANCH   6  27
ATOM     27  C   UNL     1       4.562   4.717  18.014  0.00  0.00    +0.000 C 
BRANCH  27  28
ATOM     28  N   UNL     1       4.983   4.899  16.617  0.00  0.00    +0.000 NA
ATOM     29  C   UNL     1       6.441   5.124  16.524  0.00  0.00    +0.000 C 
ATOM     30  C   UNL     1       6.516   4.076  15.392  0.00  0.00    +0.000 C 
ATOM     31  C   UNL     1       5.163   3.579  15.962  0.00  0.00    +0.000 C 
BRANCH  30  32
ATOM     32  C   UNL     1       6.356   4.645  13.959  0.00  0.00    +0.000 C 
ATOM     33  C   UNL     1       7.683   5.077  13.281  0.00  0.00    +0.000 C 
ATOM     34  C   UNL     1       7.115   4.484  11.979  0.00  0.00    +0.000 C 
ATOM     35  C   UNL     1       6.324   3.513  12.886  0.00  0.00    +0.000 C 
ENDBRANCH  30  32
ENDBRANCH  27  28
ENDBRANCH   6  27
TORSDOF 6
ENDMDL
MODEL 2
REMARK VINA RESULT:      -8.4      1.230      1.593
REMARK  Name = 
REMARK  6 active torsions:
REMARK  status: ('A' for Active; 'I' for Inactive)
REMARK    1  A    between atoms: C_2  and  C_23
REMARK    2  A    between atoms: N_3  and  C_4
REMARK    3  A    between atoms: C_4  and  C_5
REMARK    4  A    between atoms: C_10  and  C_11
REMARK    5  A    between atoms: C_11  and  N_12
REMARK    6  A    between atoms: C_14  and  C_15
REMARK                            x       y       z     vdW  Elec       q    Type
REMARK                         _______ _______ _______ _____ _____    ______ ____
ROOT
ATOM      1  C   UNL     1       1.169   9.922  18.901  0.00  0.00    +0.000 A 
ATOM      2  C   UNL     1       0.872   9.364  20.151  0.00  0.00    +0.000 A 
ATOM      3  C   UNL     1       1.399   8.121  20.532  0.00  0.00    +0.000 A 
ATOM      4  C   UNL     1       2.250   7.431  19.645  0.00  0.00    +0.000 A 
ATOM      5  C   UNL     1       2.938   6.188  19.699  0.00  0.00    +0.000 A 
ATOM      6  C   UNL     1       3.638   6.025  18.517  0.00  0.00    +0.000 A 
ATOM      7  N   UNL     1       3.379   7.135  17.746  0.00  0.00    +0.000 N 
ATOM      8  C   UNL     1       2.542   8.004  18.410  0.00  0.00    +0.000 A 
ATOM      9  C   UNL     1       2.020   9.240  18.011  0.00  0.00    +0.000 A 
ATOM     10  H   UNL     1       3.773   7.287  16.826  0.00  0.00    +0.000 HD
ENDROOT
BRANCH   1  11
ATOM     11  C   UNL     1       0.576  11.243  18.498  0.00  0.00    +0.000 C 
BRANCH  11  14
ATOM     12  O   UNL     1      -0.724  13.031  20.135  0.00  0.00    +0.000 OA
ATOM     13  C   UNL     1      -1.404  12.227  19.506  0.00  0.00    +0.000 C 
ATOM     14  N   UNL     1      -0.855  11.291  18.664  0.00  0.00    +0.000 N 
ATOM     15  H   UNL     1      -1.469  10.649  18.175  0.00  0.00    +0.000 HD
BRANCH  13  16
ATOM     16  C   UNL     1      -2.908  12.194  19.603  0.00  0.00    +0.000 A 
ATOM     17  C   UNL     1      -3.518  11.680  18.537  0.00  0.00    +0.000 A 
ATOM     18  C   UNL     1      -4.980  11.607  18.524  0.00  0.00    +0.000 A 
ATOM     19  O   UNL     1      -5.539  11.116  17.549  0.00  0.00    +0.000 OA
ATOM     20  N   UNL     1      -5.614  12.120  19.643  0.00  0.00    +0.000 N 
ATOM     21  C   UNL     1      -7.005  12.116  19.683  0.00  0.00    +0.000 A 
ATOM     22  C   UNL     1      -7.683  12.608  20.725  0.00  0.00    +0.000 A 
ATOM     23  C   UNL     1      -6.967  13.147  21.850  0.00  0.00    +0.000 A 
ATOM     24  C   UNL     1      -5.626  13.159  21.864  0.00  0.00    +0.000 A 
ATOM     25  C   UNL     1      -4.861  12.630  20.698  0.00  0.00    +0.000 A 
ATOM     26  N   UNL     1      -3.558  12.673  20.721  0.00  0.00    +0.000 NA
ENDBRANCH  13  16
ENDBRANCH  11  14
ENDBRANCH   1  11
BRANCH   6  27
ATOM     27  C   UNL     1       4.508   4.895  18.057  0.00  0.00    +0.000 C 
BRANCH  27  28
ATOM     28  N   UNL     1       4.959   5.033  16.663  0.00  0.00    +0.000 NA
ATOM     29  C   UNL     1       6.434   4.980  16.572  0.00  0.00    +0.000 C 
ATOM     30  C   UNL     1       6.312   3.968  15.412  0.00  0.00    +0.000 C 
ATOM     31  C   UNL     1       4.888   3.721  15.973  0.00  0.00    +0.000 C 
BRANCH  30  32
ATOM     32  C   UNL     1       6.265   4.597  13.995  0.00  0.00    +0.000 C 
ATOM     33  C   UNL     1       7.652   4.947  13.395  0.00  0.00    +0.000 C 
ATOM     34  C   UNL     1       7.104   4.444  12.047  0.00  0.00    +0.000 C 
ATOM     35  C   UNL     1       6.200   3.506  12.881  0.00  0.00    +0.000 C 
ENDBRANCH  30  32
ENDBRANCH  27  28
ENDBRANCH   6  27
TORSDOF 6
ENDMDL
MODEL 3
REMARK VINA RESULT:      -8.3      1.135      1.759
REMARK  Name = 
REMARK  6 active torsions:
REMARK  status: ('A' for Active; 'I' for Inactive)
REMARK    1  A    between atoms: C_2  and  C_23
REMARK    2  A    between atoms: N_3  and  C_4
REMARK    3  A    between atoms: C_4  and  C_5
REMARK    4  A    between atoms: C_10  and  C_11
REMARK    5  A    between atoms: C_11  and  N_12
REMARK    6  A    between atoms: C_14  and  C_15
REMARK                            x       y       z     vdW  Elec       q    Type
REMARK                         _______ _______ _______ _____ _____    ______ ____
ROOT
ATOM      1  C   UNL     1       0.892   9.785  18.972  0.00  0.00    +0.000 A 
ATOM      2  C   UNL     1       0.639   9.250  20.241  0.00  0.00    +0.000 A 
ATOM      3  C   UNL     1       1.246   8.055  20.657  0.00  0.00    +0.000 A 
ATOM      4  C   UNL     1       2.132   7.391  19.785  0.00  0.00    +0.000 A 
ATOM      5  C   UNL     1       2.898   6.196  19.872  0.00  0.00    +0.000 A 
ATOM      6  C   UNL     1       3.598   6.039  18.689  0.00  0.00    +0.000 A 
ATOM      7  N   UNL     1       3.266   7.106  17.886  0.00  0.00    +0.000 N 
ATOM      8  C   UNL     1       2.379   7.942  18.530  0.00  0.00    +0.000 A 
ATOM      9  C   UNL     1       1.778   9.130  18.096  0.00  0.00    +0.000 A 
ATOM     10  H   UNL     1       3.643   7.253  16.958  0.00  0.00    +0.000 HD
ENDROOT
BRANCH   1  11
ATOM     11  C   UNL     1       0.215  11.053  18.533  0.00  0.00    +0.000 C 
BRANCH  11  14
ATOM     12  O   UNL     1      -0.324  13.159  20.218  0.00  0.00    +0.000 OA
ATOM     13  C   UNL     1      -1.221  12.351  20.001  0.00  0.00    +0.000 C 
ATOM     14  N   UNL     1      -1.056  11.264  19.179  0.00  0.00    +0.000 N 
ATOM     15  H   UNL     1      -1.834  10.628  19.042  0.00  0.00    +0.000 HD
BRANCH  13  16
ATOM     16  C   UNL     1      -2.588  12.482  20.622  0.00  0.00    +0.000 A 
ATOM     17  C   UNL     1      -2.583  12.586  21.950  0.00  0.00    +0.000 A 
ATOM     18  C   UNL     1      -3.859  12.711  22.655  0.00  0.00    +0.000 A 
ATOM     19  O   UNL     1      -3.851  12.826  23.877  0.00  0.00    +0.000 OA
ATOM     20  N   UNL     1      -4.989  12.680  21.857  0.00  0.00    +0.000 N 
ATOM     21  C   UNL     1      -6.239  12.758  22.465  0.00  0.00    +0.000 A 
ATOM     22  C   UNL     1      -7.373  12.720  21.757  0.00  0.00    +0.000 A 
ATOM     23  C   UNL     1      -7.313  12.609  20.324  0.00  0.00    +0.000 A 
ATOM     24  C   UNL     1      -6.132  12.546  19.692  0.00  0.00    +0.000 A 
ATOM     25  C   UNL     1      -4.863  12.569  20.474  0.00  0.00    +0.000 A 
ATOM     26  N   UNL     1      -3.726  12.482  19.843  0.00  0.00    +0.000 NA
ENDBRANCH  13  16
ENDBRANCH  11  14
ENDBRANCH   1  11
BRANCH   6  27
ATOM     27  C   UNL     1       4.535   4.952  18.257  0.00  0.00    +0.000 C 
BRANCH  27  28
ATOM     28  N   UNL     1       4.960   5.069  16.854  0.00  0.00    +0.000 NA
ATOM     29  C   UNL     1       6.415   4.845  16.718  0.00  0.00    +0.000 C 
ATOM     30  C   UNL     1       6.143   3.882  15.541  0.00  0.00    +0.000 C 
ATOM     31  C   UNL     1       4.715   3.792  16.139  0.00  0.00    +0.000 C 
BRANCH  30  32
ATOM     32  C   UNL     1       6.132   4.545  14.140  0.00  0.00    +0.000 C 
ATOM     33  C   UNL     1       7.534   4.915  13.587  0.00  0.00    +0.000 C 
ATOM     34  C   UNL     1       7.025   4.444  12.212  0.00  0.00    +0.000 C 
ATOM     35  C   UNL     1       6.102   3.483  12.997  0.00  0.00    +0.000 C 
ENDBRANCH  30  32
ENDBRANCH  27  28
ENDBRANCH   6  27
TORSDOF 6
ENDMDL
MODEL 4
REMARK VINA RESULT:      -8.2      1.739      2.167
REMARK  Name = 
REMARK  6 active torsions:
REMARK  status: ('A' for Active; 'I' for Inactive)
REMARK    1  A    between atoms: C_2  and  C_23
REMARK    2  A    between atoms: N_3  and  C_4
REMARK    3  A    between atoms: C_4  and  C_5
REMARK    4  A    between atoms: C_10  and  C_11
REMARK    5  A    between atoms: C_11  and  N_12
REMARK    6  A    between atoms: C_14  and  C_15
REMARK                            x       y       z     vdW  Elec       q    Type
REMARK                         _______ _______ _______ _____ _____    ______ ____
ROOT
ATOM      1  C   UNL     1       0.617  10.582  19.786  0.00  0.00    +0.000 A 
ATOM      2  C   UNL     1       0.407  10.148  21.100  0.00  0.00    +0.000 A 
ATOM      3  C   UNL     1       0.816   8.872  21.516  0.00  0.00    +0.000 A 
ATOM      4  C   UNL     1       1.460   8.020  20.596  0.00  0.00    +0.000 A 
ATOM      5  C   UNL     1       1.988   6.702  20.670  0.00  0.00    +0.000 A 
ATOM      6  C   UNL     1       2.514   6.373  19.433  0.00  0.00    +0.000 A 
ATOM      7  N   UNL     1       2.305   7.458  18.611  0.00  0.00    +0.000 N 
ATOM      8  C   UNL     1       1.669   8.471  19.295  0.00  0.00    +0.000 A 
ATOM      9  C   UNL     1       1.262   9.738  18.862  0.00  0.00    +0.000 A 
ATOM     10  H   UNL     1       2.600   7.497  17.644  0.00  0.00    +0.000 HD
ENDROOT
BRANCH   1  11
ATOM     11  C   UNL     1       0.151  11.942  19.349  0.00  0.00    +0.000 C 
BRANCH  11  14
ATOM     12  O   UNL     1      -1.910  11.295  17.646  0.00  0.00    +0.000 OA
ATOM     13  C   UNL     1      -2.193  11.814  18.721  0.00  0.00    +0.000 C 
ATOM     14  N   UNL     1      -1.241  12.179  19.640  0.00  0.00    +0.000 N 
ATOM     15  H   UNL     1      -1.536  12.609  20.510  0.00  0.00    +0.000 HD
BRANCH  13  16
ATOM     16  C   UNL     1      -3.616  12.101  19.126  0.00  0.00    +0.000 A 
ATOM     17  C   UNL     1      -4.534  11.669  18.261  0.00  0.00    +0.000 A 
ATOM     18  C   UNL     1      -5.948  11.902  18.555  0.00  0.00    +0.000 A 
ATOM     19  O   UNL     1      -6.791  11.488  17.766  0.00  0.00    +0.000 OA
ATOM     20  N   UNL     1      -6.210  12.593  19.725  0.00  0.00    +0.000 N 
ATOM     21  C   UNL     1      -7.533  12.881  20.048  0.00  0.00    +0.000 A 
ATOM     22  C   UNL     1      -7.858  13.557  21.156  0.00  0.00    +0.000 A 
ATOM     23  C   UNL     1      -6.823  13.994  22.053  0.00  0.00    +0.000 A 
ATOM     24  C   UNL     1      -5.535  13.727  21.791  0.00  0.00    +0.000 A 
ATOM     25  C   UNL     1      -5.161  12.990  20.550  0.00  0.00    +0.000 A 
ATOM     26  N   UNL     1      -3.901  12.762  20.302  0.00  0.00    +0.000 NA
ENDBRANCH  13  16
ENDBRANCH  11  14
ENDBRANCH   1  11
BRANCH   6  27
ATOM     27  C   UNL     1       3.174   5.111  18.968  0.00  0.00    +0.000 C 
BRANCH  27  28
ATOM     28  N   UNL     1       3.925   5.271  17.713  0.00  0.00    +0.000 NA
ATOM     29  C   UNL     1       5.370   5.042  17.925  0.00  0.00    +0.000 C 
ATOM     30  C   UNL     1       5.391   4.120  16.686  0.00  0.00    +0.000 C 
ATOM     31  C   UNL     1       3.862   4.019  16.918  0.00  0.00    +0.000 C 
BRANCH  30  32
ATOM     32  C   UNL     1       5.718   4.829  15.346  0.00  0.00    +0.000 C 
ATOM     33  C   UNL     1       7.231   4.926  15.016  0.00  0.00    +0.000 C 
ATOM     34  C   UNL     1       6.848   4.626  13.556  0.00  0.00    +0.000 C 
ATOM     35  C   UNL     1       5.648   3.843  14.138  0.00  0.00    +0.000 C 
ENDBRANCH  30  32
ENDBRANCH  27  28
ENDBRANCH   6  27
TORSDOF 6
ENDMDL
MODEL 5
REMARK VINA RESULT:      -8.2      3.054     12.655
REMARK  Name = 
REMARK  6 active torsions:
REMARK  status: ('A' for Active; 'I' for Inactive)
REMARK    1  A    between atoms: C_2  and  C_23
REMARK    2  A    between atoms: N_3  and  C_4
REMARK    3  A    between atoms: C_4  and  C_5
REMARK    4  A    between atoms: C_10  and  C_11
REMARK    5  A    between atoms: C_11  and  N_12
REMARK    6  A    between atoms: C_14  and  C_15
REMARK                            x       y       z     vdW  Elec       q    Type
REMARK                         _______ _______ _______ _____ _____    ______ ____
ROOT
ATOM      1  C   UNL     1       2.003   7.515  19.848  0.00  0.00    +0.000 A 
ATOM      2  C   UNL     1       1.949   8.369  18.739  0.00  0.00    +0.000 A 
ATOM      3  C   UNL     1       1.323   9.622  18.820  0.00  0.00    +0.000 A 
ATOM      4  C   UNL     1       0.750  10.029  20.042  0.00  0.00    +0.000 A 
ATOM      5  C   UNL     1       0.055  11.193  20.471  0.00  0.00    +0.000 A 
ATOM      6  C   UNL     1      -0.278  11.036  21.804  0.00  0.00    +0.000 A 
ATOM      7  N   UNL     1       0.190   9.800  22.189  0.00  0.00    +0.000 N 
ATOM      8  C   UNL     1       0.820   9.171  21.137  0.00  0.00    +0.000 A 
ATOM      9  C   UNL     1       1.436   7.915  21.072  0.00  0.00    +0.000 A 
ATOM     10  H   UNL     1       0.094   9.426  23.124  0.00  0.00    +0.000 HD
ENDROOT
BRANCH   1  11
ATOM     11  C   UNL     1       2.655   6.165  19.737  0.00  0.00    +0.000 C 
BRANCH  11  14
ATOM     12  O   UNL     1       3.021   3.945  18.155  0.00  0.00    +0.000 OA
ATOM     13  C   UNL     1       3.712   4.933  17.929  0.00  0.00    +0.000 C 
ATOM     14  N   UNL     1       3.611   6.090  18.661  0.00  0.00    +0.000 N 
ATOM     15  H   UNL     1       4.214   6.873  18.430  0.00  0.00    +0.000 HD
BRANCH  13  16
ATOM     16  C   UNL     1       4.738   4.962  16.825  0.00  0.00    +0.000 A 
ATOM     17  C   UNL     1       5.771   5.772  17.054  0.00  0.00    +0.000 A 
ATOM     18  C   UNL     1       6.822   5.880  16.042  0.00  0.00    +0.000 A 
ATOM     19  O   UNL     1       7.782   6.612  16.262  0.00  0.00    +0.000 OA
ATOM     20  N   UNL     1       6.628   5.131  14.895  0.00  0.00    +0.000 N 
ATOM     21  C   UNL     1       7.571   5.215  13.874  0.00  0.00    +0.000 A 
ATOM     22  C   UNL     1       7.440   4.530  12.733  0.00  0.00    +0.000 A 
ATOM     23  C   UNL     1       6.303   3.669  12.546  0.00  0.00    +0.000 A 
ATOM     24  C   UNL     1       5.375   3.544  13.506  0.00  0.00    +0.000 A 
ATOM     25  C   UNL     1       5.503   4.318  14.775  0.00  0.00    +0.000 A 
ATOM     26  N   UNL     1       4.578   4.202  15.686  0.00  0.00    +0.000 NA
ENDBRANCH  13  16
ENDBRANCH  11  14
ENDBRANCH   1  11
BRANCH   6  27
ATOM     27  C   UNL     1      -1.020  11.952  22.730  0.00  0.00    +0.000 C 
BRANCH  27  28
ATOM     28  N   UNL     1      -2.473  11.966  22.500  0.00  0.00    +0.000 NA
ATOM     29  C   UNL     1      -3.187  12.579  23.640  0.00  0.00    +0.000 C 
ATOM     30  C   UNL     1      -4.001  13.440  22.649  0.00  0.00    +0.000 C 
ATOM     31  C   UNL     1      -2.845  13.133  21.662  0.00  0.00    +0.000 C 
BRANCH  30  32
ATOM     32  C   UNL     1      -5.336  12.808  22.175  0.00  0.00    +0.000 C 
ATOM     33  C   UNL     1      -6.429  12.706  23.272  0.00  0.00    +0.000 C 
ATOM     34  C   UNL     1      -7.443  13.101  22.182  0.00  0.00    +0.000 C 
ATOM     35  C   UNL     1      -6.275  13.867  21.517  0.00  0.00    +0.000 C 
ENDBRANCH  30  32
ENDBRANCH  27  28
ENDBRANCH   6  27
TORSDOF 6
ENDMDL
MODEL 6
REMARK VINA RESULT:      -8.1      2.020      3.153
REMARK  Name = 
REMARK  6 active torsions:
REMARK  status: ('A' for Active; 'I' for Inactive)
REMARK    1  A    between atoms: C_2  and  C_23
REMARK    2  A    between atoms: N_3  and  C_4
REMARK    3  A    between atoms: C_4  and  C_5
REMARK    4  A    between atoms: C_10  and  C_11
REMARK    5  A    between atoms: C_11  and  N_12
REMARK    6  A    between atoms: C_14  and  C_15
REMARK                            x       y       z     vdW  Elec       q    Type
REMARK                         _______ _______ _______ _____ _____    ______ ____
ROOT
ATOM      1  C   UNL     1      -0.227  10.534  21.660  0.00  0.00    +0.000 A 
ATOM      2  C   UNL     1      -0.167  10.952  20.325  0.00  0.00    +0.000 A 
ATOM      3  C   UNL     1       0.516  10.196  19.360  0.00  0.00    +0.000 A 
ATOM      4  C   UNL     1       1.140   8.991  19.742  0.00  0.00    +0.000 A 
ATOM      5  C   UNL     1       1.897   8.006  19.051  0.00  0.00    +0.000 A 
ATOM      6  C   UNL     1       2.261   7.023  19.954  0.00  0.00    +0.000 A 
ATOM      7  N   UNL     1       1.749   7.396  21.175  0.00  0.00    +0.000 N 
ATOM      8  C   UNL     1       1.063   8.586  21.072  0.00  0.00    +0.000 A 
ATOM      9  C   UNL     1       0.391   9.331  22.049  0.00  0.00    +0.000 A 
ATOM     10  H   UNL     1       1.856   6.851  22.022  0.00  0.00    +0.000 HD
ENDROOT
BRANCH   1  11
ATOM     11  C   UNL     1      -0.941  11.368  22.687  0.00  0.00    +0.000 C 
BRANCH  11  14
ATOM     12  O   UNL     1      -3.308  11.806  24.019  0.00  0.00    +0.000 OA
ATOM     13  C   UNL     1      -3.189  12.269  22.889  0.00  0.00    +0.000 C 
ATOM     14  N   UNL     1      -2.051  12.105  22.138  0.00  0.00    +0.000 N 
ATOM     15  H   UNL     1      -2.014  12.508  21.207  0.00  0.00    +0.000 HD
BRANCH  13  16
ATOM     16  C   UNL     1      -4.286  13.059  22.224  0.00  0.00    +0.000 A 
ATOM     17  C   UNL     1      -4.467  12.775  20.935  0.00  0.00    +0.000 A 
ATOM     18  C   UNL     1      -5.503  13.491  20.191  0.00  0.00    +0.000 A 
ATOM     19  O   UNL     1      -5.680  13.215  19.009  0.00  0.00    +0.000 OA
ATOM     20  N   UNL     1      -6.203  14.445  20.908  0.00  0.00    +0.000 N 
ATOM     21  C   UNL     1      -7.180  15.190  20.253  0.00  0.00    +0.000 A 
ATOM     22  C   UNL     1      -7.885  16.138  20.881  0.00  0.00    +0.000 A 
ATOM     23  C   UNL     1      -7.646  16.397  22.275  0.00  0.00    +0.000 A 
ATOM     24  C   UNL     1      -6.726  15.695  22.953  0.00  0.00    +0.000 A 
ATOM     25  C   UNL     1      -5.922  14.649  22.257  0.00  0.00    +0.000 A 
ATOM     26  N   UNL     1      -5.015  13.994  22.928  0.00  0.00    +0.000 NA
ENDBRANCH  13  16
ENDBRANCH  11  14
ENDBRANCH   1  11
BRANCH   6  27
ATOM     27  C   UNL     1       3.068   5.776  19.752  0.00  0.00    +0.000 C 
BRANCH  27  28
ATOM     28  N   UNL     1       3.961   5.840  18.585  0.00  0.00    +0.000 NA
ATOM     29  C   UNL     1       5.180   5.031  18.803  0.00  0.00    +0.000 C 
ATOM     30  C   UNL     1       4.993   4.400  17.405  0.00  0.00    +0.000 C 
ATOM     31  C   UNL     1       3.523   4.868  17.553  0.00  0.00    +0.000 C 
BRANCH  30  32
ATOM     32  C   UNL     1       5.713   5.141  16.249  0.00  0.00    +0.000 C 
ATOM     33  C   UNL     1       7.215   4.785  16.086  0.00  0.00    +0.000 C 
ATOM     34  C   UNL     1       6.976   4.830  14.566  0.00  0.00    +0.000 C 
ATOM     35  C   UNL     1       5.522   4.408  14.885  0.00  0.00    +0.000 C 
ENDBRANCH  30  32
ENDBRANCH  27  28
ENDBRANCH   6  27
TORSDOF 6
ENDMDL
MODEL 7
REMARK VINA RESULT:      -8.1      1.598      2.494
REMARK  Name = 
REMARK  6 active torsions:
REMARK  status: ('A' for Active; 'I' for Inactive)
REMARK    1  A    between atoms: C_2  and  C_23
REMARK    2  A    between atoms: N_3  and  C_4
REMARK    3  A    between atoms: C_4  and  C_5
REMARK    4  A    between atoms: C_10  and  C_11
REMARK    5  A    between atoms: C_11  and  N_12
REMARK    6  A    between atoms: C_14  and  C_15
REMARK                            x       y       z     vdW  Elec       q    Type
REMARK                         _______ _______ _______ _____ _____    ______ ____
ROOT
ATOM      1  C   UNL     1       0.729   9.537  21.085  0.00  0.00    +0.000 A 
ATOM      2  C   UNL     1       0.701  10.128  19.816  0.00  0.00    +0.000 A 
ATOM      3  C   UNL     1       1.305   9.505  18.713  0.00  0.00    +0.000 A 
ATOM      4  C   UNL     1       1.939   8.258  18.888  0.00  0.00    +0.000 A 
ATOM      5  C   UNL     1       2.635   7.371  18.021  0.00  0.00    +0.000 A 
ATOM      6  C   UNL     1       3.047   6.275  18.758  0.00  0.00    +0.000 A 
ATOM      7  N   UNL     1       2.627   6.484  20.051  0.00  0.00    +0.000 N 
ATOM      8  C   UNL     1       1.950   7.680  20.155  0.00  0.00    +0.000 A 
ATOM      9  C   UNL     1       1.358   8.291  21.267  0.00  0.00    +0.000 A 
ATOM     10  H   UNL     1       2.786   5.832  20.808  0.00  0.00    +0.000 HD
ENDROOT
BRANCH   1  11
ATOM     11  C   UNL     1       0.099  10.229  22.261  0.00  0.00    +0.000 C 
BRANCH  11  14
ATOM     12  O   UNL     1      -0.632  12.701  23.220  0.00  0.00    +0.000 OA
ATOM     13  C   UNL     1      -1.404  12.128  22.459  0.00  0.00    +0.000 C 
ATOM     14  N   UNL     1      -1.137  10.891  21.926  0.00  0.00    +0.000 N 
ATOM     15  H   UNL     1      -1.818  10.465  21.306  0.00  0.00    +0.000 HD
BRANCH  13  16
ATOM     16  C   UNL     1      -2.719  12.734  22.041  0.00  0.00    +0.000 A 
ATOM     17  C   UNL     1      -3.243  13.580  22.927  0.00  0.00    +0.000 A 
ATOM     18  C   UNL     1      -4.524  14.220  22.623  0.00  0.00    +0.000 A 
ATOM     19  O   UNL     1      -4.995  15.013  23.432  0.00  0.00    +0.000 OA
ATOM     20  N   UNL     1      -5.104  13.857  21.421  0.00  0.00    +0.000 N 
ATOM     21  C   UNL     1      -6.341  14.399  21.084  0.00  0.00    +0.000 A 
ATOM     22  C   UNL     1      -6.965  14.082  19.945  0.00  0.00    +0.000 A 
ATOM     23  C   UNL     1      -6.348  13.164  19.027  0.00  0.00    +0.000 A 
ATOM     24  C   UNL     1      -5.150  12.626  19.300  0.00  0.00    +0.000 A 
ATOM     25  C   UNL     1      -4.454  12.960  20.576  0.00  0.00    +0.000 A 
ATOM     26  N   UNL     1      -3.301  12.408  20.834  0.00  0.00    +0.000 NA
ENDBRANCH  13  16
ENDBRANCH  11  14
ENDBRANCH   1  11
BRANCH   6  27
ATOM     27  C   UNL     1       3.822   5.064  18.336  0.00  0.00    +0.000 C 
BRANCH  27  28
ATOM     28  N   UNL     1       4.385   5.171  16.981  0.00  0.00    +0.000 NA
ATOM     29  C   UNL     1       5.846   5.393  17.026  0.00  0.00    +0.000 C 
ATOM     30  C   UNL     1       6.033   4.285  15.966  0.00  0.00    +0.000 C 
ATOM     31  C   UNL     1       4.626   3.817  16.421  0.00  0.00    +0.000 C 
BRANCH  30  32
ATOM     32  C   UNL     1       6.022   4.775  14.495  0.00  0.00    +0.000 C 
ATOM     33  C   UNL     1       7.426   5.038  13.889  0.00  0.00    +0.000 C 
ATOM     34  C   UNL     1       6.888   4.419  12.586  0.00  0.00    +0.000 C 
ATOM     35  C   UNL     1       5.949   3.585  13.489  0.00  0.00    +0.000 C 
ENDBRANCH  30  32
ENDBRANCH  27  28
ENDBRANCH   6  27
TORSDOF 6
ENDMDL
MODEL 8
REMARK VINA RESULT:      -8.1      2.887     12.481
REMARK  Name = 
REMARK  6 active torsions:
REMARK  status: ('A' for Active; 'I' for Inactive)
REMARK    1  A    between atoms: C_2  and  C_23
REMARK    2  A    between atoms: N_3  and  C_4
REMARK    3  A    between atoms: C_4  and  C_5
REMARK    4  A    between atoms: C_10  and  C_11
REMARK    5  A    between atoms: C_11  and  N_12
REMARK    6  A    between atoms: C_14  and  C_15
REMARK                            x       y       z     vdW  Elec       q    Type
REMARK                         _______ _______ _______ _____ _____    ______ ____
ROOT
ATOM      1  C   UNL     1       0.787   9.280  20.475  0.00  0.00    +0.000 A 
ATOM      2  C   UNL     1       0.628   9.466  19.097  0.00  0.00    +0.000 A 
ATOM      3  C   UNL     1      -0.038  10.592  18.590  0.00  0.00    +0.000 A 
ATOM      4  C   UNL     1      -0.542  11.556  19.486  0.00  0.00    +0.000 A 
ATOM      5  C   UNL     1      -1.250  12.780  19.329  0.00  0.00    +0.000 A 
ATOM      6  C   UNL     1      -1.487  13.311  20.584  0.00  0.00    +0.000 A 
ATOM      7  N   UNL     1      -0.949  12.432  21.496  0.00  0.00    +0.000 N 
ATOM      8  C   UNL     1      -0.368  11.360  20.854  0.00  0.00    +0.000 A 
ATOM      9  C   UNL     1       0.288  10.239  21.377  0.00  0.00    +0.000 A 
ATOM     10  H   UNL     1      -0.969  12.576  22.498  0.00  0.00    +0.000 HD
ENDROOT
BRANCH   1  11
ATOM     11  C   UNL     1       1.480   8.055  21.003  0.00  0.00    +0.000 C 
BRANCH  11  14
ATOM     12  O   UNL     1       1.633   5.315  20.822  0.00  0.00    +0.000 OA
ATOM     13  C   UNL     1       2.238   5.981  19.988  0.00  0.00    +0.000 C 
ATOM     14  N   UNL     1       2.229   7.354  19.991  0.00  0.00    +0.000 N 
ATOM     15  H   UNL     1       2.753   7.851  19.278  0.00  0.00    +0.000 HD
BRANCH  13  16
ATOM     16  C   UNL     1       3.047   5.349  18.885  0.00  0.00    +0.000 A 
ATOM     17  C   UNL     1       3.062   4.016  18.907  0.00  0.00    +0.000 A 
ATOM     18  C   UNL     1       3.824   3.300  17.884  0.00  0.00    +0.000 A 
ATOM     19  O   UNL     1       3.822   2.074  17.894  0.00  0.00    +0.000 OA
ATOM     20  N   UNL     1       4.502   4.096  16.977  0.00  0.00    +0.000 N 
ATOM     21  C   UNL     1       5.277   3.481  15.997  0.00  0.00    +0.000 A 
ATOM     22  C   UNL     1       5.969   4.188  15.097  0.00  0.00    +0.000 A 
ATOM     23  C   UNL     1       5.910   5.625  15.123  0.00  0.00    +0.000 A 
ATOM     24  C   UNL     1       5.166   6.262  16.038  0.00  0.00    +0.000 A 
ATOM     25  C   UNL     1       4.405   5.483  17.057  0.00  0.00    +0.000 A 
ATOM     26  N   UNL     1       3.706   6.122  17.954  0.00  0.00    +0.000 NA
ENDBRANCH  13  16
ENDBRANCH  11  14
ENDBRANCH   1  11
BRANCH   6  27
ATOM     27  C   UNL     1      -2.199  14.568  20.983  0.00  0.00    +0.000 C 
BRANCH  27  28
ATOM     28  N   UNL     1      -3.282  14.345  21.952  0.00  0.00    +0.000 NA
ATOM     29  C   UNL     1      -4.204  15.500  21.997  0.00  0.00    +0.000 C 
ATOM     30  C   UNL     1      -5.402  14.530  21.903  0.00  0.00    +0.000 C 
ATOM     31  C   UNL     1      -4.360  13.533  21.335  0.00  0.00    +0.000 C 
BRANCH  30  32
ATOM     32  C   UNL     1      -5.967  14.051  23.265  0.00  0.00    +0.000 C 
ATOM     33  C   UNL     1      -7.053  14.974  23.878  0.00  0.00    +0.000 C 
ATOM     34  C   UNL     1      -7.782  13.689  24.312  0.00  0.00    +0.000 C 
ATOM     35  C   UNL     1      -7.125  13.022  23.081  0.00  0.00    +0.000 C 
ENDBRANCH  30  32
ENDBRANCH  27  28
ENDBRANCH   6  27
TORSDOF 6
ENDMDL
MODEL 9
REMARK VINA RESULT:      -8.0      2.202      3.371
REMARK  Name = 
REMARK  6 active torsions:
REMARK  status: ('A' for Active; 'I' for Inactive)
REMARK    1  A    between atoms: C_2  and  C_23
REMARK    2  A    between atoms: N_3  and  C_4
REMARK    3  A    between atoms: C_4  and  C_5
REMARK    4  A    between atoms: C_10  and  C_11
REMARK    5  A    between atoms: C_11  and  N_12
REMARK    6  A    between atoms: C_14  and  C_15
REMARK                            x       y       z     vdW  Elec       q    Type
REMARK                         _______ _______ _______ _____ _____    ______ ____
ROOT
ATOM      1  C   UNL     1      -0.241  10.514  21.592  0.00  0.00    +0.000 A 
ATOM      2  C   UNL     1      -0.010  11.042  20.316  0.00  0.00    +0.000 A 
ATOM      3  C   UNL     1       0.739  10.334  19.363  0.00  0.00    +0.000 A 
ATOM      4  C   UNL     1       1.256   9.065  19.697  0.00  0.00    +0.000 A 
ATOM      5  C   UNL     1       2.036   8.101  19.002  0.00  0.00    +0.000 A 
ATOM      6  C   UNL     1       2.246   7.022  19.843  0.00  0.00    +0.000 A 
ATOM      7  N   UNL     1       1.619   7.317  21.032  0.00  0.00    +0.000 N 
ATOM      8  C   UNL     1       1.009   8.551  20.967  0.00  0.00    +0.000 A 
ATOM      9  C   UNL     1       0.269   9.246  21.931  0.00  0.00    +0.000 A 
ATOM     10  H   UNL     1       1.602   6.695  21.830  0.00  0.00    +0.000 HD
ENDROOT
BRANCH   1  11
ATOM     11  C   UNL     1      -1.024  11.296  22.608  0.00  0.00    +0.000 C 
BRANCH  11  14
ATOM     12  O   UNL     1      -3.426  11.913  23.797  0.00  0.00    +0.000 OA
ATOM     13  C   UNL     1      -3.189  12.395  22.695  0.00  0.00    +0.000 C 
ATOM     14  N   UNL     1      -2.022  12.148  22.014  0.00  0.00    +0.000 N 
ATOM     15  H   UNL     1      -1.886  12.572  21.102  0.00  0.00    +0.000 HD
BRANCH  13  16
ATOM     16  C   UNL     1      -4.162  13.302  21.987  0.00  0.00    +0.000 A 
ATOM     17  C   UNL     1      -5.367  12.769  21.784  0.00  0.00    +0.000 A 
ATOM     18  C   UNL     1      -6.387  13.563  21.099  0.00  0.00    +0.000 A 
ATOM     19  O   UNL     1      -7.500  13.077  20.930  0.00  0.00    +0.000 OA
ATOM     20  N   UNL     1      -5.987  14.822  20.687  0.00  0.00    +0.000 N 
ATOM     21  C   UNL     1      -6.896  15.619  19.996  0.00  0.00    +0.000 A 
ATOM     22  C   UNL     1      -6.573  16.840  19.556  0.00  0.00    +0.000 A 
ATOM     23  C   UNL     1      -5.257  17.362  19.808  0.00  0.00    +0.000 A 
ATOM     24  C   UNL     1      -4.352  16.638  20.482  0.00  0.00    +0.000 A 
ATOM     25  C   UNL     1      -4.696  15.268  20.960  0.00  0.00    +0.000 A 
ATOM     26  N   UNL     1      -3.794  14.571  21.593  0.00  0.00    +0.000 NA
ENDBRANCH  13  16
ENDBRANCH  11  14
ENDBRANCH   1  11
BRANCH   6  27
ATOM     27  C   UNL     1       3.007   5.752  19.614  0.00  0.00    +0.000 C 
BRANCH  27  28
ATOM     28  N   UNL     1       3.787   5.754  18.367  0.00  0.00    +0.000 NA
ATOM     29  C   UNL     1       5.180   5.322  18.608  0.00  0.00    +0.000 C 
ATOM     30  C   UNL     1       5.077   4.363  17.402  0.00  0.00    +0.000 C 
ATOM     31  C   UNL     1       3.547   4.497  17.614  0.00  0.00    +0.000 C 
BRANCH  30  32
ATOM     32  C   UNL     1       5.520   4.967  16.044  0.00  0.00    +0.000 C 
ATOM     33  C   UNL     1       7.026   5.327  15.955  0.00  0.00    +0.000 C 
ATOM     34  C   UNL     1       6.983   4.793  14.511  0.00  0.00    +0.000 C 
ATOM     35  C   UNL     1       5.853   3.857  14.999  0.00  0.00    +0.000 C 
ENDBRANCH  30  32
ENDBRANCH  27  28
ENDBRANCH   6  27
TORSDOF 6
ENDMDL
