MODEL 1
REMARK VINA RESULT:      -6.3      0.000      0.000
REMARK  Name = 
REMARK  12 active torsions:
REMARK  status: ('A' for Active; 'I' for Inactive)
REMARK    1  A    between atoms: C_1  and  C_2
REMARK    2  A    between atoms: C_2  and  C_3
REMARK    3  A    between atoms: C_3  and  C_4
REMARK    4  A    between atoms: C_4  and  C_5
REMARK    5  A    between atoms: C_5  and  C_6
REMARK    6  A    between atoms: C_6  and  N_7
REMARK    7  A    between atoms: C_13  and  N_14
REMARK    8  A    between atoms: N_14  and  C_15
REMARK    9  A    between atoms: N_14  and  C_16
REMARK   10  A    between atoms: C_20  and  N_21
REMARK   11  A    between atoms: N_21  and  C_22
REMARK   12  A    between atoms: N_21  and  C_23
REMARK                            x       y       z     vdW  Elec       q    Type
REMARK                         _______ _______ _______ _____ _____    ______ ____
ROOT
ATOM      1  N   UNL     1       3.986   5.887  18.804  0.00  0.00    +0.000 N 
ATOM      2  C   UNL     1       3.777   6.882  17.797  0.00  0.00    +0.000 C 
ATOM      3  O   UNL     1       4.621   7.247  17.000  0.00  0.00    +0.000 OA
ATOM      4  C   UNL     1       2.350   7.397  17.909  0.00  0.00    +0.000 C 
ATOM      5  C   UNL     1       2.175   8.892  17.921  0.00  0.00    +0.000 C 
ATOM      6  C   UNL     1       1.543   9.184  19.252  0.00  0.00    +0.000 C 
ATOM      7  C   UNL     1       0.905  10.303  19.613  0.00  0.00    +0.000 C 
ATOM      8  C   UNL     1       1.620   7.971  20.123  0.00  0.00    +0.000 C 
ATOM      9  O   UNL     1       1.490   7.870  21.321  0.00  0.00    +0.000 OA
ATOM     10  N   UNL     1       2.016   6.915  19.259  0.00  0.00    +0.000 N 
ATOM     11  C   UNL     1       2.856   5.836  19.718  0.00  0.00    +0.000 C 
ENDROOT
BRANCH   7  12
ATOM     12  N   UNL     1       0.690  11.485  18.908  0.00  0.00    +0.000 N 
ATOM     13  C   UNL     1       1.695  12.506  18.597  0.00  0.00    +0.000 C 
ATOM     14  C   UNL     1      -0.659  11.883  18.475  0.00  0.00    +0.000 C 
ENDBRANCH   7  12
BRANCH  11  15
ATOM     15  N   UNL     1       2.160   4.555  19.616  0.00  0.00    +0.000 NA
ATOM     16  C   UNL     1       2.056   3.837  18.339  0.00  0.00    +0.000 C 
ATOM     17  C   UNL     1       1.418   4.032  20.771  0.00  0.00    +0.000 C 
ENDBRANCH  11  15
BRANCH   1  18
ATOM     18  C   UNL     1       5.318   5.362  19.108  0.00  0.00    +0.000 C 
BRANCH  18  19
ATOM     19  C   UNL     1       5.760   4.322  18.079  0.00  0.00    +0.000 C 
BRANCH  19  20
ATOM     20  C   UNL     1       7.127   4.606  17.441  0.00  0.00    +0.000 C 
BRANCH  20  21
ATOM     21  C   UNL     1       7.029   4.959  15.956  0.00  0.00    +0.000 C 
BRANCH  21  23
ATOM     22  C   UNL     1       6.066   3.900  13.893  0.00  0.00    +0.000 C 
ATOM     23  C   UNL     1       5.767   4.394  15.301  0.00  0.00    +0.000 C 
ENDBRANCH  21  23
ENDBRANCH  20  21
ENDBRANCH  19  20
ENDBRANCH  18  19
ENDBRANCH   1  18
TORSDOF 7
ENDMDL
MODEL 2
REMARK VINA RESULT:      -6.3      1.753      2.504
REMARK  Name = 
REMARK  12 active torsions:
REMARK  status: ('A' for Active; 'I' for Inactive)
REMARK    1  A    between atoms: C_1  and  C_2
REMARK    2  A    between atoms: C_2  and  C_3
REMARK    3  A    between atoms: C_3  and  C_4
REMARK    4  A    between atoms: C_4  and  C_5
REMARK    5  A    between atoms: C_5  and  C_6
REMARK    6  A    between atoms: C_6  and  N_7
REMARK    7  A    between atoms: C_13  and  N_14
REMARK    8  A    between atoms: N_14  and  C_15
REMARK    9  A    between atoms: N_14  and  C_16
REMARK   10  A    between atoms: C_20  and  N_21
REMARK   11  A    between atoms: N_21  and  C_22
REMARK   12  A    between atoms: N_21  and  C_23
REMARK                            x       y       z     vdW  Elec       q    Type
REMARK                         _______ _______ _______ _____ _____    ______ ____
ROOT
ATOM      1  N   UNL     1       4.731   4.972  18.051  0.00  0.00    +0.000 N 
ATOM      2  C   UNL     1       4.261   6.278  17.705  0.00  0.00    +0.000 C 
ATOM      3  O   UNL     1       4.945   7.146  17.196  0.00  0.00    +0.000 OA
ATOM      4  C   UNL     1       2.793   6.386  18.091  0.00  0.00    +0.000 C 
ATOM      5  C   UNL     1       2.395   7.607  18.876  0.00  0.00    +0.000 C 
ATOM      6  C   UNL     1       1.878   7.063  20.177  0.00  0.00    +0.000 C 
ATOM      7  C   UNL     1       1.121   7.706  21.074  0.00  0.00    +0.000 C 
ATOM      8  C   UNL     1       2.238   5.617  20.297  0.00  0.00    +0.000 C 
ATOM      9  O   UNL     1       2.260   4.905  21.273  0.00  0.00    +0.000 OA
ATOM     10  N   UNL     1       2.691   5.237  19.005  0.00  0.00    +0.000 N 
ATOM     11  C   UNL     1       3.733   4.255  18.828  0.00  0.00    +0.000 C 
ENDROOT
BRANCH   7  12
ATOM     12  N   UNL     1       0.650   9.016  21.083  0.00  0.00    +0.000 N 
ATOM     13  C   UNL     1      -0.161   9.653  20.043  0.00  0.00    +0.000 C 
ATOM     14  C   UNL     1       1.030   9.959  22.148  0.00  0.00    +0.000 C 
ENDBRANCH   7  12
BRANCH  11  15
ATOM     15  N   UNL     1       3.234   3.095  18.093  0.00  0.00    +0.000 NA
ATOM     16  C   UNL     1       3.593   1.725  18.483  0.00  0.00    +0.000 C 
ATOM     17  C   UNL     1       2.475   3.288  16.850  0.00  0.00    +0.000 C 
ENDBRANCH  11  15
BRANCH   1  18
ATOM     18  C   UNL     1       6.154   4.628  18.018  0.00  0.00    +0.000 C 
BRANCH  18  19
ATOM     19  C   UNL     1       6.712   4.683  16.597  0.00  0.00    +0.000 C 
BRANCH  19  20
ATOM     20  C   UNL     1       6.064   3.688  15.625  0.00  0.00    +0.000 C 
BRANCH  20  21
ATOM     21  C   UNL     1       5.591   4.344  14.326  0.00  0.00    +0.000 C 
BRANCH  21  23
ATOM     22  C   UNL     1       4.986   3.481  12.048  0.00  0.00    +0.000 C 
ATOM     23  C   UNL     1       6.095   3.609  13.082  0.00  0.00    +0.000 C 
ENDBRANCH  21  23
ENDBRANCH  20  21
ENDBRANCH  19  20
ENDBRANCH  18  19
ENDBRANCH   1  18
TORSDOF 7
ENDMDL
MODEL 3
REMARK VINA RESULT:      -6.2      0.160      1.041
REMARK  Name = 
REMARK  12 active torsions:
REMARK  status: ('A' for Active; 'I' for Inactive)
REMARK    1  A    between atoms: C_1  and  C_2
REMARK    2  A    between atoms: C_2  and  C_3
REMARK    3  A    between atoms: C_3  and  C_4
REMARK    4  A    between atoms: C_4  and  C_5
REMARK    5  A    between atoms: C_5  and  C_6
REMARK    6  A    between atoms: C_6  and  N_7
REMARK    7  A    between atoms: C_13  and  N_14
REMARK    8  A    between atoms: N_14  and  C_15
REMARK    9  A    between atoms: N_14  and  C_16
REMARK   10  A    between atoms: C_20  and  N_21
REMARK   11  A    between atoms: N_21  and  C_22
REMARK   12  A    between atoms: N_21  and  C_23
REMARK                            x       y       z     vdW  Elec       q    Type
REMARK                         _______ _______ _______ _____ _____    ______ ____
ROOT
ATOM      1  N   UNL     1       3.958   5.856  18.884  0.00  0.00    +0.000 N 
ATOM      2  C   UNL     1       3.730   6.839  17.870  0.00  0.00    +0.000 C 
ATOM      3  O   UNL     1       4.559   7.194  17.054  0.00  0.00    +0.000 OA
ATOM      4  C   UNL     1       2.304   7.354  18.001  0.00  0.00    +0.000 C 
ATOM      5  C   UNL     1       2.129   8.848  17.999  0.00  0.00    +0.000 C 
ATOM      6  C   UNL     1       1.521   9.155  19.338  0.00  0.00    +0.000 C 
ATOM      7  C   UNL     1       0.888  10.279  19.697  0.00  0.00    +0.000 C 
ATOM      8  C   UNL     1       1.615   7.953  20.222  0.00  0.00    +0.000 C 
ATOM      9  O   UNL     1       1.507   7.866  21.423  0.00  0.00    +0.000 OA
ATOM     10  N   UNL     1       1.996   6.887  19.363  0.00  0.00    +0.000 N 
ATOM     11  C   UNL     1       2.846   5.815  19.820  0.00  0.00    +0.000 C 
ENDROOT
BRANCH   7  12
ATOM     12  N   UNL     1       0.659  11.451  18.982  0.00  0.00    +0.000 N 
ATOM     13  C   UNL     1      -0.622  11.891  18.423  0.00  0.00    +0.000 C 
ATOM     14  C   UNL     1       1.764  12.354  18.618  0.00  0.00    +0.000 C 
ENDBRANCH   7  12
BRANCH  11  15
ATOM     15  N   UNL     1       2.149   4.532  19.746  0.00  0.00    +0.000 NA
ATOM     16  C   UNL     1       1.750   3.803  20.957  0.00  0.00    +0.000 C 
ATOM     17  C   UNL     1       1.964   3.874  18.446  0.00  0.00    +0.000 C 
ENDBRANCH  11  15
BRANCH   1  18
ATOM     18  C   UNL     1       5.297   5.336  19.170  0.00  0.00    +0.000 C 
BRANCH  18  19
ATOM     19  C   UNL     1       5.765   4.365  18.087  0.00  0.00    +0.000 C 
BRANCH  19  20
ATOM     20  C   UNL     1       7.142   4.696  17.495  0.00  0.00    +0.000 C 
BRANCH  20  21
ATOM     21  C   UNL     1       7.171   4.610  15.968  0.00  0.00    +0.000 C 
BRANCH  21  23
ATOM     22  C   UNL     1       5.911   3.968  13.893  0.00  0.00    +0.000 C 
ATOM     23  C   UNL     1       5.795   4.301  15.373  0.00  0.00    +0.000 C 
ENDBRANCH  21  23
ENDBRANCH  20  21
ENDBRANCH  19  20
ENDBRANCH  18  19
ENDBRANCH   1  18
TORSDOF 7
ENDMDL
MODEL 4
REMARK VINA RESULT:      -6.1      1.305      1.543
REMARK  Name = 
REMARK  12 active torsions:
REMARK  status: ('A' for Active; 'I' for Inactive)
REMARK    1  A    between atoms: C_1  and  C_2
REMARK    2  A    between atoms: C_2  and  C_3
REMARK    3  A    between atoms: C_3  and  C_4
REMARK    4  A    between atoms: C_4  and  C_5
REMARK    5  A    between atoms: C_5  and  C_6
REMARK    6  A    between atoms: C_6  and  N_7
REMARK    7  A    between atoms: C_13  and  N_14
REMARK    8  A    between atoms: N_14  and  C_15
REMARK    9  A    between atoms: N_14  and  C_16
REMARK   10  A    between atoms: C_20  and  N_21
REMARK   11  A    between atoms: N_21  and  C_22
REMARK   12  A    between atoms: N_21  and  C_23
REMARK                            x       y       z     vdW  Elec       q    Type
REMARK                         _______ _______ _______ _____ _____    ______ ____
ROOT
ATOM      1  N   UNL     1       5.125   5.518  18.298  0.00  0.00    +0.000 N 
ATOM      2  C   UNL     1       4.768   6.661  17.514  0.00  0.00    +0.000 C 
ATOM      3  O   UNL     1       5.561   7.364  16.917  0.00  0.00    +0.000 OA
ATOM      4  C   UNL     1       3.258   6.840  17.573  0.00  0.00    +0.000 C 
ATOM      5  C   UNL     1       2.760   8.225  17.890  0.00  0.00    +0.000 C 
ATOM      6  C   UNL     1       1.994   8.062  19.172  0.00  0.00    +0.000 C 
ATOM      7  C   UNL     1       1.105   8.915  19.693  0.00  0.00    +0.000 C 
ATOM      8  C   UNL     1       2.280   6.717  19.762  0.00  0.00    +0.000 C 
ATOM      9  O   UNL     1       2.098   6.313  20.886  0.00  0.00    +0.000 OA
ATOM     10  N   UNL     1       2.952   5.996  18.739  0.00  0.00    +0.000 N 
ATOM     11  C   UNL     1       3.978   5.029  19.046  0.00  0.00    +0.000 C 
ENDROOT
BRANCH   7  12
ATOM     12  N   UNL     1       0.681  10.162  19.242  0.00  0.00    +0.000 N 
ATOM     13  C   UNL     1       1.246  11.460  19.622  0.00  0.00    +0.000 C 
ATOM     14  C   UNL     1      -0.499  10.302  18.374  0.00  0.00    +0.000 C 
ENDBRANCH   7  12
BRANCH  11  15
ATOM     15  N   UNL     1       3.587   3.696  18.589  0.00  0.00    +0.000 NA
ATOM     16  C   UNL     1       2.592   3.509  17.525  0.00  0.00    +0.000 C 
ATOM     17  C   UNL     1       4.081   2.507  19.296  0.00  0.00    +0.000 C 
ENDBRANCH  11  15
BRANCH   1  18
ATOM     18  C   UNL     1       6.517   5.212  18.629  0.00  0.00    +0.000 C 
BRANCH  18  19
ATOM     19  C   UNL     1       7.236   4.532  17.464  0.00  0.00    +0.000 C 
BRANCH  19  20
ATOM     20  C   UNL     1       6.311   4.090  16.323  0.00  0.00    +0.000 C 
BRANCH  20  21
ATOM     21  C   UNL     1       6.833   4.492  14.942  0.00  0.00    +0.000 C 
BRANCH  21  23
ATOM     22  C   UNL     1       6.761   4.033  12.475  0.00  0.00    +0.000 C 
ATOM     23  C   UNL     1       6.053   3.828  13.806  0.00  0.00    +0.000 C 
ENDBRANCH  21  23
ENDBRANCH  20  21
ENDBRANCH  19  20
ENDBRANCH  18  19
ENDBRANCH   1  18
TORSDOF 7
ENDMDL
MODEL 5
REMARK VINA RESULT:      -6.1      1.696      2.285
REMARK  Name = 
REMARK  12 active torsions:
REMARK  status: ('A' for Active; 'I' for Inactive)
REMARK    1  A    between atoms: C_1  and  C_2
REMARK    2  A    between atoms: C_2  and  C_3
REMARK    3  A    between atoms: C_3  and  C_4
REMARK    4  A    between atoms: C_4  and  C_5
REMARK    5  A    between atoms: C_5  and  C_6
REMARK    6  A    between atoms: C_6  and  N_7
REMARK    7  A    between atoms: C_13  and  N_14
REMARK    8  A    between atoms: N_14  and  C_15
REMARK    9  A    between atoms: N_14  and  C_16
REMARK   10  A    between atoms: C_20  and  N_21
REMARK   11  A    between atoms: N_21  and  C_22
REMARK   12  A    between atoms: N_21  and  C_23
REMARK                            x       y       z     vdW  Elec       q    Type
REMARK                         _______ _______ _______ _____ _____    ______ ____
ROOT
ATOM      1  N   UNL     1       4.616   5.022  18.032  0.00  0.00    +0.000 N 
ATOM      2  C   UNL     1       4.144   6.331  17.700  0.00  0.00    +0.000 C 
ATOM      3  O   UNL     1       4.818   7.194  17.170  0.00  0.00    +0.000 OA
ATOM      4  C   UNL     1       2.689   6.448  18.129  0.00  0.00    +0.000 C 
ATOM      5  C   UNL     1       2.321   7.672  18.924  0.00  0.00    +0.000 C 
ATOM      6  C   UNL     1       1.841   7.131  20.241  0.00  0.00    +0.000 C 
ATOM      7  C   UNL     1       1.114   7.778  21.160  0.00  0.00    +0.000 C 
ATOM      8  C   UNL     1       2.194   5.682  20.350  0.00  0.00    +0.000 C 
ATOM      9  O   UNL     1       2.241   4.970  21.325  0.00  0.00    +0.000 OA
ATOM     10  N   UNL     1       2.606   5.300  19.046  0.00  0.00    +0.000 N 
ATOM     11  C   UNL     1       3.637   4.311  18.838  0.00  0.00    +0.000 C 
ENDROOT
BRANCH   7  12
ATOM     12  N   UNL     1       0.652   9.091  21.182  0.00  0.00    +0.000 N 
ATOM     13  C   UNL     1       0.523   9.946  22.366  0.00  0.00    +0.000 C 
ATOM     14  C   UNL     1       0.129   9.739  19.969  0.00  0.00    +0.000 C 
ENDBRANCH   7  12
BRANCH  11  15
ATOM     15  N   UNL     1       3.109   3.154  18.118  0.00  0.00    +0.000 NA
ATOM     16  C   UNL     1       1.967   3.274  17.202  0.00  0.00    +0.000 C 
ATOM     17  C   UNL     1       3.624   1.811  18.414  0.00  0.00    +0.000 C 
ENDBRANCH  11  15
BRANCH   1  18
ATOM     18  C   UNL     1       6.035   4.669  17.956  0.00  0.00    +0.000 C 
BRANCH  18  19
ATOM     19  C   UNL     1       6.410   4.141  16.573  0.00  0.00    +0.000 C 
BRANCH  19  20
ATOM     20  C   UNL     1       7.112   5.166  15.673  0.00  0.00    +0.000 C 
BRANCH  20  21
ATOM     21  C   UNL     1       7.001   4.830  14.185  0.00  0.00    +0.000 C 
BRANCH  21  23
ATOM     22  C   UNL     1       5.895   3.376  12.462  0.00  0.00    +0.000 C 
ATOM     23  C   UNL     1       5.803   3.930  13.877  0.00  0.00    +0.000 C 
ENDBRANCH  21  23
ENDBRANCH  20  21
ENDBRANCH  19  20
ENDBRANCH  18  19
ENDBRANCH   1  18
TORSDOF 7
ENDMDL
MODEL 6
REMARK VINA RESULT:      -6.1      1.446      2.011
REMARK  Name = 
REMARK  12 active torsions:
REMARK  status: ('A' for Active; 'I' for Inactive)
REMARK    1  A    between atoms: C_1  and  C_2
REMARK    2  A    between atoms: C_2  and  C_3
REMARK    3  A    between atoms: C_3  and  C_4
REMARK    4  A    between atoms: C_4  and  C_5
REMARK    5  A    between atoms: C_5  and  C_6
REMARK    6  A    between atoms: C_6  and  N_7
REMARK    7  A    between atoms: C_13  and  N_14
REMARK    8  A    between atoms: N_14  and  C_15
REMARK    9  A    between atoms: N_14  and  C_16
REMARK   10  A    between atoms: C_20  and  N_21
REMARK   11  A    between atoms: N_21  and  C_22
REMARK   12  A    between atoms: N_21  and  C_23
REMARK                            x       y       z     vdW  Elec       q    Type
REMARK                         _______ _______ _______ _____ _____    ______ ____
ROOT
ATOM      1  N   UNL     1       4.182   5.678  18.995  0.00  0.00    +0.000 N 
ATOM      2  C   UNL     1       3.861   6.602  17.952  0.00  0.00    +0.000 C 
ATOM      3  O   UNL     1       4.651   7.006  17.119  0.00  0.00    +0.000 OA
ATOM      4  C   UNL     1       2.394   6.988  18.076  0.00  0.00    +0.000 C 
ATOM      5  C   UNL     1       2.082   8.459  18.027  0.00  0.00    +0.000 C 
ATOM      6  C   UNL     1       1.452   8.752  19.359  0.00  0.00    +0.000 C 
ATOM      7  C   UNL     1       0.721   9.824  19.686  0.00  0.00    +0.000 C 
ATOM      8  C   UNL     1       1.660   7.592  20.281  0.00  0.00    +0.000 C 
ATOM      9  O   UNL     1       1.565   7.535  21.484  0.00  0.00    +0.000 OA
ATOM     10  N   UNL     1       2.134   6.539  19.453  0.00  0.00    +0.000 N 
ATOM     11  C   UNL     1       3.081   5.565  19.939  0.00  0.00    +0.000 C 
ENDROOT
BRANCH   7  12
ATOM     12  N   UNL     1       0.382  10.947  18.935  0.00  0.00    +0.000 N 
ATOM     13  C   UNL     1       1.191  12.158  18.772  0.00  0.00    +0.000 C 
ATOM     14  C   UNL     1      -0.933  11.065  18.286  0.00  0.00    +0.000 C 
ENDBRANCH   7  12
BRANCH  11  15
ATOM     15  N   UNL     1       2.505   4.222  19.910  0.00  0.00    +0.000 NA
ATOM     16  C   UNL     1       3.243   3.057  20.417  0.00  0.00    +0.000 C 
ATOM     17  C   UNL     1       1.222   3.990  19.232  0.00  0.00    +0.000 C 
ENDBRANCH  11  15
BRANCH   1  18
ATOM     18  C   UNL     1       5.563   5.292  19.289  0.00  0.00    +0.000 C 
BRANCH  18  19
ATOM     19  C   UNL     1       6.230   4.631  18.084  0.00  0.00    +0.000 C 
BRANCH  19  20
ATOM     20  C   UNL     1       7.574   5.255  17.684  0.00  0.00    +0.000 C 
BRANCH  20  21
ATOM     21  C   UNL     1       7.866   6.564  18.420  0.00  0.00    +0.000 C 
BRANCH  21  23
ATOM     22  C   UNL     1       8.352   9.015  18.177  0.00  0.00    +0.000 C 
ATOM     23  C   UNL     1       7.758   7.786  17.505  0.00  0.00    +0.000 C 
ENDBRANCH  21  23
ENDBRANCH  20  21
ENDBRANCH  19  20
ENDBRANCH  18  19
ENDBRANCH   1  18
TORSDOF 7
ENDMDL
MODEL 7
REMARK VINA RESULT:      -6.0      3.590      5.595
REMARK  Name = 
REMARK  12 active torsions:
REMARK  status: ('A' for Active; 'I' for Inactive)
REMARK    1  A    between atoms: C_1  and  C_2
REMARK    2  A    between atoms: C_2  and  C_3
REMARK    3  A    between atoms: C_3  and  C_4
REMARK    4  A    between atoms: C_4  and  C_5
REMARK    5  A    between atoms: C_5  and  C_6
REMARK    6  A    between atoms: C_6  and  N_7
REMARK    7  A    between atoms: C_13  and  N_14
REMARK    8  A    between atoms: N_14  and  C_15
REMARK    9  A    between atoms: N_14  and  C_16
REMARK   10  A    between atoms: C_20  and  N_21
REMARK   11  A    between atoms: N_21  and  C_22
REMARK   12  A    between atoms: N_21  and  C_23
REMARK                            x       y       z     vdW  Elec       q    Type
REMARK                         _______ _______ _______ _____ _____    ______ ____
ROOT
ATOM      1  N   UNL     1       6.051   5.320  16.265  0.00  0.00    +0.000 N 
ATOM      2  C   UNL     1       5.637   3.999  16.626  0.00  0.00    +0.000 C 
ATOM      3  O   UNL     1       5.567   3.062  15.854  0.00  0.00    +0.000 OA
ATOM      4  C   UNL     1       5.297   3.983  18.109  0.00  0.00    +0.000 C 
ATOM      5  C   UNL     1       3.983   3.355  18.489  0.00  0.00    +0.000 C 
ATOM      6  C   UNL     1       3.208   4.469  19.133  0.00  0.00    +0.000 C 
ATOM      7  C   UNL     1       2.128   4.351  19.914  0.00  0.00    +0.000 C 
ATOM      8  C   UNL     1       3.891   5.774  18.874  0.00  0.00    +0.000 C 
ATOM      9  O   UNL     1       3.465   6.900  18.969  0.00  0.00    +0.000 OA
ATOM     10  N   UNL     1       5.166   5.429  18.351  0.00  0.00    +0.000 N 
ATOM     11  C   UNL     1       5.823   6.248  17.361  0.00  0.00    +0.000 C 
ENDROOT
BRANCH   7  12
ATOM     12  N   UNL     1       1.415   3.220  20.303  0.00  0.00    +0.000 N 
ATOM     13  C   UNL     1       0.558   2.397  19.445  0.00  0.00    +0.000 C 
ATOM     14  C   UNL     1       1.378   2.784  21.708  0.00  0.00    +0.000 C 
ENDBRANCH   7  12
BRANCH  11  15
ATOM     15  N   UNL     1       7.088   6.770  17.875  0.00  0.00    +0.000 NA
ATOM     16  C   UNL     1       7.840   6.067  18.924  0.00  0.00    +0.000 C 
ATOM     17  C   UNL     1       7.560   8.094  17.450  0.00  0.00    +0.000 C 
ENDBRANCH  11  15
BRANCH   1  18
ATOM     18  C   UNL     1       6.227   5.720  14.868  0.00  0.00    +0.000 C 
BRANCH  18  19
ATOM     19  C   UNL     1       7.345   4.928  14.193  0.00  0.00    +0.000 C 
BRANCH  19  20
ATOM     20  C   UNL     1       6.965   4.333  12.831  0.00  0.00    +0.000 C 
BRANCH  20  21
ATOM     21  C   UNL     1       5.653   3.546  12.869  0.00  0.00    +0.000 C 
BRANCH  21  23
ATOM     22  C   UNL     1       3.947   3.177  11.064  0.00  0.00    +0.000 C 
ATOM     23  C   UNL     1       5.353   2.845  11.542  0.00  0.00    +0.000 C 
ENDBRANCH  21  23
ENDBRANCH  20  21
ENDBRANCH  19  20
ENDBRANCH  18  19
ENDBRANCH   1  18
TORSDOF 7
ENDMDL
MODEL 8
REMARK VINA RESULT:      -5.9      1.120      1.972
REMARK  Name = 
REMARK  12 active torsions:
REMARK  status: ('A' for Active; 'I' for Inactive)
REMARK    1  A    between atoms: C_1  and  C_2
REMARK    2  A    between atoms: C_2  and  C_3
REMARK    3  A    between atoms: C_3  and  C_4
REMARK    4  A    between atoms: C_4  and  C_5
REMARK    5  A    between atoms: C_5  and  C_6
REMARK    6  A    between atoms: C_6  and  N_7
REMARK    7  A    between atoms: C_13  and  N_14
REMARK    8  A    between atoms: N_14  and  C_15
REMARK    9  A    between atoms: N_14  and  C_16
REMARK   10  A    between atoms: C_20  and  N_21
REMARK   11  A    between atoms: N_21  and  C_22
REMARK   12  A    between atoms: N_21  and  C_23
REMARK                            x       y       z     vdW  Elec       q    Type
REMARK                         _______ _______ _______ _____ _____    ______ ____
ROOT
ATOM      1  N   UNL     1       3.840   5.799  18.933  0.00  0.00    +0.000 N 
ATOM      2  C   UNL     1       3.634   6.782  17.914  0.00  0.00    +0.000 C 
ATOM      3  O   UNL     1       4.470   7.115  17.095  0.00  0.00    +0.000 OA
ATOM      4  C   UNL     1       2.220   7.330  18.045  0.00  0.00    +0.000 C 
ATOM      5  C   UNL     1       2.079   8.828  18.035  0.00  0.00    +0.000 C 
ATOM      6  C   UNL     1       1.479   9.156  19.373  0.00  0.00    +0.000 C 
ATOM      7  C   UNL     1       0.873  10.295  19.727  0.00  0.00    +0.000 C 
ATOM      8  C   UNL     1       1.547   7.956  20.263  0.00  0.00    +0.000 C 
ATOM      9  O   UNL     1       1.439   7.877  21.464  0.00  0.00    +0.000 OA
ATOM     10  N   UNL     1       1.903   6.877  19.409  0.00  0.00    +0.000 N 
ATOM     11  C   UNL     1       2.729   5.788  19.870  0.00  0.00    +0.000 C 
ENDROOT
BRANCH   7  12
ATOM     12  N   UNL     1       0.670  11.469  19.007  0.00  0.00    +0.000 N 
ATOM     13  C   UNL     1      -0.600  11.931  18.440  0.00  0.00    +0.000 C 
ATOM     14  C   UNL     1       1.793  12.349  18.645  0.00  0.00    +0.000 C 
ENDBRANCH   7  12
BRANCH  11  15
ATOM     15  N   UNL     1       2.002   4.521  19.803  0.00  0.00    +0.000 NA
ATOM     16  C   UNL     1       1.596   3.803  21.019  0.00  0.00    +0.000 C 
ATOM     17  C   UNL     1       1.794   3.866  18.506  0.00  0.00    +0.000 C 
ENDBRANCH  11  15
BRANCH   1  18
ATOM     18  C   UNL     1       5.167   5.250  19.220  0.00  0.00    +0.000 C 
BRANCH  18  19
ATOM     19  C   UNL     1       5.794   4.617  17.979  0.00  0.00    +0.000 C 
BRANCH  19  20
ATOM     20  C   UNL     1       7.251   5.027  17.728  0.00  0.00    +0.000 C 
BRANCH  20  21
ATOM     21  C   UNL     1       7.901   5.692  18.942  0.00  0.00    +0.000 C 
BRANCH  21  23
ATOM     22  C   UNL     1       7.645   7.636  17.373  0.00  0.00    +0.000 C 
ATOM     23  C   UNL     1       8.245   7.162  18.689  0.00  0.00    +0.000 C 
ENDBRANCH  21  23
ENDBRANCH  20  21
ENDBRANCH  19  20
ENDBRANCH  18  19
ENDBRANCH   1  18
TORSDOF 7
ENDMDL
MODEL 9
REMARK VINA RESULT:      -5.9      0.917      1.613
REMARK  Name = 
REMARK  12 active torsions:
REMARK  status: ('A' for Active; 'I' for Inactive)
REMARK    1  A    between atoms: C_1  and  C_2
REMARK    2  A    between atoms: C_2  and  C_3
REMARK    3  A    between atoms: C_3  and  C_4
REMARK    4  A    between atoms: C_4  and  C_5
REMARK    5  A    between atoms: C_5  and  C_6
REMARK    6  A    between atoms: C_6  and  N_7
REMARK    7  A    between atoms: C_13  and  N_14
REMARK    8  A    between atoms: N_14  and  C_15
REMARK    9  A    between atoms: N_14  and  C_16
REMARK   10  A    between atoms: C_20  and  N_21
REMARK   11  A    between atoms: N_21  and  C_22
REMARK   12  A    between atoms: N_21  and  C_23
REMARK                            x       y       z     vdW  Elec       q    Type
REMARK                         _______ _______ _______ _____ _____    ______ ____
ROOT
ATOM      1  N   UNL     1       3.696   5.939  18.925  0.00  0.00    +0.000 N 
ATOM      2  C   UNL     1       3.533   6.935  17.912  0.00  0.00    +0.000 C 
ATOM      3  O   UNL     1       4.390   7.250  17.108  0.00  0.00    +0.000 OA
ATOM      4  C   UNL     1       2.134   7.524  18.028  0.00  0.00    +0.000 C 
ATOM      5  C   UNL     1       2.038   9.026  18.030  0.00  0.00    +0.000 C 
ATOM      6  C   UNL     1       1.430   9.360  19.362  0.00  0.00    +0.000 C 
ATOM      7  C   UNL     1       0.853  10.514  19.717  0.00  0.00    +0.000 C 
ATOM      8  C   UNL     1       1.449   8.151  20.242  0.00  0.00    +0.000 C 
ATOM      9  O   UNL     1       1.322   8.067  21.441  0.00  0.00    +0.000 OA
ATOM     10  N   UNL     1       1.784   7.070  19.383  0.00  0.00    +0.000 N 
ATOM     11  C   UNL     1       2.571   5.953  19.847  0.00  0.00    +0.000 C 
ENDROOT
BRANCH   7  12
ATOM     12  N   UNL     1       0.695  11.700  19.005  0.00  0.00    +0.000 N 
ATOM     13  C   UNL     1       1.745  12.675  18.698  0.00  0.00    +0.000 C 
ATOM     14  C   UNL     1      -0.632  12.153  18.557  0.00  0.00    +0.000 C 
ENDBRANCH   7  12
BRANCH  11  15
ATOM     15  N   UNL     1       1.808   4.709  19.758  0.00  0.00    +0.000 NA
ATOM     16  C   UNL     1       1.447   3.942  20.958  0.00  0.00    +0.000 C 
ATOM     17  C   UNL     1       1.514   4.123  18.444  0.00  0.00    +0.000 C 
ENDBRANCH  11  15
BRANCH   1  18
ATOM     18  C   UNL     1       5.001   5.348  19.226  0.00  0.00    +0.000 C 
BRANCH  18  19
ATOM     19  C   UNL     1       5.239   4.072  18.420  0.00  0.00    +0.000 C 
BRANCH  19  20
ATOM     20  C   UNL     1       6.108   4.266  17.170  0.00  0.00    +0.000 C 
BRANCH  20  21
ATOM     21  C   UNL     1       7.431   4.975  17.468  0.00  0.00    +0.000 C 
BRANCH  21  23
ATOM     22  C   UNL     1       7.836   7.394  18.005  0.00  0.00    +0.000 C 
ATOM     23  C   UNL     1       7.468   6.400  16.913  0.00  0.00    +0.000 C 
ENDBRANCH  21  23
ENDBRANCH  20  21
ENDBRANCH  19  20
ENDBRANCH  18  19
ENDBRANCH   1  18
TORSDOF 7
ENDMDL
