MODEL 1
REMARK VINA RESULT:      -9.3      0.000      0.000
REMARK  Name = 
REMARK  5 active torsions:
REMARK  status: ('A' for Active; 'I' for Inactive)
REMARK    1  A    between atoms: C_1  and  C_2
REMARK    2  A    between atoms: C_3  and  C_4
REMARK    3  A    between atoms: C_4  and  N_5
REMARK    4  A    between atoms: C_7  and  C_8
REMARK    5  A    between atoms: C_11  and  C_12
REMARK                            x       y       z     vdW  Elec       q    Type
REMARK                         _______ _______ _______ _____ _____    ______ ____
ROOT
ATOM      1  C   UNL     1       2.368   7.309  19.242  0.00  0.00    +0.000 A 
ATOM      2  C   UNL     1       2.179   7.899  17.988  0.00  0.00    +0.000 A 
ATOM      3  C   UNL     1       1.423   9.076  17.872  0.00  0.00    +0.000 A 
ATOM      4  C   UNL     1       0.840   9.669  19.008  0.00  0.00    +0.000 A 
ATOM      5  C   UNL     1       0.976   9.013  20.228  0.00  0.00    +0.000 A 
ATOM      6  F   UNL     1       0.297   9.398  21.317  0.00  0.00    +0.000 F 
ATOM      7  C   UNL     1       1.773   7.884  20.363  0.00  0.00    +0.000 A 
ENDROOT
BRANCH   1  10
ATOM      8  N   UNL     1       5.020   4.719  18.974  0.00  0.00    +0.000 N 
ATOM      9  C   UNL     1       4.323   5.925  18.938  0.00  0.00    +0.000 A 
ATOM     10  C   UNL     1       3.067   6.033  19.416  0.00  0.00    +0.000 A 
ATOM     11  N   UNL     1       2.469   4.897  19.957  0.00  0.00    +0.000 N 
ATOM     12  C   UNL     1       1.206   4.677  20.447  0.00  0.00    +0.000 A 
ATOM     13  N   UNL     1       1.051   3.439  20.866  0.00  0.00    +0.000 NA
ATOM     14  C   UNL     1       2.254   2.824  20.623  0.00  0.00    +0.000 A 
ATOM     15  C   UNL     1       3.137   3.701  20.041  0.00  0.00    +0.000 A 
ATOM     16  C   UNL     1       4.481   3.549  19.553  0.00  0.00    +0.000 A 
ATOM     17  O   UNL     1       5.096   2.489  19.615  0.00  0.00    +0.000 OA
BRANCH   8  18
ATOM     18  C   UNL     1       6.340   4.642  18.356  0.00  0.00    +0.000 C 
BRANCH  18  21
ATOM     19  C   UNL     1       7.993   8.116  17.712  0.00  0.00    +0.000 C 
ATOM     20  C   UNL     1       7.257   6.831  17.525  0.00  0.00    +0.000 C 
ATOM     21  C   UNL     1       7.047   5.953  18.521  0.00  0.00    +0.000 C 
ENDBRANCH  18  21
ENDBRANCH   8  18
ENDBRANCH   1  10
BRANCH   4  22
ATOM     22  C   UNL     1       0.012  10.893  18.840  0.00  0.00    +0.000 C 
ATOM     23  O   UNL     1      -1.203  10.718  18.765  0.00  0.00    +0.000 OA
ATOM     24  N   UNL     1       0.575  12.166  18.762  0.00  0.00    +0.000 N 
ATOM     25  C   UNL     1       1.996  12.555  18.687  0.00  0.00    +0.000 C 
ATOM     26  C   UNL     1       2.337  13.542  19.818  0.00  0.00    +0.000 C 
ATOM     27  O   UNL     1       1.454  14.678  19.798  0.00  0.00    +0.000 OA
ATOM     28  C   UNL     1       0.081  14.262  19.921  0.00  0.00    +0.000 C 
ATOM     29  C   UNL     1      -0.306  13.336  18.763  0.00  0.00    +0.000 C 
ENDBRANCH   4  22
TORSDOF 4
ENDMDL
MODEL 2
REMARK VINA RESULT:      -9.2      2.283      2.739
REMARK  Name = 
REMARK  5 active torsions:
REMARK  status: ('A' for Active; 'I' for Inactive)
REMARK    1  A    between atoms: C_1  and  C_2
REMARK    2  A    between atoms: C_3  and  C_4
REMARK    3  A    between atoms: C_4  and  N_5
REMARK    4  A    between atoms: C_7  and  C_8
REMARK    5  A    between atoms: C_11  and  C_12
REMARK                            x       y       z     vdW  Elec       q    Type
REMARK                         _______ _______ _______ _____ _____    ______ ____
ROOT
ATOM      1  C   UNL     1       2.555   7.097  18.812  0.00  0.00    +0.000 A 
ATOM      2  C   UNL     1       2.154   7.006  20.148  0.00  0.00    +0.000 A 
ATOM      3  C   UNL     1       1.441   8.060  20.742  0.00  0.00    +0.000 A 
ATOM      4  C   UNL     1       1.129   9.219  20.005  0.00  0.00    +0.000 A 
ATOM      5  C   UNL     1       1.614   9.314  18.704  0.00  0.00    +0.000 A 
ATOM      6  F   UNL     1       1.534  10.453  18.002  0.00  0.00    +0.000 F 
ATOM      7  C   UNL     1       2.265   8.254  18.090  0.00  0.00    +0.000 A 
ENDROOT
BRANCH   1  10
ATOM      8  N   UNL     1       5.423   5.538  17.035  0.00  0.00    +0.000 N 
ATOM      9  C   UNL     1       4.614   6.421  17.747  0.00  0.00    +0.000 A 
ATOM     10  C   UNL     1       3.379   6.074  18.164  0.00  0.00    +0.000 A 
ATOM     11  N   UNL     1       2.920   4.793  17.863  0.00  0.00    +0.000 N 
ATOM     12  C   UNL     1       1.710   4.184  18.083  0.00  0.00    +0.000 A 
ATOM     13  N   UNL     1       1.694   2.948  17.633  0.00  0.00    +0.000 NA
ATOM     14  C   UNL     1       2.935   2.749  17.082  0.00  0.00    +0.000 A 
ATOM     15  C   UNL     1       3.701   3.885  17.193  0.00  0.00    +0.000 A 
ATOM     16  C   UNL     1       5.027   4.214  16.744  0.00  0.00    +0.000 A 
ATOM     17  O   UNL     1       5.741   3.418  16.142  0.00  0.00    +0.000 OA
BRANCH   8  18
ATOM     18  C   UNL     1       6.711   6.003  16.530  0.00  0.00    +0.000 C 
BRANCH  18  21
ATOM     19  C   UNL     1       8.484   8.898  18.452  0.00  0.00    +0.000 C 
ATOM     20  C   UNL     1       7.781   8.105  17.399  0.00  0.00    +0.000 C 
ATOM     21  C   UNL     1       7.389   6.833  17.578  0.00  0.00    +0.000 C 
ENDBRANCH  18  21
ENDBRANCH   8  18
ENDBRANCH   1  10
BRANCH   4  22
ATOM     22  C   UNL     1       0.409  10.332  20.680  0.00  0.00    +0.000 C 
ATOM     23  O   UNL     1       0.919  10.759  21.714  0.00  0.00    +0.000 OA
ATOM     24  N   UNL     1      -0.781  10.856  20.179  0.00  0.00    +0.000 N 
ATOM     25  C   UNL     1      -1.609  10.385  19.052  0.00  0.00    +0.000 C 
ATOM     26  C   UNL     1      -1.823  11.522  18.038  0.00  0.00    +0.000 C 
ATOM     27  O   UNL     1      -2.375  12.689  18.675  0.00  0.00    +0.000 OA
ATOM     28  C   UNL     1      -1.517  13.146  19.737  0.00  0.00    +0.000 C 
ATOM     29  C   UNL     1      -1.348  12.056  20.800  0.00  0.00    +0.000 C 
ENDBRANCH   4  22
TORSDOF 4
ENDMDL
MODEL 3
REMARK VINA RESULT:      -9.2      0.936      1.289
REMARK  Name = 
REMARK  5 active torsions:
REMARK  status: ('A' for Active; 'I' for Inactive)
REMARK    1  A    between atoms: C_1  and  C_2
REMARK    2  A    between atoms: C_3  and  C_4
REMARK    3  A    between atoms: C_4  and  N_5
REMARK    4  A    between atoms: C_7  and  C_8
REMARK    5  A    between atoms: C_11  and  C_12
REMARK                            x       y       z     vdW  Elec       q    Type
REMARK                         _______ _______ _______ _____ _____    ______ ____
ROOT
ATOM      1  C   UNL     1       2.411   7.265  19.189  0.00  0.00    +0.000 A 
ATOM      2  C   UNL     1       2.210   7.852  17.936  0.00  0.00    +0.000 A 
ATOM      3  C   UNL     1       1.461   9.034  17.826  0.00  0.00    +0.000 A 
ATOM      4  C   UNL     1       0.897   9.635  18.968  0.00  0.00    +0.000 A 
ATOM      5  C   UNL     1       1.044   8.981  20.188  0.00  0.00    +0.000 A 
ATOM      6  F   UNL     1       0.380   9.374  21.284  0.00  0.00    +0.000 F 
ATOM      7  C   UNL     1       1.834   7.847  20.317  0.00  0.00    +0.000 A 
ENDROOT
BRANCH   1  10
ATOM      8  N   UNL     1       5.044   4.657  18.901  0.00  0.00    +0.000 N 
ATOM      9  C   UNL     1       4.355   5.868  18.869  0.00  0.00    +0.000 A 
ATOM     10  C   UNL     1       3.104   5.984  19.359  0.00  0.00    +0.000 A 
ATOM     11  N   UNL     1       2.503   4.852  19.906  0.00  0.00    +0.000 N 
ATOM     12  C   UNL     1       1.243   4.641  20.408  0.00  0.00    +0.000 A 
ATOM     13  N   UNL     1       1.084   3.405  20.829  0.00  0.00    +0.000 NA
ATOM     14  C   UNL     1       2.281   2.782  20.576  0.00  0.00    +0.000 A 
ATOM     15  C   UNL     1       3.165   3.652  19.985  0.00  0.00    +0.000 A 
ATOM     16  C   UNL     1       4.503   3.492  19.485  0.00  0.00    +0.000 A 
ATOM     17  O   UNL     1       5.111   2.428  19.544  0.00  0.00    +0.000 OA
BRANCH   8  18
ATOM     18  C   UNL     1       6.358   4.572  18.271  0.00  0.00    +0.000 C 
BRANCH  18  21
ATOM     19  C   UNL     1       5.585   4.381  14.452  0.00  0.00    +0.000 C 
ATOM     20  C   UNL     1       5.666   4.060  15.908  0.00  0.00    +0.000 C 
ATOM     21  C   UNL     1       6.233   4.881  16.809  0.00  0.00    +0.000 C 
ENDBRANCH  18  21
ENDBRANCH   8  18
ENDBRANCH   1  10
BRANCH   4  22
ATOM     22  C   UNL     1       0.075  10.864  18.806  0.00  0.00    +0.000 C 
ATOM     23  O   UNL     1      -1.144  10.699  18.768  0.00  0.00    +0.000 OA
ATOM     24  N   UNL     1       0.646  12.130  18.694  0.00  0.00    +0.000 N 
ATOM     25  C   UNL     1       2.069  12.505  18.574  0.00  0.00    +0.000 C 
ATOM     26  C   UNL     1       2.450  13.504  19.682  0.00  0.00    +0.000 C 
ATOM     27  O   UNL     1       1.577  14.648  19.671  0.00  0.00    +0.000 OA
ATOM     28  C   UNL     1       0.204  14.246  19.838  0.00  0.00    +0.000 C 
ATOM     29  C   UNL     1      -0.224  13.308  18.704  0.00  0.00    +0.000 C 
ENDBRANCH   4  22
TORSDOF 4
ENDMDL
MODEL 4
REMARK VINA RESULT:      -9.1      1.773      1.852
REMARK  Name = 
REMARK  5 active torsions:
REMARK  status: ('A' for Active; 'I' for Inactive)
REMARK    1  A    between atoms: C_1  and  C_2
REMARK    2  A    between atoms: C_3  and  C_4
REMARK    3  A    between atoms: C_4  and  N_5
REMARK    4  A    between atoms: C_7  and  C_8
REMARK    5  A    between atoms: C_11  and  C_12
REMARK                            x       y       z     vdW  Elec       q    Type
REMARK                         _______ _______ _______ _____ _____    ______ ____
ROOT
ATOM      1  C   UNL     1       2.551   7.611  18.480  0.00  0.00    +0.000 A 
ATOM      2  C   UNL     1       2.062   8.588  17.607  0.00  0.00    +0.000 A 
ATOM      3  C   UNL     1       1.236   9.614  18.091  0.00  0.00    +0.000 A 
ATOM      4  C   UNL     1       0.883   9.668  19.454  0.00  0.00    +0.000 A 
ATOM      5  C   UNL     1       1.317   8.636  20.280  0.00  0.00    +0.000 A 
ATOM      6  F   UNL     1       0.870   8.501  21.536  0.00  0.00    +0.000 F 
ATOM      7  C   UNL     1       2.184   7.652  19.824  0.00  0.00    +0.000 A 
ENDROOT
BRANCH   1  10
ATOM      8  N   UNL     1       5.420   5.661  17.145  0.00  0.00    +0.000 N 
ATOM      9  C   UNL     1       4.630   6.674  17.684  0.00  0.00    +0.000 A 
ATOM     10  C   UNL     1       3.340   6.465  18.020  0.00  0.00    +0.000 A 
ATOM     11  N   UNL     1       2.804   5.196  17.814  0.00  0.00    +0.000 N 
ATOM     12  C   UNL     1       1.534   4.704  17.985  0.00  0.00    +0.000 A 
ATOM     13  N   UNL     1       1.454   3.430  17.667  0.00  0.00    +0.000 NA
ATOM     14  C   UNL     1       2.717   3.083  17.255  0.00  0.00    +0.000 A 
ATOM     15  C   UNL     1       3.561   4.165  17.317  0.00  0.00    +0.000 A 
ATOM     16  C   UNL     1       4.942   4.345  16.959  0.00  0.00    +0.000 A 
ATOM     17  O   UNL     1       5.636   3.438  16.511  0.00  0.00    +0.000 OA
BRANCH   8  18
ATOM     18  C   UNL     1       6.779   5.973  16.714  0.00  0.00    +0.000 C 
BRANCH  18  21
ATOM     19  C   UNL     1       8.463   9.054  18.413  0.00  0.00    +0.000 C 
ATOM     20  C   UNL     1       7.802   8.159  17.417  0.00  0.00    +0.000 C 
ATOM     21  C   UNL     1       7.415   6.904  17.701  0.00  0.00    +0.000 C 
ENDBRANCH  18  21
ENDBRANCH   8  18
ENDBRANCH   1  10
BRANCH   4  22
ATOM     22  C   UNL     1      -0.028  10.747  19.922  0.00  0.00    +0.000 C 
ATOM     23  O   UNL     1      -1.177  10.404  20.196  0.00  0.00    +0.000 OA
ATOM     24  N   UNL     1       0.389  12.072  20.037  0.00  0.00    +0.000 N 
ATOM     25  C   UNL     1       1.664  12.690  19.623  0.00  0.00    +0.000 C 
ATOM     26  C   UNL     1       2.319  13.406  20.817  0.00  0.00    +0.000 C 
ATOM     27  O   UNL     1       1.416  14.355  21.412  0.00  0.00    +0.000 OA
ATOM     28  C   UNL     1       0.205  13.708  21.846  0.00  0.00    +0.000 C 
ATOM     29  C   UNL     1      -0.508  13.049  20.660  0.00  0.00    +0.000 C 
ENDBRANCH   4  22
TORSDOF 4
ENDMDL
MODEL 5
REMARK VINA RESULT:      -8.9      2.241      2.682
REMARK  Name = 
REMARK  5 active torsions:
REMARK  status: ('A' for Active; 'I' for Inactive)
REMARK    1  A    between atoms: C_1  and  C_2
REMARK    2  A    between atoms: C_3  and  C_4
REMARK    3  A    between atoms: C_4  and  N_5
REMARK    4  A    between atoms: C_7  and  C_8
REMARK    5  A    between atoms: C_11  and  C_12
REMARK                            x       y       z     vdW  Elec       q    Type
REMARK                         _______ _______ _______ _____ _____    ______ ____
ROOT
ATOM      1  C   UNL     1       2.733   7.442  18.559  0.00  0.00    +0.000 A 
ATOM      2  C   UNL     1       2.348   8.542  17.787  0.00  0.00    +0.000 A 
ATOM      3  C   UNL     1       1.526   9.536  18.341  0.00  0.00    +0.000 A 
ATOM      4  C   UNL     1       1.074   9.435  19.671  0.00  0.00    +0.000 A 
ATOM      5  C   UNL     1       1.405   8.287  20.385  0.00  0.00    +0.000 A 
ATOM      6  F   UNL     1       0.861   8.017  21.580  0.00  0.00    +0.000 F 
ATOM      7  C   UNL     1       2.267   7.330  19.868  0.00  0.00    +0.000 A 
ENDROOT
BRANCH   1  10
ATOM      8  N   UNL     1       5.575   5.578  17.053  0.00  0.00    +0.000 N 
ATOM      9  C   UNL     1       4.796   6.555  17.672  0.00  0.00    +0.000 A 
ATOM     10  C   UNL     1       3.511   6.327  18.012  0.00  0.00    +0.000 A 
ATOM     11  N   UNL     1       2.967   5.076  17.728  0.00  0.00    +0.000 N 
ATOM     12  C   UNL     1       1.698   4.577  17.885  0.00  0.00    +0.000 A 
ATOM     13  N   UNL     1       1.609   3.328  17.483  0.00  0.00    +0.000 NA
ATOM     14  C   UNL     1       2.864   3.005  17.030  0.00  0.00    +0.000 A 
ATOM     15  C   UNL     1       3.714   4.079  17.152  0.00  0.00    +0.000 A 
ATOM     16  C   UNL     1       5.090   4.279  16.786  0.00  0.00    +0.000 A 
ATOM     17  O   UNL     1       5.774   3.402  16.268  0.00  0.00    +0.000 OA
BRANCH   8  18
ATOM     18  C   UNL     1       6.928   5.915  16.624  0.00  0.00    +0.000 C 
BRANCH  18  21
ATOM     19  C   UNL     1       8.459   9.046  18.375  0.00  0.00    +0.000 C 
ATOM     20  C   UNL     1       7.810   8.146  17.377  0.00  0.00    +0.000 C 
ATOM     21  C   UNL     1       7.550   6.850  17.618  0.00  0.00    +0.000 C 
ENDBRANCH  18  21
ENDBRANCH   8  18
ENDBRANCH   1  10
BRANCH   4  22
ATOM     22  C   UNL     1       0.171  10.487  20.210  0.00  0.00    +0.000 C 
ATOM     23  O   UNL     1       0.599  11.129  21.168  0.00  0.00    +0.000 OA
ATOM     24  N   UNL     1      -1.091  10.729  19.670  0.00  0.00    +0.000 N 
ATOM     25  C   UNL     1      -1.823   9.978  18.633  0.00  0.00    +0.000 C 
ATOM     26  C   UNL     1      -2.228  10.917  17.483  0.00  0.00    +0.000 C 
ATOM     27  O   UNL     1      -2.974  12.046  17.973  0.00  0.00    +0.000 OA
ATOM     28  C   UNL     1      -2.210  12.780  18.948  0.00  0.00    +0.000 C 
ATOM     29  C   UNL     1      -1.857  11.886  20.141  0.00  0.00    +0.000 C 
ENDBRANCH   4  22
TORSDOF 4
ENDMDL
MODEL 6
REMARK VINA RESULT:      -8.9      2.784      8.606
REMARK  Name = 
REMARK  5 active torsions:
REMARK  status: ('A' for Active; 'I' for Inactive)
REMARK    1  A    between atoms: C_1  and  C_2
REMARK    2  A    between atoms: C_3  and  C_4
REMARK    3  A    between atoms: C_4  and  N_5
REMARK    4  A    between atoms: C_7  and  C_8
REMARK    5  A    between atoms: C_11  and  C_12
REMARK                            x       y       z     vdW  Elec       q    Type
REMARK                         _______ _______ _______ _____ _____    ______ ____
ROOT
ATOM      1  C   UNL     1       1.026   8.695  19.841  0.00  0.00    +0.000 A 
ATOM      2  C   UNL     1       1.138   7.615  20.722  0.00  0.00    +0.000 A 
ATOM      3  C   UNL     1       2.053   6.584  20.457  0.00  0.00    +0.000 A 
ATOM      4  C   UNL     1       2.859   6.618  19.303  0.00  0.00    +0.000 A 
ATOM      5  C   UNL     1       2.664   7.663  18.404  0.00  0.00    +0.000 A 
ATOM      6  F   UNL     1       3.242   7.671  17.195  0.00  0.00    +0.000 F 
ATOM      7  C   UNL     1       1.808   8.718  18.687  0.00  0.00    +0.000 A 
ENDROOT
BRANCH   1  10
ATOM      8  N   UNL     1      -1.416  11.361  18.978  0.00  0.00    +0.000 N 
ATOM      9  C   UNL     1      -0.534  10.284  18.907  0.00  0.00    +0.000 A 
ATOM     10  C   UNL     1       0.027   9.753  20.013  0.00  0.00    +0.000 A 
ATOM     11  N   UNL     1      -0.297  10.310  21.248  0.00  0.00    +0.000 N 
ATOM     12  C   UNL     1       0.155  10.043  22.516  0.00  0.00    +0.000 A 
ATOM     13  N   UNL     1      -0.419  10.813  23.415  0.00  0.00    +0.000 NA
ATOM     14  C   UNL     1      -1.265  11.627  22.703  0.00  0.00    +0.000 A 
ATOM     15  C   UNL     1      -1.188  11.348  21.359  0.00  0.00    +0.000 A 
ATOM     16  C   UNL     1      -1.816  11.933  20.205  0.00  0.00    +0.000 A 
ATOM     17  O   UNL     1      -2.614  12.863  20.282  0.00  0.00    +0.000 OA
BRANCH   8  18
ATOM     18  C   UNL     1      -1.917  11.952  17.742  0.00  0.00    +0.000 C 
BRANCH  18  21
ATOM     19  C   UNL     1      -3.178   9.927  14.655  0.00  0.00    +0.000 C 
ATOM     20  C   UNL     1      -2.902  11.034  15.618  0.00  0.00    +0.000 C 
ATOM     21  C   UNL     1      -2.183  10.867  16.741  0.00  0.00    +0.000 C 
ENDBRANCH  18  21
ENDBRANCH   8  18
ENDBRANCH   1  10
BRANCH   4  22
ATOM     22  C   UNL     1       3.787   5.487  19.035  0.00  0.00    +0.000 C 
ATOM     23  O   UNL     1       4.949   5.640  19.407  0.00  0.00    +0.000 OA
ATOM     24  N   UNL     1       3.371   4.323  18.391  0.00  0.00    +0.000 N 
ATOM     25  C   UNL     1       2.075   4.020  17.753  0.00  0.00    +0.000 C 
ATOM     26  C   UNL     1       1.475   2.736  18.353  0.00  0.00    +0.000 C 
ATOM     27  O   UNL     1       2.401   1.639  18.262  0.00  0.00    +0.000 OA
ATOM     28  C   UNL     1       3.634   1.953  18.936  0.00  0.00    +0.000 C 
ATOM     29  C   UNL     1       4.292   3.186  18.309  0.00  0.00    +0.000 C 
ENDBRANCH   4  22
TORSDOF 4
ENDMDL
MODEL 7
REMARK VINA RESULT:      -8.7      0.968      1.315
REMARK  Name = 
REMARK  5 active torsions:
REMARK  status: ('A' for Active; 'I' for Inactive)
REMARK    1  A    between atoms: C_1  and  C_2
REMARK    2  A    between atoms: C_3  and  C_4
REMARK    3  A    between atoms: C_4  and  N_5
REMARK    4  A    between atoms: C_7  and  C_8
REMARK    5  A    between atoms: C_11  and  C_12
REMARK                            x       y       z     vdW  Elec       q    Type
REMARK                         _______ _______ _______ _____ _____    ______ ____
ROOT
ATOM      1  C   UNL     1       2.085   7.266  19.635  0.00  0.00    +0.000 A 
ATOM      2  C   UNL     1       1.450   7.809  20.756  0.00  0.00    +0.000 A 
ATOM      3  C   UNL     1       0.774   9.035  20.656  0.00  0.00    +0.000 A 
ATOM      4  C   UNL     1       0.736   9.735  19.434  0.00  0.00    +0.000 A 
ATOM      5  C   UNL     1       1.448   9.211  18.360  0.00  0.00    +0.000 A 
ATOM      6  F   UNL     1       1.627   9.902  17.226  0.00  0.00    +0.000 F 
ATOM      7  C   UNL     1       2.066   7.970  18.432  0.00  0.00    +0.000 A 
ENDROOT
BRANCH   1  10
ATOM      8  N   UNL     1       4.937   4.930  19.157  0.00  0.00    +0.000 N 
ATOM      9  C   UNL     1       4.146   6.076  19.226  0.00  0.00    +0.000 A 
ATOM     10  C   UNL     1       2.883   6.038  19.697  0.00  0.00    +0.000 A 
ATOM     11  N   UNL     1       2.375   4.812  20.120  0.00  0.00    +0.000 N 
ATOM     12  C   UNL     1       1.131   4.448  20.572  0.00  0.00    +0.000 A 
ATOM     13  N   UNL     1       1.072   3.168  20.870  0.00  0.00    +0.000 NA
ATOM     14  C   UNL     1       2.322   2.675  20.585  0.00  0.00    +0.000 A 
ATOM     15  C   UNL     1       3.136   3.670  20.100  0.00  0.00    +0.000 A 
ATOM     16  C   UNL     1       4.490   3.672  19.616  0.00  0.00    +0.000 A 
ATOM     17  O   UNL     1       5.186   2.662  19.586  0.00  0.00    +0.000 OA
BRANCH   8  18
ATOM     18  C   UNL     1       6.261   5.017  18.551  0.00  0.00    +0.000 C 
BRANCH  18  21
ATOM     19  C   UNL     1       7.885   8.443  17.635  0.00  0.00    +0.000 C 
ATOM     20  C   UNL     1       7.686   7.038  18.100  0.00  0.00    +0.000 C 
ATOM     21  C   UNL     1       6.498   6.414  18.061  0.00  0.00    +0.000 C 
ENDBRANCH  18  21
ENDBRANCH   8  18
ENDBRANCH   1  10
BRANCH   4  22
ATOM     22  C   UNL     1       0.045  11.052  19.378  0.00  0.00    +0.000 C 
ATOM     23  O   UNL     1      -1.181  11.017  19.292  0.00  0.00    +0.000 OA
ATOM     24  N   UNL     1       0.744  12.257  19.409  0.00  0.00    +0.000 N 
ATOM     25  C   UNL     1       2.199  12.496  19.362  0.00  0.00    +0.000 C 
ATOM     26  C   UNL     1       2.639  13.336  20.574  0.00  0.00    +0.000 C 
ATOM     27  O   UNL     1       1.885  14.559  20.658  0.00  0.00    +0.000 OA
ATOM     28  C   UNL     1       0.474  14.285  20.750  0.00  0.00    +0.000 C 
ATOM     29  C   UNL     1      -0.006  13.512  19.517  0.00  0.00    +0.000 C 
ENDBRANCH   4  22
TORSDOF 4
ENDMDL
MODEL 8
REMARK VINA RESULT:      -8.7      1.430      2.408
REMARK  Name = 
REMARK  5 active torsions:
REMARK  status: ('A' for Active; 'I' for Inactive)
REMARK    1  A    between atoms: C_1  and  C_2
REMARK    2  A    between atoms: C_3  and  C_4
REMARK    3  A    between atoms: C_4  and  N_5
REMARK    4  A    between atoms: C_7  and  C_8
REMARK    5  A    between atoms: C_11  and  C_12
REMARK                            x       y       z     vdW  Elec       q    Type
REMARK                         _______ _______ _______ _____ _____    ______ ____
ROOT
ATOM      1  C   UNL     1       2.444   7.239  19.204  0.00  0.00    +0.000 A 
ATOM      2  C   UNL     1       2.314   7.826  17.942  0.00  0.00    +0.000 A 
ATOM      3  C   UNL     1       1.567   9.004  17.788  0.00  0.00    +0.000 A 
ATOM      4  C   UNL     1       0.934   9.602  18.895  0.00  0.00    +0.000 A 
ATOM      5  C   UNL     1       1.012   8.949  20.121  0.00  0.00    +0.000 A 
ATOM      6  F   UNL     1       0.283   9.338  21.176  0.00  0.00    +0.000 F 
ATOM      7  C   UNL     1       1.798   7.819  20.296  0.00  0.00    +0.000 A 
ENDROOT
BRANCH   1  10
ATOM      8  N   UNL     1       5.083   4.628  19.030  0.00  0.00    +0.000 N 
ATOM      9  C   UNL     1       4.395   5.838  18.960  0.00  0.00    +0.000 A 
ATOM     10  C   UNL     1       3.131   5.962  19.415  0.00  0.00    +0.000 A 
ATOM     11  N   UNL     1       2.516   4.840  19.966  0.00  0.00    +0.000 N 
ATOM     12  C   UNL     1       1.244   4.637  20.439  0.00  0.00    +0.000 A 
ATOM     13  N   UNL     1       1.073   3.409  20.878  0.00  0.00    +0.000 NA
ATOM     14  C   UNL     1       2.276   2.781  20.667  0.00  0.00    +0.000 A 
ATOM     15  C   UNL     1       3.175   3.641  20.083  0.00  0.00    +0.000 A 
ATOM     16  C   UNL     1       4.526   3.472  19.621  0.00  0.00    +0.000 A 
ATOM     17  O   UNL     1       5.132   2.409  19.714  0.00  0.00    +0.000 OA
BRANCH   8  18
ATOM     18  C   UNL     1       6.412   4.531  18.436  0.00  0.00    +0.000 C 
BRANCH  18  21
ATOM     19  C   UNL     1       7.980   8.017  17.658  0.00  0.00    +0.000 C 
ATOM     20  C   UNL     1       7.666   6.706  18.300  0.00  0.00    +0.000 C 
ATOM     21  C   UNL     1       6.771   5.839  17.797  0.00  0.00    +0.000 C 
ENDBRANCH  18  21
ENDBRANCH   8  18
ENDBRANCH   1  10
BRANCH   4  22
ATOM     22  C   UNL     1       0.117  10.827  18.685  0.00  0.00    +0.000 C 
ATOM     23  O   UNL     1       0.709  11.899  18.796  0.00  0.00    +0.000 OA
ATOM     24  N   UNL     1      -1.244  10.769  18.389  0.00  0.00    +0.000 N 
ATOM     25  C   UNL     1      -2.145   9.601  18.360  0.00  0.00    +0.000 C 
ATOM     26  C   UNL     1      -2.842   9.501  16.991  0.00  0.00    +0.000 C 
ATOM     27  O   UNL     1      -3.521  10.727  16.664  0.00  0.00    +0.000 OA
ATOM     28  C   UNL     1      -2.602  11.836  16.656  0.00  0.00    +0.000 C 
ATOM     29  C   UNL     1      -1.949  12.004  18.032  0.00  0.00    +0.000 C 
ENDBRANCH   4  22
TORSDOF 4
ENDMDL
MODEL 9
REMARK VINA RESULT:      -8.6      1.669      2.702
REMARK  Name = 
REMARK  5 active torsions:
REMARK  status: ('A' for Active; 'I' for Inactive)
REMARK    1  A    between atoms: C_1  and  C_2
REMARK    2  A    between atoms: C_3  and  C_4
REMARK    3  A    between atoms: C_4  and  N_5
REMARK    4  A    between atoms: C_7  and  C_8
REMARK    5  A    between atoms: C_11  and  C_12
REMARK                            x       y       z     vdW  Elec       q    Type
REMARK                         _______ _______ _______ _____ _____    ______ ____
ROOT
ATOM      1  C   UNL     1       2.485   7.178  19.185  0.00  0.00    +0.000 A 
ATOM      2  C   UNL     1       2.351   7.765  17.923  0.00  0.00    +0.000 A 
ATOM      3  C   UNL     1       1.622   8.955  17.774  0.00  0.00    +0.000 A 
ATOM      4  C   UNL     1       1.011   9.565  18.887  0.00  0.00    +0.000 A 
ATOM      5  C   UNL     1       1.091   8.913  20.113  0.00  0.00    +0.000 A 
ATOM      6  F   UNL     1       0.380   9.316  21.175  0.00  0.00    +0.000 F 
ATOM      7  C   UNL     1       1.861   7.770  20.282  0.00  0.00    +0.000 A 
ENDROOT
BRANCH   1  10
ATOM      8  N   UNL     1       5.067   4.514  18.964  0.00  0.00    +0.000 N 
ATOM      9  C   UNL     1       4.400   5.736  18.899  0.00  0.00    +0.000 A 
ATOM     10  C   UNL     1       3.154   5.891  19.391  0.00  0.00    +0.000 A 
ATOM     11  N   UNL     1       2.535   4.788  19.975  0.00  0.00    +0.000 N 
ATOM     12  C   UNL     1       1.274   4.616  20.488  0.00  0.00    +0.000 A 
ATOM     13  N   UNL     1       1.093   3.397  20.948  0.00  0.00    +0.000 NA
ATOM     14  C   UNL     1       2.276   2.743  20.709  0.00  0.00    +0.000 A 
ATOM     15  C   UNL     1       3.173   3.578  20.087  0.00  0.00    +0.000 A 
ATOM     16  C   UNL     1       4.506   3.377  19.586  0.00  0.00    +0.000 A 
ATOM     17  O   UNL     1       5.094   2.303  19.674  0.00  0.00    +0.000 OA
BRANCH   8  18
ATOM     18  C   UNL     1       6.375   4.383  18.331  0.00  0.00    +0.000 C 
BRANCH  18  21
ATOM     19  C   UNL     1       5.744   4.270  14.484  0.00  0.00    +0.000 C 
ATOM     20  C   UNL     1       5.812   3.902  15.929  0.00  0.00    +0.000 C 
ATOM     21  C   UNL     1       6.266   4.737  16.879  0.00  0.00    +0.000 C 
ENDBRANCH  18  21
ENDBRANCH   8  18
ENDBRANCH   1  10
BRANCH   4  22
ATOM     22  C   UNL     1       0.211  10.803  18.683  0.00  0.00    +0.000 C 
ATOM     23  O   UNL     1       0.824  11.865  18.775  0.00  0.00    +0.000 OA
ATOM     24  N   UNL     1      -1.156  10.767  18.413  0.00  0.00    +0.000 N 
ATOM     25  C   UNL     1      -2.078   9.615  18.409  0.00  0.00    +0.000 C 
ATOM     26  C   UNL     1      -2.801   9.518  17.054  0.00  0.00    +0.000 C 
ATOM     27  O   UNL     1      -3.465  10.753  16.731  0.00  0.00    +0.000 OA
ATOM     28  C   UNL     1      -2.527  11.845  16.698  0.00  0.00    +0.000 C 
ATOM     29  C   UNL     1      -1.845  12.011  18.060  0.00  0.00    +0.000 C 
ENDBRANCH   4  22
TORSDOF 4
ENDMDL
