MODEL 1
REMARK VINA RESULT:      -8.8      0.000      0.000
REMARK  Name = 
REMARK  7 active torsions:
REMARK  status: ('A' for Active; 'I' for Inactive)
REMARK    1  A    between atoms: C_2  and  C_3
REMARK    2  A    between atoms: C_3  and  O_4
REMARK    3  A    between atoms: O_4  and  C_5
REMARK    4  A    between atoms: C_5  and  C_6
REMARK    5  A    between atoms: C_8  and  C_9
REMARK    6  A    between atoms: N_18  and  C_19
REMARK    7  A    between atoms: C_23  and  C_24
REMARK                            x       y       z     vdW  Elec       q    Type
REMARK                         _______ _______ _______ _____ _____    ______ ____
ROOT
ATOM      1  C   UNL     1       7.385   4.686  16.533  0.00  0.00    +0.000 C 
ENDROOT
BRANCH   1   3
ATOM      2  O   UNL     1       6.580   4.302  18.743  0.00  0.00    +0.000 OA
ATOM      3  C   UNL     1       6.323   4.246  17.543  0.00  0.00    +0.000 C 
ATOM      4  N   UNL     1       5.139   3.794  16.984  0.00  0.00    +0.000 N 
ATOM      5  H   UNL     1       5.156   3.648  15.980  0.00  0.00    +0.000 HD
BRANCH   4   6
ATOM      6  C   UNL     1       3.960   3.462  17.694  0.00  0.00    +0.000 A 
ATOM      7  C   UNL     1       3.261   2.271  17.477  0.00  0.00    +0.000 A 
ATOM      8  C   UNL     1       2.114   1.959  18.209  0.00  0.00    +0.000 A 
ATOM      9  C   UNL     1       1.642   2.843  19.173  0.00  0.00    +0.000 A 
ATOM     10  C   UNL     1       2.320   4.045  19.419  0.00  0.00    +0.000 A 
ATOM     11  C   UNL     1       3.486   4.343  18.678  0.00  0.00    +0.000 A 
BRANCH  10  12
ATOM     12  C   UNL     1       1.803   5.009  20.459  0.00  0.00    +0.000 C 
ATOM     13  F   UNL     1       2.387   4.859  21.682  0.00  0.00    +0.000 F 
ATOM     14  F   UNL     1       2.005   6.310  20.108  0.00  0.00    +0.000 F 
ATOM     15  F   UNL     1       0.464   4.883  20.669  0.00  0.00    +0.000 F 
ENDBRANCH  10  12
ENDBRANCH   4   6
ENDBRANCH   1   3
BRANCH   1  16
ATOM     16  O   UNL     1       7.244   6.003  16.028  0.00  0.00    +0.000 OA
BRANCH  16  17
ATOM     17  C   UNL     1       6.529   6.826  16.974  0.00  0.00    +0.000 C 
BRANCH  17  18
ATOM     18  C   UNL     1       7.450   7.734  17.707  0.00  0.00    +0.000 A 
ATOM     19  C   UNL     1       7.619   9.119  17.515  0.00  0.00    +0.000 A 
ATOM     20  C   UNL     1       8.601   9.484  18.398  0.00  0.00    +0.000 A 
ATOM     21  O   UNL     1       8.984   8.379  19.103  0.00  0.00    +0.000 OA
ATOM     22  N   UNL     1       8.261   7.276  18.669  0.00  0.00    +0.000 NA
BRANCH  20  23
ATOM     23  C   UNL     1       9.279  10.740  18.684  0.00  0.00    +0.000 A 
ATOM     24  C   UNL     1      10.061  10.857  19.849  0.00  0.00    +0.000 A 
ATOM     25  C   UNL     1      10.688  12.060  20.174  0.00  0.00    +0.000 A 
ATOM     26  C   UNL     1      10.542  13.152  19.332  0.00  0.00    +0.000 A 
ATOM     27  F   UNL     1      11.131  14.312  19.651  0.00  0.00    +0.000 F 
ATOM     28  C   UNL     1       9.787  13.061  18.169  0.00  0.00    +0.000 A 
ATOM     29  C   UNL     1       9.158  11.856  17.844  0.00  0.00    +0.000 A 
ENDBRANCH  20  23
ENDBRANCH  17  18
ENDBRANCH  16  17
ENDBRANCH   1  16
TORSDOF 7
ENDMDL
MODEL 2
REMARK VINA RESULT:      -8.7      2.742      3.653
REMARK  Name = 
REMARK  7 active torsions:
REMARK  status: ('A' for Active; 'I' for Inactive)
REMARK    1  A    between atoms: C_2  and  C_3
REMARK    2  A    between atoms: C_3  and  O_4
REMARK    3  A    between atoms: O_4  and  C_5
REMARK    4  A    between atoms: C_5  and  C_6
REMARK    5  A    between atoms: C_8  and  C_9
REMARK    6  A    between atoms: N_18  and  C_19
REMARK    7  A    between atoms: C_23  and  C_24
REMARK                            x       y       z     vdW  Elec       q    Type
REMARK                         _______ _______ _______ _____ _____    ______ ____
ROOT
ATOM      1  C   UNL     1       4.706   3.977  18.681  0.00  0.00    +0.000 C 
ENDROOT
BRANCH   1   3
ATOM      2  O   UNL     1       2.649   4.664  17.694  0.00  0.00    +0.000 OA
ATOM      3  C   UNL     1       3.611   5.001  18.380  0.00  0.00    +0.000 C 
ATOM      4  N   UNL     1       3.828   6.261  18.914  0.00  0.00    +0.000 N 
ATOM      5  H   UNL     1       4.752   6.418  19.305  0.00  0.00    +0.000 HD
BRANCH   4   6
ATOM      6  C   UNL     1       2.912   7.338  18.898  0.00  0.00    +0.000 A 
ATOM      7  C   UNL     1       2.762   8.183  17.793  0.00  0.00    +0.000 A 
ATOM      8  C   UNL     1       1.833   9.224  17.796  0.00  0.00    +0.000 A 
ATOM      9  C   UNL     1       1.034   9.441  18.913  0.00  0.00    +0.000 A 
ATOM     10  C   UNL     1       1.155   8.612  20.037  0.00  0.00    +0.000 A 
ATOM     11  C   UNL     1       2.093   7.555  20.016  0.00  0.00    +0.000 A 
BRANCH  10  12
ATOM     12  C   UNL     1       0.295   8.853  21.254  0.00  0.00    +0.000 C 
ATOM     13  F   UNL     1      -0.512   7.801  21.571  0.00  0.00    +0.000 F 
ATOM     14  F   UNL     1       1.033   9.105  22.371  0.00  0.00    +0.000 F 
ATOM     15  F   UNL     1      -0.533   9.924  21.105  0.00  0.00    +0.000 F 
ENDBRANCH  10  12
ENDBRANCH   4   6
ENDBRANCH   1   3
BRANCH   1  16
ATOM     16  O   UNL     1       5.947   4.512  19.111  0.00  0.00    +0.000 OA
BRANCH  16  17
ATOM     17  C   UNL     1       6.824   4.704  17.980  0.00  0.00    +0.000 C 
BRANCH  17  18
ATOM     18  C   UNL     1       7.114   6.145  17.759  0.00  0.00    +0.000 A 
ATOM     19  C   UNL     1       7.978   6.969  18.508  0.00  0.00    +0.000 A 
ATOM     20  C   UNL     1       7.871   8.210  17.936  0.00  0.00    +0.000 A 
ATOM     21  O   UNL     1       7.007   8.129  16.882  0.00  0.00    +0.000 OA
ATOM     22  N   UNL     1       6.529   6.830  16.769  0.00  0.00    +0.000 NA
BRANCH  20  23
ATOM     23  C   UNL     1       8.449   9.510  18.241  0.00  0.00    +0.000 A 
ATOM     24  C   UNL     1       9.295   9.649  19.357  0.00  0.00    +0.000 A 
ATOM     25  C   UNL     1       9.830  10.890  19.702  0.00  0.00    +0.000 A 
ATOM     26  C   UNL     1       9.527  12.000  18.928  0.00  0.00    +0.000 A 
ATOM     27  F   UNL     1      10.028  13.195  19.266  0.00  0.00    +0.000 F 
ATOM     28  C   UNL     1       8.706  11.889  17.812  0.00  0.00    +0.000 A 
ATOM     29  C   UNL     1       8.168  10.645  17.468  0.00  0.00    +0.000 A 
ENDBRANCH  20  23
ENDBRANCH  17  18
ENDBRANCH  16  17
ENDBRANCH   1  16
TORSDOF 7
ENDMDL
MODEL 3
REMARK VINA RESULT:      -8.6      5.372      7.355
REMARK  Name = 
REMARK  7 active torsions:
REMARK  status: ('A' for Active; 'I' for Inactive)
REMARK    1  A    between atoms: C_2  and  C_3
REMARK    2  A    between atoms: C_3  and  O_4
REMARK    3  A    between atoms: O_4  and  C_5
REMARK    4  A    between atoms: C_5  and  C_6
REMARK    5  A    between atoms: C_8  and  C_9
REMARK    6  A    between atoms: N_18  and  C_19
REMARK    7  A    between atoms: C_23  and  C_24
REMARK                            x       y       z     vdW  Elec       q    Type
REMARK                         _______ _______ _______ _____ _____    ______ ____
ROOT
ATOM      1  C   UNL     1       2.624   2.089  18.736  0.00  0.00    +0.000 C 
ENDROOT
BRANCH   1   3
ATOM      2  O   UNL     1       2.451   3.272  16.675  0.00  0.00    +0.000 OA
ATOM      3  C   UNL     1       3.211   2.819  17.527  0.00  0.00    +0.000 C 
ATOM      4  N   UNL     1       4.595   2.883  17.500  0.00  0.00    +0.000 N 
ATOM      5  H   UNL     1       5.074   2.308  18.186  0.00  0.00    +0.000 HD
BRANCH   4   6
ATOM      6  C   UNL     1       5.373   3.613  16.572  0.00  0.00    +0.000 A 
ATOM      7  C   UNL     1       6.236   4.643  16.958  0.00  0.00    +0.000 A 
ATOM      8  C   UNL     1       7.010   5.332  16.023  0.00  0.00    +0.000 A 
ATOM      9  C   UNL     1       6.930   5.000  14.675  0.00  0.00    +0.000 A 
ATOM     10  C   UNL     1       6.079   3.970  14.252  0.00  0.00    +0.000 A 
ATOM     11  C   UNL     1       5.309   3.274  15.212  0.00  0.00    +0.000 A 
BRANCH  10  12
ATOM     12  C   UNL     1       5.986   3.616  12.788  0.00  0.00    +0.000 C 
ATOM     13  F   UNL     1       4.768   3.883  12.236  0.00  0.00    +0.000 F 
ATOM     14  F   UNL     1       6.893   4.292  12.030  0.00  0.00    +0.000 F 
ATOM     15  F   UNL     1       6.217   2.294  12.554  0.00  0.00    +0.000 F 
ENDBRANCH  10  12
ENDBRANCH   4   6
ENDBRANCH   1   3
BRANCH   1  16
ATOM     16  O   UNL     1       3.372   2.188  19.937  0.00  0.00    +0.000 OA
BRANCH  16  17
ATOM     17  C   UNL     1       2.736   3.112  20.846  0.00  0.00    +0.000 C 
BRANCH  17  18
ATOM     18  C   UNL     1       2.837   4.511  20.355  0.00  0.00    +0.000 A 
ATOM     19  C   UNL     1       1.837   5.503  20.385  0.00  0.00    +0.000 A 
ATOM     20  C   UNL     1       2.402   6.597  19.784  0.00  0.00    +0.000 A 
ATOM     21  O   UNL     1       3.684   6.286  19.434  0.00  0.00    +0.000 OA
ATOM     22  N   UNL     1       3.960   4.973  19.791  0.00  0.00    +0.000 NA
BRANCH  20  23
ATOM     23  C   UNL     1       1.912   7.927  19.453  0.00  0.00    +0.000 A 
ATOM     24  C   UNL     1       1.208   8.669  20.420  0.00  0.00    +0.000 A 
ATOM     25  C   UNL     1       0.687   9.928  20.121  0.00  0.00    +0.000 A 
ATOM     26  C   UNL     1       0.873  10.455  18.852  0.00  0.00    +0.000 A 
ATOM     27  F   UNL     1       0.360  11.657  18.558  0.00  0.00    +0.000 F 
ATOM     28  C   UNL     1       1.575   9.751  17.881  0.00  0.00    +0.000 A 
ATOM     29  C   UNL     1       2.095   8.488  18.181  0.00  0.00    +0.000 A 
ENDBRANCH  20  23
ENDBRANCH  17  18
ENDBRANCH  16  17
ENDBRANCH   1  16
TORSDOF 7
ENDMDL
MODEL 4
REMARK VINA RESULT:      -8.6      1.385      1.881
REMARK  Name = 
REMARK  7 active torsions:
REMARK  status: ('A' for Active; 'I' for Inactive)
REMARK    1  A    between atoms: C_2  and  C_3
REMARK    2  A    between atoms: C_3  and  O_4
REMARK    3  A    between atoms: O_4  and  C_5
REMARK    4  A    between atoms: C_5  and  C_6
REMARK    5  A    between atoms: C_8  and  C_9
REMARK    6  A    between atoms: N_18  and  C_19
REMARK    7  A    between atoms: C_23  and  C_24
REMARK                            x       y       z     vdW  Elec       q    Type
REMARK                         _______ _______ _______ _____ _____    ______ ____
ROOT
ATOM      1  C   UNL     1       7.305   4.902  16.893  0.00  0.00    +0.000 C 
ENDROOT
BRANCH   1   3
ATOM      2  O   UNL     1       6.807   4.621  19.205  0.00  0.00    +0.000 OA
ATOM      3  C   UNL     1       6.349   4.821  18.084  0.00  0.00    +0.000 C 
ATOM      4  N   UNL     1       5.008   4.968  17.765  0.00  0.00    +0.000 N 
ATOM      5  H   UNL     1       4.788   4.950  16.774  0.00  0.00    +0.000 HD
BRANCH   4   6
ATOM      6  C   UNL     1       3.943   5.069  18.690  0.00  0.00    +0.000 A 
ATOM      7  C   UNL     1       3.303   6.280  18.972  0.00  0.00    +0.000 A 
ATOM      8  C   UNL     1       2.238   6.346  19.873  0.00  0.00    +0.000 A 
ATOM      9  C   UNL     1       1.796   5.193  20.513  0.00  0.00    +0.000 A 
ATOM     10  C   UNL     1       2.412   3.962  20.251  0.00  0.00    +0.000 A 
ATOM     11  C   UNL     1       3.482   3.908  19.329  0.00  0.00    +0.000 A 
BRANCH  10  12
ATOM     12  C   UNL     1       1.938   2.712  20.953  0.00  0.00    +0.000 C 
ATOM     13  F   UNL     1       2.783   2.279  21.930  0.00  0.00    +0.000 F 
ATOM     14  F   UNL     1       0.728   2.881  21.556  0.00  0.00    +0.000 F 
ATOM     15  F   UNL     1       1.785   1.661  20.101  0.00  0.00    +0.000 F 
ENDBRANCH  10  12
ENDBRANCH   4   6
ENDBRANCH   1   3
BRANCH   1  16
ATOM     16  O   UNL     1       7.434   6.181  16.293  0.00  0.00    +0.000 OA
BRANCH  16  17
ATOM     17  C   UNL     1       6.706   7.165  17.059  0.00  0.00    +0.000 C 
BRANCH  17  18
ATOM     18  C   UNL     1       7.628   8.101  17.754  0.00  0.00    +0.000 A 
ATOM     19  C   UNL     1       7.815   9.472  17.491  0.00  0.00    +0.000 A 
ATOM     20  C   UNL     1       8.790   9.874  18.366  0.00  0.00    +0.000 A 
ATOM     21  O   UNL     1       9.151   8.804  19.134  0.00  0.00    +0.000 OA
ATOM     22  N   UNL     1       8.421   7.687  18.750  0.00  0.00    +0.000 NA
BRANCH  20  23
ATOM     23  C   UNL     1       9.479  11.135  18.594  0.00  0.00    +0.000 A 
ATOM     24  C   UNL     1      10.406  11.240  19.648  0.00  0.00    +0.000 A 
ATOM     25  C   UNL     1      11.050  12.447  19.920  0.00  0.00    +0.000 A 
ATOM     26  C   UNL     1      10.774  13.556  19.135  0.00  0.00    +0.000 A 
ATOM     27  F   UNL     1      11.381  14.719  19.404  0.00  0.00    +0.000 F 
ATOM     28  C   UNL     1       9.874  13.478  18.079  0.00  0.00    +0.000 A 
ATOM     29  C   UNL     1       9.227  12.269  17.808  0.00  0.00    +0.000 A 
ENDBRANCH  20  23
ENDBRANCH  17  18
ENDBRANCH  16  17
ENDBRANCH   1  16
TORSDOF 7
ENDMDL
MODEL 5
REMARK VINA RESULT:      -8.3      5.229      7.051
REMARK  Name = 
REMARK  7 active torsions:
REMARK  status: ('A' for Active; 'I' for Inactive)
REMARK    1  A    between atoms: C_2  and  C_3
REMARK    2  A    between atoms: C_3  and  O_4
REMARK    3  A    between atoms: O_4  and  C_5
REMARK    4  A    between atoms: C_5  and  C_6
REMARK    5  A    between atoms: C_8  and  C_9
REMARK    6  A    between atoms: N_18  and  C_19
REMARK    7  A    between atoms: C_23  and  C_24
REMARK                            x       y       z     vdW  Elec       q    Type
REMARK                         _______ _______ _______ _____ _____    ______ ____
ROOT
ATOM      1  C   UNL     1       2.998   3.915  19.950  0.00  0.00    +0.000 C 
ENDROOT
BRANCH   1   3
ATOM      2  O   UNL     1       1.893   4.996  18.137  0.00  0.00    +0.000 OA
ATOM      3  C   UNL     1       2.461   5.145  19.216  0.00  0.00    +0.000 C 
ATOM      4  N   UNL     1       2.693   6.352  19.855  0.00  0.00    +0.000 N 
ATOM      5  H   UNL     1       3.326   6.314  20.647  0.00  0.00    +0.000 HD
BRANCH   4   6
ATOM      6  C   UNL     1       2.184   7.611  19.458  0.00  0.00    +0.000 A 
ATOM      7  C   UNL     1       2.458   8.174  18.208  0.00  0.00    +0.000 A 
ATOM      8  C   UNL     1       1.923   9.407  17.834  0.00  0.00    +0.000 A 
ATOM      9  C   UNL     1       1.102  10.105  18.713  0.00  0.00    +0.000 A 
ATOM     10  C   UNL     1       0.804   9.570  19.974  0.00  0.00    +0.000 A 
ATOM     11  C   UNL     1       1.344   8.314  20.335  0.00  0.00    +0.000 A 
BRANCH  10  12
ATOM     12  C   UNL     1      -0.080  10.330  20.932  0.00  0.00    +0.000 C 
ATOM     13  F   UNL     1      -0.566   9.567  21.952  0.00  0.00    +0.000 F 
ATOM     14  F   UNL     1       0.570  11.371  21.524  0.00  0.00    +0.000 F 
ATOM     15  F   UNL     1      -1.170  10.871  20.321  0.00  0.00    +0.000 F 
ENDBRANCH  10  12
ENDBRANCH   4   6
ENDBRANCH   1   3
BRANCH   1  16
ATOM     16  O   UNL     1       4.200   3.367  19.435  0.00  0.00    +0.000 OA
BRANCH  16  17
ATOM     17  C   UNL     1       5.275   4.324  19.557  0.00  0.00    +0.000 C 
BRANCH  17  18
ATOM     18  C   UNL     1       6.038   4.445  18.287  0.00  0.00    +0.000 A 
ATOM     19  C   UNL     1       5.522   4.449  16.975  0.00  0.00    +0.000 A 
ATOM     20  C   UNL     1       6.620   4.543  16.161  0.00  0.00    +0.000 A 
ATOM     21  O   UNL     1       7.736   4.617  16.944  0.00  0.00    +0.000 OA
ATOM     22  N   UNL     1       7.372   4.555  18.282  0.00  0.00    +0.000 NA
BRANCH  20  23
ATOM     23  C   UNL     1       6.803   4.552  14.717  0.00  0.00    +0.000 A 
ATOM     24  C   UNL     1       6.042   3.681  13.915  0.00  0.00    +0.000 A 
ATOM     25  C   UNL     1       6.224   3.634  12.533  0.00  0.00    +0.000 A 
ATOM     26  C   UNL     1       7.166   4.463  11.943  0.00  0.00    +0.000 A 
ATOM     27  F   UNL     1       7.352   4.408  10.618  0.00  0.00    +0.000 F 
ATOM     28  C   UNL     1       7.921   5.343  12.709  0.00  0.00    +0.000 A 
ATOM     29  C   UNL     1       7.740   5.388  14.094  0.00  0.00    +0.000 A 
ENDBRANCH  20  23
ENDBRANCH  17  18
ENDBRANCH  16  17
ENDBRANCH   1  16
TORSDOF 7
ENDMDL
MODEL 6
REMARK VINA RESULT:      -8.2      3.541      5.618
REMARK  Name = 
REMARK  7 active torsions:
REMARK  status: ('A' for Active; 'I' for Inactive)
REMARK    1  A    between atoms: C_2  and  C_3
REMARK    2  A    between atoms: C_3  and  O_4
REMARK    3  A    between atoms: O_4  and  C_5
REMARK    4  A    between atoms: C_5  and  C_6
REMARK    5  A    between atoms: C_8  and  C_9
REMARK    6  A    between atoms: N_18  and  C_19
REMARK    7  A    between atoms: C_23  and  C_24
REMARK                            x       y       z     vdW  Elec       q    Type
REMARK                         _______ _______ _______ _____ _____    ______ ____
ROOT
ATOM      1  C   UNL     1       0.992   2.254  18.697  0.00  0.00    +0.000 C 
ENDROOT
BRANCH   1   3
ATOM      2  O   UNL     1       0.968   4.108  17.200  0.00  0.00    +0.000 OA
ATOM      3  C   UNL     1       1.196   3.729  18.346  0.00  0.00    +0.000 C 
ATOM      4  N   UNL     1       1.653   4.518  19.389  0.00  0.00    +0.000 N 
ATOM      5  H   UNL     1       1.956   4.017  20.218  0.00  0.00    +0.000 HD
BRANCH   4   6
ATOM      6  C   UNL     1       1.790   5.926  19.365  0.00  0.00    +0.000 A 
ATOM      7  C   UNL     1       2.344   6.610  18.278  0.00  0.00    +0.000 A 
ATOM      8  C   UNL     1       2.446   8.002  18.272  0.00  0.00    +0.000 A 
ATOM      9  C   UNL     1       1.994   8.738  19.362  0.00  0.00    +0.000 A 
ATOM     10  C   UNL     1       1.430   8.086  20.467  0.00  0.00    +0.000 A 
ATOM     11  C   UNL     1       1.323   6.676  20.455  0.00  0.00    +0.000 A 
BRANCH  10  12
ATOM     12  C   UNL     1       0.948   8.883  21.654  0.00  0.00    +0.000 C 
ATOM     13  F   UNL     1       1.921   9.137  22.575  0.00  0.00    +0.000 F 
ATOM     14  F   UNL     1       0.448  10.099  21.296  0.00  0.00    +0.000 F 
ATOM     15  F   UNL     1      -0.051   8.255  22.334  0.00  0.00    +0.000 F 
ENDBRANCH  10  12
ENDBRANCH   4   6
ENDBRANCH   1   3
BRANCH   1  16
ATOM     16  O   UNL     1       2.123   1.588  19.233  0.00  0.00    +0.000 OA
BRANCH  16  17
ATOM     17  C   UNL     1       3.220   1.635  18.295  0.00  0.00    +0.000 C 
BRANCH  17  18
ATOM     18  C   UNL     1       4.181   2.714  18.640  0.00  0.00    +0.000 A 
ATOM     19  C   UNL     1       4.565   3.808  17.839  0.00  0.00    +0.000 A 
ATOM     20  C   UNL     1       5.495   4.486  18.582  0.00  0.00    +0.000 A 
ATOM     21  O   UNL     1       5.642   3.847  19.780  0.00  0.00    +0.000 OA
ATOM     22  N   UNL     1       4.817   2.731  19.818  0.00  0.00    +0.000 NA
BRANCH  20  23
ATOM     23  C   UNL     1       6.313   5.665  18.337  0.00  0.00    +0.000 A 
ATOM     24  C   UNL     1       5.918   6.592  17.354  0.00  0.00    +0.000 A 
ATOM     25  C   UNL     1       6.702   7.708  17.064  0.00  0.00    +0.000 A 
ATOM     26  C   UNL     1       7.884   7.908  17.761  0.00  0.00    +0.000 A 
ATOM     27  F   UNL     1       8.646   8.971  17.473  0.00  0.00    +0.000 F 
ATOM     28  C   UNL     1       8.291   7.016  18.746  0.00  0.00    +0.000 A 
ATOM     29  C   UNL     1       7.506   5.896  19.035  0.00  0.00    +0.000 A 
ENDBRANCH  20  23
ENDBRANCH  17  18
ENDBRANCH  16  17
ENDBRANCH   1  16
TORSDOF 7
ENDMDL
MODEL 7
REMARK VINA RESULT:      -8.1      4.471      7.247
REMARK  Name = 
REMARK  7 active torsions:
REMARK  status: ('A' for Active; 'I' for Inactive)
REMARK    1  A    between atoms: C_2  and  C_3
REMARK    2  A    between atoms: C_3  and  O_4
REMARK    3  A    between atoms: O_4  and  C_5
REMARK    4  A    between atoms: C_5  and  C_6
REMARK    5  A    between atoms: C_8  and  C_9
REMARK    6  A    between atoms: N_18  and  C_19
REMARK    7  A    between atoms: C_23  and  C_24
REMARK                            x       y       z     vdW  Elec       q    Type
REMARK                         _______ _______ _______ _____ _____    ______ ____
ROOT
ATOM      1  C   UNL     1       2.533   2.837  20.045  0.00  0.00    +0.000 C 
ENDROOT
BRANCH   1   3
ATOM      2  O   UNL     1       4.907   2.698  19.895  0.00  0.00    +0.000 OA
ATOM      3  C   UNL     1       3.887   3.206  19.437  0.00  0.00    +0.000 C 
ATOM      4  N   UNL     1       3.830   4.126  18.402  0.00  0.00    +0.000 N 
ATOM      5  H   UNL     1       2.931   4.576  18.265  0.00  0.00    +0.000 HD
BRANCH   4   6
ATOM      6  C   UNL     1       4.915   4.526  17.587  0.00  0.00    +0.000 A 
ATOM      7  C   UNL     1       5.262   3.854  16.411  0.00  0.00    +0.000 A 
ATOM      8  C   UNL     1       6.324   4.286  15.615  0.00  0.00    +0.000 A 
ATOM      9  C   UNL     1       7.064   5.402  15.987  0.00  0.00    +0.000 A 
ATOM     10  C   UNL     1       6.742   6.102  17.158  0.00  0.00    +0.000 A 
ATOM     11  C   UNL     1       5.658   5.660  17.949  0.00  0.00    +0.000 A 
BRANCH  10  12
ATOM     12  C   UNL     1       7.551   7.309  17.567  0.00  0.00    +0.000 C 
ATOM     13  F   UNL     1       8.406   7.749  16.601  0.00  0.00    +0.000 F 
ATOM     14  F   UNL     1       6.767   8.377  17.883  0.00  0.00    +0.000 F 
ATOM     15  F   UNL     1       8.321   7.074  18.665  0.00  0.00    +0.000 F 
ENDBRANCH  10  12
ENDBRANCH   4   6
ENDBRANCH   1   3
BRANCH   1  16
ATOM     16  O   UNL     1       1.575   3.882  20.092  0.00  0.00    +0.000 OA
BRANCH  16  17
ATOM     17  C   UNL     1       1.958   4.864  21.078  0.00  0.00    +0.000 C 
BRANCH  17  18
ATOM     18  C   UNL     1       1.847   6.245  20.538  0.00  0.00    +0.000 A 
ATOM     19  C   UNL     1       1.070   7.304  21.048  0.00  0.00    +0.000 A 
ATOM     20  C   UNL     1       1.277   8.346  20.183  0.00  0.00    +0.000 A 
ATOM     21  O   UNL     1       2.153   7.942  19.217  0.00  0.00    +0.000 OA
ATOM     22  N   UNL     1       2.514   6.619  19.439  0.00  0.00    +0.000 NA
BRANCH  20  23
ATOM     23  C   UNL     1       0.751   9.701  20.098  0.00  0.00    +0.000 A 
ATOM     24  C   UNL     1       0.124  10.129  18.912  0.00  0.00    +0.000 A 
ATOM     25  C   UNL     1      -0.351  11.433  18.782  0.00  0.00    +0.000 A 
ATOM     26  C   UNL     1      -0.208  12.317  19.841  0.00  0.00    +0.000 A 
ATOM     27  F   UNL     1      -0.650  13.575  19.712  0.00  0.00    +0.000 F 
ATOM     28  C   UNL     1       0.394  11.918  21.028  0.00  0.00    +0.000 A 
ATOM     29  C   UNL     1       0.872  10.611  21.157  0.00  0.00    +0.000 A 
ENDBRANCH  20  23
ENDBRANCH  17  18
ENDBRANCH  16  17
ENDBRANCH   1  16
TORSDOF 7
ENDMDL
MODEL 8
REMARK VINA RESULT:      -8.0      2.118      9.586
REMARK  Name = 
REMARK  7 active torsions:
REMARK  status: ('A' for Active; 'I' for Inactive)
REMARK    1  A    between atoms: C_2  and  C_3
REMARK    2  A    between atoms: C_3  and  O_4
REMARK    3  A    between atoms: O_4  and  C_5
REMARK    4  A    between atoms: C_5  and  C_6
REMARK    5  A    between atoms: C_8  and  C_9
REMARK    6  A    between atoms: N_18  and  C_19
REMARK    7  A    between atoms: C_23  and  C_24
REMARK                            x       y       z     vdW  Elec       q    Type
REMARK                         _______ _______ _______ _____ _____    ______ ____
ROOT
ATOM      1  C   UNL     1       7.985   7.515  18.205  0.00  0.00    +0.000 C 
ENDROOT
BRANCH   1   3
ATOM      2  O   UNL     1       7.790   9.788  17.520  0.00  0.00    +0.000 OA
ATOM      3  C   UNL     1       8.335   9.001  18.289  0.00  0.00    +0.000 C 
ATOM      4  N   UNL     1       9.282   9.323  19.248  0.00  0.00    +0.000 N 
ATOM      5  H   UNL     1       9.758   8.536  19.677  0.00  0.00    +0.000 HD
BRANCH   4   6
ATOM      6  C   UNL     1       9.675  10.631  19.618  0.00  0.00    +0.000 A 
ATOM      7  C   UNL     1      10.618  11.367  18.894  0.00  0.00    +0.000 A 
ATOM      8  C   UNL     1      10.970  12.664  19.269  0.00  0.00    +0.000 A 
ATOM      9  C   UNL     1      10.383  13.250  20.385  0.00  0.00    +0.000 A 
ATOM     10  C   UNL     1       9.431  12.543  21.133  0.00  0.00    +0.000 A 
ATOM     11  C   UNL     1       9.076  11.233  20.735  0.00  0.00    +0.000 A 
BRANCH  10  12
ATOM     12  C   UNL     1       8.799  13.174  22.349  0.00  0.00    +0.000 C 
ATOM     13  F   UNL     1       8.580  12.297  23.370  0.00  0.00    +0.000 F 
ATOM     14  F   UNL     1       9.565  14.171  22.875  0.00  0.00    +0.000 F 
ATOM     15  F   UNL     1       7.589  13.737  22.077  0.00  0.00    +0.000 F 
ENDBRANCH  10  12
ENDBRANCH   4   6
ENDBRANCH   1   3
BRANCH   1  16
ATOM     16  O   UNL     1       7.792   7.002  16.897  0.00  0.00    +0.000 OA
BRANCH  16  17
ATOM     17  C   UNL     1       6.384   6.962  16.580  0.00  0.00    +0.000 C 
BRANCH  17  18
ATOM     18  C   UNL     1       5.694   5.871  17.319  0.00  0.00    +0.000 A 
ATOM     19  C   UNL     1       4.619   5.995  18.220  0.00  0.00    +0.000 A 
ATOM     20  C   UNL     1       4.372   4.721  18.659  0.00  0.00    +0.000 A 
ATOM     21  O   UNL     1       5.238   3.871  18.032  0.00  0.00    +0.000 OA
ATOM     22  N   UNL     1       6.072   4.593  17.189  0.00  0.00    +0.000 NA
BRANCH  20  23
ATOM     23  C   UNL     1       3.438   4.151  19.619  0.00  0.00    +0.000 A 
ATOM     24  C   UNL     1       3.781   2.970  20.304  0.00  0.00    +0.000 A 
ATOM     25  C   UNL     1       2.892   2.375  21.198  0.00  0.00    +0.000 A 
ATOM     26  C   UNL     1       1.654   2.962  21.417  0.00  0.00    +0.000 A 
ATOM     27  F   UNL     1       0.793   2.383  22.264  0.00  0.00    +0.000 F 
ATOM     28  C   UNL     1       1.295   4.135  20.765  0.00  0.00    +0.000 A 
ATOM     29  C   UNL     1       2.186   4.730  19.868  0.00  0.00    +0.000 A 
ENDBRANCH  20  23
ENDBRANCH  17  18
ENDBRANCH  16  17
ENDBRANCH   1  16
TORSDOF 7
ENDMDL
MODEL 9
REMARK VINA RESULT:      -8.0      5.747      7.463
REMARK  Name = 
REMARK  7 active torsions:
REMARK  status: ('A' for Active; 'I' for Inactive)
REMARK    1  A    between atoms: C_2  and  C_3
REMARK    2  A    between atoms: C_3  and  O_4
REMARK    3  A    between atoms: O_4  and  C_5
REMARK    4  A    between atoms: C_5  and  C_6
REMARK    5  A    between atoms: C_8  and  C_9
REMARK    6  A    between atoms: N_18  and  C_19
REMARK    7  A    between atoms: C_23  and  C_24
REMARK                            x       y       z     vdW  Elec       q    Type
REMARK                         _______ _______ _______ _____ _____    ______ ____
ROOT
ATOM      1  C   UNL     1       1.906   2.481  19.565  0.00  0.00    +0.000 C 
ENDROOT
BRANCH   1   3
ATOM      2  O   UNL     1       4.255   2.131  19.759  0.00  0.00    +0.000 OA
ATOM      3  C   UNL     1       3.364   2.754  19.188  0.00  0.00    +0.000 C 
ATOM      4  N   UNL     1       3.542   3.725  18.216  0.00  0.00    +0.000 N 
ATOM      5  H   UNL     1       2.715   4.263  17.977  0.00  0.00    +0.000 HD
BRANCH   4   6
ATOM      6  C   UNL     1       4.769   4.064  17.598  0.00  0.00    +0.000 A 
ATOM      7  C   UNL     1       5.896   4.458  18.327  0.00  0.00    +0.000 A 
ATOM      8  C   UNL     1       7.100   4.764  17.692  0.00  0.00    +0.000 A 
ATOM      9  C   UNL     1       7.197   4.683  16.307  0.00  0.00    +0.000 A 
ATOM     10  C   UNL     1       6.089   4.288  15.546  0.00  0.00    +0.000 A 
ATOM     11  C   UNL     1       4.878   3.971  16.203  0.00  0.00    +0.000 A 
BRANCH  10  12
ATOM     12  C   UNL     1       6.190   4.210  14.042  0.00  0.00    +0.000 C 
ATOM     13  F   UNL     1       5.052   4.590  13.395  0.00  0.00    +0.000 F 
ATOM     14  F   UNL     1       7.182   5.001  13.545  0.00  0.00    +0.000 F 
ATOM     15  F   UNL     1       6.463   2.950  13.602  0.00  0.00    +0.000 F 
ENDBRANCH  10  12
ENDBRANCH   4   6
ENDBRANCH   1   3
BRANCH   1  16
ATOM     16  O   UNL     1       1.159   3.610  19.987  0.00  0.00    +0.000 OA
BRANCH  16  17
ATOM     17  C   UNL     1       1.942   4.414  20.895  0.00  0.00    +0.000 C 
BRANCH  17  18
ATOM     18  C   UNL     1       1.884   5.854  20.531  0.00  0.00    +0.000 A 
ATOM     19  C   UNL     1       1.108   6.860  21.139  0.00  0.00    +0.000 A 
ATOM     20  C   UNL     1       1.374   7.998  20.423  0.00  0.00    +0.000 A 
ATOM     21  O   UNL     1       2.284   7.695  19.451  0.00  0.00    +0.000 OA
ATOM     22  N   UNL     1       2.606   6.346  19.516  0.00  0.00    +0.000 NA
BRANCH  20  23
ATOM     23  C   UNL     1       0.882   9.366  20.489  0.00  0.00    +0.000 A 
ATOM     24  C   UNL     1       0.423   9.880  21.716  0.00  0.00    +0.000 A 
ATOM     25  C   UNL     1      -0.096  11.172  21.804  0.00  0.00    +0.000 A 
ATOM     26  C   UNL     1      -0.154  11.960  20.664  0.00  0.00    +0.000 A 
ATOM     27  F   UNL     1      -0.666  13.195  20.743  0.00  0.00    +0.000 F 
ATOM     28  C   UNL     1       0.305  11.482  19.442  0.00  0.00    +0.000 A 
ATOM     29  C   UNL     1       0.823  10.187  19.354  0.00  0.00    +0.000 A 
ENDBRANCH  20  23
ENDBRANCH  17  18
ENDBRANCH  16  17
ENDBRANCH   1  16
TORSDOF 7
ENDMDL
