MODEL 1
REMARK VINA RESULT:      -8.4      0.000      0.000
REMARK  Name = 
REMARK  4 active torsions:
REMARK  status: ('A' for Active; 'I' for Inactive)
REMARK    1  A    between atoms: C_1  and  C_2
REMARK    2  A    between atoms: N_6  and  C_7
REMARK    3  A    between atoms: C_14  and  C_15
REMARK    4  A    between atoms: C_19  and  C_20
REMARK                            x       y       z     vdW  Elec       q    Type
REMARK                         _______ _______ _______ _____ _____    ______ ____
ROOT
ATOM      1  C   UNL     1       4.361   4.219  19.070  0.00  0.00    +0.000 A 
ATOM      2  N   UNL     1       5.024   3.058  19.356  0.00  0.00    +0.000 NA
ATOM      3  C   UNL     1       4.505   2.164  20.211  0.00  0.00    +0.000 A 
ATOM      4  N   UNL     1       3.346   2.252  20.872  0.00  0.00    +0.000 NA
ATOM      5  C   UNL     1       2.736   3.417  20.626  0.00  0.00    +0.000 A 
ATOM      6  N   UNL     1       1.533   3.746  21.182  0.00  0.00    +0.000 N 
ATOM      7  C   UNL     1       1.184   5.012  20.815  0.00  0.00    +0.000 A 
ATOM      8  C   UNL     1       2.174   5.520  19.990  0.00  0.00    +0.000 A 
ATOM      9  C   UNL     1       3.156   4.463  19.804  0.00  0.00    +0.000 A 
ATOM     10  H   UNL     1       1.007   3.129  21.784  0.00  0.00    +0.000 HD
ENDROOT
BRANCH   1  16
ATOM     11  C   UNL     1       8.001   4.601  17.897  0.00  0.00    +0.000 C 
ATOM     12  C   UNL     1       7.180   5.830  17.500  0.00  0.00    +0.000 C 
ATOM     13  C   UNL     1       6.770   5.773  16.021  0.00  0.00    +0.000 C 
ATOM     14  C   UNL     1       5.744   4.678  15.774  0.00  0.00    +0.000 C 
ATOM     15  C   UNL     1       4.543   4.874  16.678  0.00  0.00    +0.000 C 
ATOM     16  N   UNL     1       4.908   5.013  18.077  0.00  0.00    +0.000 N 
ATOM     17  C   UNL     1       5.948   5.990  18.410  0.00  0.00    +0.000 C 
ENDBRANCH   1  16
BRANCH   8  18
ATOM     18  C   UNL     1       2.099   6.897  19.497  0.00  0.00    +0.000 A 
ATOM     19  C   UNL     1       2.439   7.190  18.169  0.00  0.00    +0.000 A 
ATOM     20  C   UNL     1       2.192   8.459  17.628  0.00  0.00    +0.000 A 
ATOM     21  C   UNL     1       1.699   9.480  18.437  0.00  0.00    +0.000 A 
ATOM     22  C   UNL     1       1.461   9.237  19.792  0.00  0.00    +0.000 A 
ATOM     23  C   UNL     1       1.642   7.950  20.308  0.00  0.00    +0.000 A 
ATOM     24  F   UNL     1       1.337   7.729  21.598  0.00  0.00    +0.000 F 
BRANCH  22  25
ATOM     25  C   UNL     1       1.025  10.297  20.645  0.00  0.00    +0.000 C 
ATOM     26  N   UNL     1       0.696  11.144  21.372  0.00  0.00    +0.000 NA
ENDBRANCH  22  25
ENDBRANCH   8  18
TORSDOF 3
ENDMDL
MODEL 2
REMARK VINA RESULT:      -7.4      2.029      4.555
REMARK  Name = 
REMARK  4 active torsions:
REMARK  status: ('A' for Active; 'I' for Inactive)
REMARK    1  A    between atoms: C_1  and  C_2
REMARK    2  A    between atoms: N_6  and  C_7
REMARK    3  A    between atoms: C_14  and  C_15
REMARK    4  A    between atoms: C_19  and  C_20
REMARK                            x       y       z     vdW  Elec       q    Type
REMARK                         _______ _______ _______ _____ _____    ______ ____
ROOT
ATOM      1  C   UNL     1       3.444   4.529  18.339  0.00  0.00    +0.000 A 
ATOM      2  N   UNL     1       3.991   3.455  17.693  0.00  0.00    +0.000 NA
ATOM      3  C   UNL     1       4.821   3.627  16.655  0.00  0.00    +0.000 A 
ATOM      4  N   UNL     1       5.222   4.786  16.122  0.00  0.00    +0.000 NA
ATOM      5  C   UNL     1       4.637   5.825  16.726  0.00  0.00    +0.000 A 
ATOM      6  N   UNL     1       4.884   7.119  16.363  0.00  0.00    +0.000 N 
ATOM      7  C   UNL     1       4.103   7.963  17.097  0.00  0.00    +0.000 A 
ATOM      8  C   UNL     1       3.335   7.208  17.967  0.00  0.00    +0.000 A 
ATOM      9  C   UNL     1       3.726   5.817  17.783  0.00  0.00    +0.000 A 
ATOM     10  H   UNL     1       5.544   7.382  15.646  0.00  0.00    +0.000 HD
ENDROOT
BRANCH   1  16
ATOM     11  C   UNL     1       0.793   1.831  19.017  0.00  0.00    +0.000 C 
ATOM     12  C   UNL     1       0.640   2.991  20.004  0.00  0.00    +0.000 C 
ATOM     13  C   UNL     1       1.254   2.647  21.369  0.00  0.00    +0.000 C 
ATOM     14  C   UNL     1       2.770   2.568  21.287  0.00  0.00    +0.000 C 
ATOM     15  C   UNL     1       3.333   3.862  20.732  0.00  0.00    +0.000 C 
ATOM     16  N   UNL     1       2.711   4.255  19.480  0.00  0.00    +0.000 N 
ATOM     17  C   UNL     1       1.246   4.286  19.434  0.00  0.00    +0.000 C 
ENDBRANCH   1  16
BRANCH   8  18
ATOM     18  C   UNL     1       2.344   7.848  18.835  0.00  0.00    +0.000 A 
ATOM     19  C   UNL     1       2.142   7.380  20.141  0.00  0.00    +0.000 A 
ATOM     20  C   UNL     1       1.344   8.094  21.044  0.00  0.00    +0.000 A 
ATOM     21  C   UNL     1       0.654   9.228  20.622  0.00  0.00    +0.000 A 
ATOM     22  C   UNL     1       0.753   9.645  19.292  0.00  0.00    +0.000 A 
ATOM     23  C   UNL     1       1.607   8.970  18.416  0.00  0.00    +0.000 A 
ATOM     24  F   UNL     1       1.738   9.436  17.162  0.00  0.00    +0.000 F 
BRANCH  22  25
ATOM     25  C   UNL     1      -0.008  10.763  18.833  0.00  0.00    +0.000 C 
ATOM     26  N   UNL     1      -0.645  11.679  18.499  0.00  0.00    +0.000 NA
ENDBRANCH  22  25
ENDBRANCH   8  18
TORSDOF 3
ENDMDL
MODEL 3
REMARK VINA RESULT:      -7.2      2.188      6.044
REMARK  Name = 
REMARK  4 active torsions:
REMARK  status: ('A' for Active; 'I' for Inactive)
REMARK    1  A    between atoms: C_1  and  C_2
REMARK    2  A    between atoms: N_6  and  C_7
REMARK    3  A    between atoms: C_14  and  C_15
REMARK    4  A    between atoms: C_19  and  C_20
REMARK                            x       y       z     vdW  Elec       q    Type
REMARK                         _______ _______ _______ _____ _____    ______ ____
ROOT
ATOM      1  C   UNL     1       1.862   6.312  20.403  0.00  0.00    +0.000 A 
ATOM      2  N   UNL     1       1.189   7.042  21.343  0.00  0.00    +0.000 NA
ATOM      3  C   UNL     1       0.931   8.343  21.148  0.00  0.00    +0.000 A 
ATOM      4  N   UNL     1       1.260   9.083  20.084  0.00  0.00    +0.000 NA
ATOM      5  C   UNL     1       1.964   8.372  19.198  0.00  0.00    +0.000 A 
ATOM      6  N   UNL     1       2.417   8.904  18.024  0.00  0.00    +0.000 N 
ATOM      7  C   UNL     1       3.161   7.979  17.352  0.00  0.00    +0.000 A 
ATOM      8  C   UNL     1       3.187   6.810  18.096  0.00  0.00    +0.000 A 
ATOM      9  C   UNL     1       2.352   7.033  19.268  0.00  0.00    +0.000 A 
ATOM     10  H   UNL     1       2.226   9.850  17.728  0.00  0.00    +0.000 HD
ENDROOT
BRANCH   1  16
ATOM     11  C   UNL     1       0.937   3.326  18.168  0.00  0.00    +0.000 C 
ATOM     12  C   UNL     1       0.977   2.901  19.638  0.00  0.00    +0.000 C 
ATOM     13  C   UNL     1       2.286   2.171  19.972  0.00  0.00    +0.000 C 
ATOM     14  C   UNL     1       3.473   3.122  19.938  0.00  0.00    +0.000 C 
ATOM     15  C   UNL     1       3.233   4.291  20.873  0.00  0.00    +0.000 C 
ATOM     16  N   UNL     1       1.961   4.951  20.633  0.00  0.00    +0.000 N 
ATOM     17  C   UNL     1       0.764   4.108  20.570  0.00  0.00    +0.000 C 
ENDBRANCH   1  16
BRANCH   8  18
ATOM     18  C   UNL     1       3.975   5.659  17.650  0.00  0.00    +0.000 A 
ATOM     19  C   UNL     1       3.375   4.643  16.894  0.00  0.00    +0.000 A 
ATOM     20  C   UNL     1       4.149   3.638  16.300  0.00  0.00    +0.000 A 
ATOM     21  C   UNL     1       5.520   3.578  16.538  0.00  0.00    +0.000 A 
ATOM     22  C   UNL     1       6.119   4.517  17.382  0.00  0.00    +0.000 A 
ATOM     23  C   UNL     1       5.352   5.559  17.914  0.00  0.00    +0.000 A 
ATOM     24  F   UNL     1       5.968   6.489  18.663  0.00  0.00    +0.000 F 
BRANCH  22  25
ATOM     25  C   UNL     1       7.509   4.420  17.691  0.00  0.00    +0.000 C 
ATOM     26  N   UNL     1       8.639   4.296  17.943  0.00  0.00    +0.000 NA
ENDBRANCH  22  25
ENDBRANCH   8  18
TORSDOF 3
ENDMDL
MODEL 4
REMARK VINA RESULT:      -7.2      2.153      5.827
REMARK  Name = 
REMARK  4 active torsions:
REMARK  status: ('A' for Active; 'I' for Inactive)
REMARK    1  A    between atoms: C_1  and  C_2
REMARK    2  A    between atoms: N_6  and  C_7
REMARK    3  A    between atoms: C_14  and  C_15
REMARK    4  A    between atoms: C_19  and  C_20
REMARK                            x       y       z     vdW  Elec       q    Type
REMARK                         _______ _______ _______ _____ _____    ______ ____
ROOT
ATOM      1  C   UNL     1       2.280   5.911  19.646  0.00  0.00    +0.000 A 
ATOM      2  N   UNL     1       1.477   6.147  20.727  0.00  0.00    +0.000 NA
ATOM      3  C   UNL     1       0.998   7.375  20.972  0.00  0.00    +0.000 A 
ATOM      4  N   UNL     1       1.208   8.484  20.255  0.00  0.00    +0.000 NA
ATOM      5  C   UNL     1       2.039   8.250  19.233  0.00  0.00    +0.000 A 
ATOM      6  N   UNL     1       2.408   9.226  18.351  0.00  0.00    +0.000 N 
ATOM      7  C   UNL     1       3.311   8.726  17.460  0.00  0.00    +0.000 A 
ATOM      8  C   UNL     1       3.531   7.391  17.757  0.00  0.00    +0.000 A 
ATOM      9  C   UNL     1       2.653   7.052  18.868  0.00  0.00    +0.000 A 
ATOM     10  H   UNL     1       2.059  10.172  18.385  0.00  0.00    +0.000 HD
ENDROOT
BRANCH   1  16
ATOM     11  C   UNL     1       1.470   2.722  21.632  0.00  0.00    +0.000 C 
ATOM     12  C   UNL     1       2.690   2.497  20.735  0.00  0.00    +0.000 C 
ATOM     13  C   UNL     1       2.311   1.730  19.461  0.00  0.00    +0.000 C 
ATOM     14  C   UNL     1       1.456   2.582  18.536  0.00  0.00    +0.000 C 
ATOM     15  C   UNL     1       2.169   3.881  18.214  0.00  0.00    +0.000 C 
ATOM     16  N   UNL     1       2.612   4.590  19.402  0.00  0.00    +0.000 N 
ATOM     17  C   UNL     1       3.379   3.831  20.394  0.00  0.00    +0.000 C 
ENDBRANCH   1  16
BRANCH   8  18
ATOM     18  C   UNL     1       4.514   6.610  17.002  0.00  0.00    +0.000 A 
ATOM     19  C   UNL     1       4.445   6.551  15.604  0.00  0.00    +0.000 A 
ATOM     20  C   UNL     1       5.480   5.972  14.858  0.00  0.00    +0.000 A 
ATOM     21  C   UNL     1       6.547   5.354  15.505  0.00  0.00    +0.000 A 
ATOM     22  C   UNL     1       6.576   5.303  16.902  0.00  0.00    +0.000 A 
ATOM     23  C   UNL     1       5.576   5.945  17.639  0.00  0.00    +0.000 A 
ATOM     24  F   UNL     1       5.667   5.942  18.980  0.00  0.00    +0.000 F 
BRANCH  22  25
ATOM     25  C   UNL     1       7.627   4.607  17.573  0.00  0.00    +0.000 C 
ATOM     26  N   UNL     1       8.512   4.072  18.107  0.00  0.00    +0.000 NA
ENDBRANCH  22  25
ENDBRANCH   8  18
TORSDOF 3
ENDMDL
MODEL 5
REMARK VINA RESULT:      -7.1      2.237      4.504
REMARK  Name = 
REMARK  4 active torsions:
REMARK  status: ('A' for Active; 'I' for Inactive)
REMARK    1  A    between atoms: C_1  and  C_2
REMARK    2  A    between atoms: N_6  and  C_7
REMARK    3  A    between atoms: C_14  and  C_15
REMARK    4  A    between atoms: C_19  and  C_20
REMARK                            x       y       z     vdW  Elec       q    Type
REMARK                         _______ _______ _______ _____ _____    ______ ____
ROOT
ATOM      1  C   UNL     1       4.675   3.963  16.453  0.00  0.00    +0.000 A 
ATOM      2  N   UNL     1       5.327   3.280  15.464  0.00  0.00    +0.000 NA
ATOM      3  C   UNL     1       6.487   3.732  14.967  0.00  0.00    +0.000 A 
ATOM      4  N   UNL     1       7.147   4.837  15.329  0.00  0.00    +0.000 NA
ATOM      5  C   UNL     1       6.471   5.524  16.256  0.00  0.00    +0.000 A 
ATOM      6  N   UNL     1       6.939   6.691  16.789  0.00  0.00    +0.000 N 
ATOM      7  C   UNL     1       6.018   7.207  17.654  0.00  0.00    +0.000 A 
ATOM      8  C   UNL     1       4.928   6.354  17.696  0.00  0.00    +0.000 A 
ATOM      9  C   UNL     1       5.243   5.217  16.842  0.00  0.00    +0.000 A 
ATOM     10  H   UNL     1       7.832   7.097  16.552  0.00  0.00    +0.000 HD
ENDROOT
BRANCH   1  16
ATOM     11  C   UNL     1       3.912   2.902  20.067  0.00  0.00    +0.000 C 
ATOM     12  C   UNL     1       3.045   2.112  19.084  0.00  0.00    +0.000 C 
ATOM     13  C   UNL     1       1.622   2.682  19.013  0.00  0.00    +0.000 C 
ATOM     14  C   UNL     1       1.606   4.046  18.342  0.00  0.00    +0.000 C 
ATOM     15  C   UNL     1       2.242   3.961  16.968  0.00  0.00    +0.000 C 
ATOM     16  N   UNL     1       3.559   3.349  16.994  0.00  0.00    +0.000 N 
ATOM     17  C   UNL     1       3.693   2.065  17.688  0.00  0.00    +0.000 C 
ENDBRANCH   1  16
BRANCH   8  18
ATOM     18  C   UNL     1       3.747   6.691  18.494  0.00  0.00    +0.000 A 
ATOM     19  C   UNL     1       3.484   6.008  19.689  0.00  0.00    +0.000 A 
ATOM     20  C   UNL     1       2.473   6.443  20.557  0.00  0.00    +0.000 A 
ATOM     21  C   UNL     1       1.647   7.504  20.192  0.00  0.00    +0.000 A 
ATOM     22  C   UNL     1       1.822   8.125  18.953  0.00  0.00    +0.000 A 
ATOM     23  C   UNL     1       2.877   7.732  18.123  0.00  0.00    +0.000 A 
ATOM     24  F   UNL     1       3.066   8.394  16.970  0.00  0.00    +0.000 F 
BRANCH  22  25
ATOM     25  C   UNL     1       0.933   9.163  18.539  0.00  0.00    +0.000 C 
ATOM     26  N   UNL     1       0.208   9.992  18.161  0.00  0.00    +0.000 NA
ENDBRANCH  22  25
ENDBRANCH   8  18
TORSDOF 3
ENDMDL
MODEL 6
REMARK VINA RESULT:      -7.1      9.156     12.313
REMARK  Name = 
REMARK  4 active torsions:
REMARK  status: ('A' for Active; 'I' for Inactive)
REMARK    1  A    between atoms: C_1  and  C_2
REMARK    2  A    between atoms: N_6  and  C_7
REMARK    3  A    between atoms: C_14  and  C_15
REMARK    4  A    between atoms: C_19  and  C_20
REMARK                            x       y       z     vdW  Elec       q    Type
REMARK                         _______ _______ _______ _____ _____    ______ ____
ROOT
ATOM      1  C   UNL     1       9.171  16.351  18.530  0.00  0.00    +0.000 A 
ATOM      2  N   UNL     1       9.130  17.689  18.252  0.00  0.00    +0.000 NA
ATOM      3  C   UNL     1      10.125  18.280  17.576  0.00  0.00    +0.000 A 
ATOM      4  N   UNL     1      11.234  17.705  17.098  0.00  0.00    +0.000 NA
ATOM      5  C   UNL     1      11.287  16.410  17.425  0.00  0.00    +0.000 A 
ATOM      6  N   UNL     1      12.322  15.601  17.051  0.00  0.00    +0.000 N 
ATOM      7  C   UNL     1      12.150  14.355  17.578  0.00  0.00    +0.000 A 
ATOM      8  C   UNL     1      10.971  14.343  18.304  0.00  0.00    +0.000 A 
ATOM      9  C   UNL     1      10.365  15.658  18.153  0.00  0.00    +0.000 A 
ATOM     10  H   UNL     1      13.095  15.910  16.479  0.00  0.00    +0.000 HD
ENDROOT
BRANCH   1  16
ATOM     11  C   UNL     1       6.283  18.031  20.428  0.00  0.00    +0.000 C 
ATOM     12  C   UNL     1       6.369  16.547  20.792  0.00  0.00    +0.000 C 
ATOM     13  C   UNL     1       5.316  15.725  20.035  0.00  0.00    +0.000 C 
ATOM     14  C   UNL     1       5.635  15.653  18.550  0.00  0.00    +0.000 C 
ATOM     15  C   UNL     1       7.030  15.099  18.341  0.00  0.00    +0.000 C 
ATOM     16  N   UNL     1       8.038  15.807  19.110  0.00  0.00    +0.000 N 
ATOM     17  C   UNL     1       7.785  15.997  20.541  0.00  0.00    +0.000 C 
ENDBRANCH   1  16
BRANCH   8  18
ATOM     18  C   UNL     1      10.563  13.147  19.045  0.00  0.00    +0.000 A 
ATOM     19  C   UNL     1      10.776  13.067  20.428  0.00  0.00    +0.000 A 
ATOM     20  C   UNL     1      10.224  12.021  21.180  0.00  0.00    +0.000 A 
ATOM     21  C   UNL     1       9.539  10.988  20.544  0.00  0.00    +0.000 A 
ATOM     22  C   UNL     1       9.415  10.993  19.152  0.00  0.00    +0.000 A 
ATOM     23  C   UNL     1       9.907  12.075  18.416  0.00  0.00    +0.000 A 
ATOM     24  F   UNL     1       9.710  12.087  17.087  0.00  0.00    +0.000 F 
BRANCH  22  25
ATOM     25  C   UNL     1       8.781   9.901  18.485  0.00  0.00    +0.000 C 
ATOM     26  N   UNL     1       8.229   9.038  17.931  0.00  0.00    +0.000 NA
ENDBRANCH  22  25
ENDBRANCH   8  18
TORSDOF 3
ENDMDL
MODEL 7
REMARK VINA RESULT:      -7.1      2.228      5.808
REMARK  Name = 
REMARK  4 active torsions:
REMARK  status: ('A' for Active; 'I' for Inactive)
REMARK    1  A    between atoms: C_1  and  C_2
REMARK    2  A    between atoms: N_6  and  C_7
REMARK    3  A    between atoms: C_14  and  C_15
REMARK    4  A    between atoms: C_19  and  C_20
REMARK                            x       y       z     vdW  Elec       q    Type
REMARK                         _______ _______ _______ _____ _____    ______ ____
ROOT
ATOM      1  C   UNL     1       2.282   5.678  19.966  0.00  0.00    +0.000 A 
ATOM      2  N   UNL     1       1.504   6.145  20.989  0.00  0.00    +0.000 NA
ATOM      3  C   UNL     1       1.105   7.425  21.018  0.00  0.00    +0.000 A 
ATOM      4  N   UNL     1       1.378   8.380  20.123  0.00  0.00    +0.000 NA
ATOM      5  C   UNL     1       2.184   7.923  19.159  0.00  0.00    +0.000 A 
ATOM      6  N   UNL     1       2.606   8.709  18.124  0.00  0.00    +0.000 N 
ATOM      7  C   UNL     1       3.469   8.008  17.333  0.00  0.00    +0.000 A 
ATOM      8  C   UNL     1       3.607   6.733  17.855  0.00  0.00    +0.000 A 
ATOM      9  C   UNL     1       2.719   6.645  19.005  0.00  0.00    +0.000 A 
ATOM     10  H   UNL     1       2.317   9.667  17.995  0.00  0.00    +0.000 HD
ENDROOT
BRANCH   1  16
ATOM     11  C   UNL     1       2.043   3.126  17.103  0.00  0.00    +0.000 C 
ATOM     12  C   UNL     1       1.955   2.419  18.458  0.00  0.00    +0.000 C 
ATOM     13  C   UNL     1       3.296   1.777  18.840  0.00  0.00    +0.000 C 
ATOM     14  C   UNL     1       4.342   2.832  19.160  0.00  0.00    +0.000 C 
ATOM     15  C   UNL     1       3.836   3.757  20.250  0.00  0.00    +0.000 C 
ATOM     16  N   UNL     1       2.529   4.316  19.951  0.00  0.00    +0.000 N 
ATOM     17  C   UNL     1       1.470   3.384  19.555  0.00  0.00    +0.000 C 
ENDBRANCH   1  16
BRANCH   8  18
ATOM     18  C   UNL     1       4.533   5.774  17.247  0.00  0.00    +0.000 A 
ATOM     19  C   UNL     1       4.214   5.157  16.030  0.00  0.00    +0.000 A 
ATOM     20  C   UNL     1       5.163   4.391  15.342  0.00  0.00    +0.000 A 
ATOM     21  C   UNL     1       6.410   4.146  15.912  0.00  0.00    +0.000 A 
ATOM     22  C   UNL     1       6.707   4.660  17.178  0.00  0.00    +0.000 A 
ATOM     23  C   UNL     1       5.781   5.483  17.826  0.00  0.00    +0.000 A 
ATOM     24  F   UNL     1       6.121   6.021  19.009  0.00  0.00    +0.000 F 
BRANCH  22  25
ATOM     25  C   UNL     1       7.954   4.353  17.802  0.00  0.00    +0.000 C 
ATOM     26  N   UNL     1       8.977   4.070  18.281  0.00  0.00    +0.000 NA
ENDBRANCH  22  25
ENDBRANCH   8  18
TORSDOF 3
ENDMDL
MODEL 8
REMARK VINA RESULT:      -7.0      6.508      9.728
REMARK  Name = 
REMARK  4 active torsions:
REMARK  status: ('A' for Active; 'I' for Inactive)
REMARK    1  A    between atoms: C_1  and  C_2
REMARK    2  A    between atoms: N_6  and  C_7
REMARK    3  A    between atoms: C_14  and  C_15
REMARK    4  A    between atoms: C_19  and  C_20
REMARK                            x       y       z     vdW  Elec       q    Type
REMARK                         _______ _______ _______ _____ _____    ______ ____
ROOT
ATOM      1  C   UNL     1      -2.401  11.224  17.917  0.00  0.00    +0.000 A 
ATOM      2  N   UNL     1      -1.920  10.505  16.858  0.00  0.00    +0.000 NA
ATOM      3  C   UNL     1      -2.705  10.219  15.810  0.00  0.00    +0.000 A 
ATOM      4  N   UNL     1      -3.986  10.563  15.638  0.00  0.00    +0.000 NA
ATOM      5  C   UNL     1      -4.458  11.217  16.704  0.00  0.00    +0.000 A 
ATOM      6  N   UNL     1      -5.743  11.677  16.772  0.00  0.00    +0.000 N 
ATOM      7  C   UNL     1      -5.969  12.240  17.994  0.00  0.00    +0.000 A 
ATOM      8  C   UNL     1      -4.805  12.157  18.740  0.00  0.00    +0.000 A 
ATOM      9  C   UNL     1      -3.793  11.555  17.883  0.00  0.00    +0.000 A 
ATOM     10  H   UNL     1      -6.409  11.589  16.019  0.00  0.00    +0.000 HD
ENDROOT
BRANCH   1  16
ATOM     11  C   UNL     1       0.993   9.676  18.840  0.00  0.00    +0.000 C 
ATOM     12  C   UNL     1       0.440  10.489  20.013  0.00  0.00    +0.000 C 
ATOM     13  C   UNL     1       1.110  11.867  20.102  0.00  0.00    +0.000 C 
ATOM     14  C   UNL     1       0.694  12.759  18.943  0.00  0.00    +0.000 C 
ATOM     15  C   UNL     1      -0.817  12.876  18.889  0.00  0.00    +0.000 C 
ATOM     16  N   UNL     1      -1.481  11.585  18.886  0.00  0.00    +0.000 N 
ATOM     17  C   UNL     1      -1.091  10.622  19.920  0.00  0.00    +0.000 C 
ENDBRANCH   1  16
BRANCH   8  18
ATOM     18  C   UNL     1      -4.773  12.622  20.128  0.00  0.00    +0.000 A 
ATOM     19  C   UNL     1      -3.710  13.413  20.584  0.00  0.00    +0.000 A 
ATOM     20  C   UNL     1      -3.757  14.023  21.844  0.00  0.00    +0.000 A 
ATOM     21  C   UNL     1      -4.821  13.766  22.705  0.00  0.00    +0.000 A 
ATOM     22  C   UNL     1      -5.835  12.889  22.312  0.00  0.00    +0.000 A 
ATOM     23  C   UNL     1      -5.817  12.341  21.026  0.00  0.00    +0.000 A 
ATOM     24  F   UNL     1      -6.843  11.558  20.650  0.00  0.00    +0.000 F 
BRANCH  22  25
ATOM     25  C   UNL     1      -6.891  12.562  23.217  0.00  0.00    +0.000 C 
ATOM     26  N   UNL     1      -7.776  12.282  23.920  0.00  0.00    +0.000 NA
ENDBRANCH  22  25
ENDBRANCH   8  18
TORSDOF 3
ENDMDL
MODEL 9
REMARK VINA RESULT:      -7.0      2.964      8.130
REMARK  Name = 
REMARK  4 active torsions:
REMARK  status: ('A' for Active; 'I' for Inactive)
REMARK    1  A    between atoms: C_1  and  C_2
REMARK    2  A    between atoms: N_6  and  C_7
REMARK    3  A    between atoms: C_14  and  C_15
REMARK    4  A    between atoms: C_19  and  C_20
REMARK                            x       y       z     vdW  Elec       q    Type
REMARK                         _______ _______ _______ _____ _____    ______ ____
ROOT
ATOM      1  C   UNL     1       0.022  12.568  21.273  0.00  0.00    +0.000 A 
ATOM      2  N   UNL     1      -0.609  13.569  21.959  0.00  0.00    +0.000 NA
ATOM      3  C   UNL     1      -1.321  13.302  23.063  0.00  0.00    +0.000 A 
ATOM      4  N   UNL     1      -1.514  12.109  23.634  0.00  0.00    +0.000 NA
ATOM      5  C   UNL     1      -0.938  11.133  22.923  0.00  0.00    +0.000 A 
ATOM      6  N   UNL     1      -0.992   9.822  23.301  0.00  0.00    +0.000 N 
ATOM      7  C   UNL     1      -0.384   9.044  22.360  0.00  0.00    +0.000 A 
ATOM      8  C   UNL     1       0.089   9.864  21.349  0.00  0.00    +0.000 A 
ATOM      9  C   UNL     1      -0.205  11.235  21.741  0.00  0.00    +0.000 A 
ATOM     10  H   UNL     1      -1.435   9.502  24.150  0.00  0.00    +0.000 HD
ENDROOT
BRANCH   1  16
ATOM     11  C   UNL     1       0.467  15.994  19.591  0.00  0.00    +0.000 C 
ATOM     12  C   UNL     1       0.929  14.875  18.654  0.00  0.00    +0.000 C 
ATOM     13  C   UNL     1       2.458  14.742  18.655  0.00  0.00    +0.000 C 
ATOM     14  C   UNL     1       2.964  14.201  19.983  0.00  0.00    +0.000 C 
ATOM     15  C   UNL     1       2.290  12.881  20.302  0.00  0.00    +0.000 C 
ATOM     16  N   UNL     1       0.841  12.958  20.228  0.00  0.00    +0.000 N 
ATOM     17  C   UNL     1       0.256  13.538  19.016  0.00  0.00    +0.000 C 
ENDBRANCH   1  16
BRANCH   8  18
ATOM     18  C   UNL     1       0.730   9.292  20.163  0.00  0.00    +0.000 A 
ATOM     19  C   UNL     1       0.577   9.906  18.912  0.00  0.00    +0.000 A 
ATOM     20  C   UNL     1       1.333   9.487  17.810  0.00  0.00    +0.000 A 
ATOM     21  C   UNL     1       2.175   8.383  17.918  0.00  0.00    +0.000 A 
ATOM     22  C   UNL     1       2.255   7.688  19.127  0.00  0.00    +0.000 A 
ATOM     23  C   UNL     1       1.553   8.154  20.243  0.00  0.00    +0.000 A 
ATOM     24  F   UNL     1       1.705   7.509  21.411  0.00  0.00    +0.000 F 
BRANCH  22  25
ATOM     25  C   UNL     1       3.059   6.511  19.227  0.00  0.00    +0.000 C 
ATOM     26  N   UNL     1       3.716   5.551  19.263  0.00  0.00    +0.000 NA
ENDBRANCH  22  25
ENDBRANCH   8  18
TORSDOF 3
ENDMDL
