MODEL 1
REMARK VINA RESULT:      -8.4      0.000      0.000
REMARK  Name = 
REMARK  10 active torsions:
REMARK  status: ('A' for Active; 'I' for Inactive)
REMARK    1  A    between atoms: C_1  and  O_2
REMARK    2  A    between atoms: O_2  and  C_3
REMARK    3  A    between atoms: C_12  and  C_13
REMARK    4  A    between atoms: C_16  and  O_17
REMARK    5  A    between atoms: O_17  and  C_18
REMARK    6  A    between atoms: C_18  and  C_19
REMARK    7  A    between atoms: C_19  and  C_20
REMARK    8  A    between atoms: C_20  and  C_21
REMARK    9  A    between atoms: C_21  and  C_22
REMARK   10  A    between atoms: N_24  and  N_25
REMARK                            x       y       z     vdW  Elec       q    Type
REMARK                         _______ _______ _______ _____ _____    ______ ____
ROOT
ATOM      1  C   UNL     1      -5.826  12.343  17.877  0.00  0.00    +0.000 A 
ATOM      2  C   UNL     1      -5.465  12.948  19.078  0.00  0.00    +0.000 A 
ATOM      3  C   UNL     1      -4.163  12.810  19.571  0.00  0.00    +0.000 A 
ATOM      4  C   UNL     1      -3.207  12.049  18.886  0.00  0.00    +0.000 A 
ATOM      5  C   UNL     1      -3.594  11.428  17.679  0.00  0.00    +0.000 A 
ATOM      6  C   UNL     1      -4.891  11.582  17.180  0.00  0.00    +0.000 A 
ATOM      7  C   UNL     1      -2.576  10.631  16.910  0.00  0.00    +0.000 C 
ATOM      8  C   UNL     1      -1.652   9.878  17.863  0.00  0.00    +0.000 C 
ATOM      9  C   UNL     1      -1.085  10.760  18.943  0.00  0.00    +0.000 A 
ATOM     10  C   UNL     1       0.138  10.574  19.570  0.00  0.00    +0.000 A 
ATOM     11  N   UNL     1       0.593  11.448  20.501  0.00  0.00    +0.000 NA
ATOM     12  C   UNL     1      -0.200  12.458  20.855  0.00  0.00    +0.000 A 
ATOM     13  N   UNL     1       0.292  13.365  21.771  0.00  0.00    +0.000 N 
ATOM     14  N   UNL     1      -1.408  12.686  20.354  0.00  0.00    +0.000 NA
ATOM     15  C   UNL     1      -1.846  11.826  19.412  0.00  0.00    +0.000 A 
ATOM     16  H   UNL     1       1.303  13.365  21.747  0.00  0.00    +0.000 HD
ATOM     17  H   UNL     1      -0.173  14.254  21.655  0.00  0.00    +0.000 HD
ENDROOT
BRANCH  10  18
ATOM     18  C   UNL     1       1.082   9.475  19.264  0.00  0.00    +0.000 A 
ATOM     19  C   UNL     1       1.724   9.437  18.020  0.00  0.00    +0.000 A 
ATOM     20  C   UNL     1       2.561   8.378  17.662  0.00  0.00    +0.000 A 
ATOM     21  C   UNL     1       2.760   7.308  18.532  0.00  0.00    +0.000 A 
ATOM     22  C   UNL     1       2.169   7.343  19.790  0.00  0.00    +0.000 A 
ATOM     23  C   UNL     1       1.374   8.433  20.163  0.00  0.00    +0.000 A 
BRANCH  21  24
ATOM     24  O   UNL     1       3.499   6.187  18.256  0.00  0.00    +0.000 OA
BRANCH  24  25
ATOM     25  C   UNL     1       2.750   5.059  17.805  0.00  0.00    +0.000 C 
BRANCH  25  26
ATOM     26  C   UNL     1       3.554   3.782  18.018  0.00  0.00    +0.000 C 
BRANCH  26  27
ATOM     27  C   UNL     1       4.474   3.424  16.845  0.00  0.00    +0.000 C 
BRANCH  27  28
ATOM     28  C   UNL     1       5.155   4.642  16.232  0.00  0.00    +0.000 C 
BRANCH  28  29
ATOM     29  C   UNL     1       6.655   4.579  16.389  0.00  0.00    +0.000 C 
ATOM     30  O   UNL     1       7.434   4.798  15.464  0.00  0.00    +0.000 OA
ATOM     31  N   UNL     1       7.068   4.246  17.674  0.00  0.00    +0.000 N 
ATOM     32  H   UNL     1       6.400   4.238  18.443  0.00  0.00    +0.000 HD
BRANCH  31  33
ATOM     33  N   UNL     1       8.446   4.178  17.961  0.00  0.00    +0.000 NA
ATOM     34  H   UNL     1       8.714   3.186  17.886  0.00  0.00    +0.000 HD
ATOM     35  H   UNL     1       8.568   4.383  18.958  0.00  0.00    +0.000 HD
ENDBRANCH  31  33
ENDBRANCH  28  29
ENDBRANCH  27  28
ENDBRANCH  26  27
ENDBRANCH  25  26
ENDBRANCH  24  25
ENDBRANCH  21  24
ENDBRANCH  10  18
BRANCH   1  37
ATOM     36  C   UNL     1      -7.915  13.427  17.776  0.00  0.00    +0.000 C 
ATOM     37  O   UNL     1      -7.067  12.389  17.306  0.00  0.00    +0.000 OA
ENDBRANCH   1  37
TORSDOF 9
ENDMDL
MODEL 2
REMARK VINA RESULT:      -8.3      1.972      2.480
REMARK  Name = 
REMARK  10 active torsions:
REMARK  status: ('A' for Active; 'I' for Inactive)
REMARK    1  A    between atoms: C_1  and  O_2
REMARK    2  A    between atoms: O_2  and  C_3
REMARK    3  A    between atoms: C_12  and  C_13
REMARK    4  A    between atoms: C_16  and  O_17
REMARK    5  A    between atoms: O_17  and  C_18
REMARK    6  A    between atoms: C_18  and  C_19
REMARK    7  A    between atoms: C_19  and  C_20
REMARK    8  A    between atoms: C_20  and  C_21
REMARK    9  A    between atoms: C_21  and  C_22
REMARK   10  A    between atoms: N_24  and  N_25
REMARK                            x       y       z     vdW  Elec       q    Type
REMARK                         _______ _______ _______ _____ _____    ______ ____
ROOT
ATOM      1  C   UNL     1      -5.699  12.094  18.042  0.00  0.00    +0.000 A 
ATOM      2  C   UNL     1      -5.299  12.666  19.247  0.00  0.00    +0.000 A 
ATOM      3  C   UNL     1      -3.976  12.532  19.683  0.00  0.00    +0.000 A 
ATOM      4  C   UNL     1      -3.038  11.808  18.936  0.00  0.00    +0.000 A 
ATOM      5  C   UNL     1      -3.464  11.220  17.726  0.00  0.00    +0.000 A 
ATOM      6  C   UNL     1      -4.783  11.370  17.284  0.00  0.00    +0.000 A 
ATOM      7  C   UNL     1      -2.468  10.463  16.891  0.00  0.00    +0.000 C 
ATOM      8  C   UNL     1      -1.495   9.695  17.782  0.00  0.00    +0.000 C 
ATOM      9  C   UNL     1      -0.897  10.551  18.867  0.00  0.00    +0.000 A 
ATOM     10  C   UNL     1       0.352  10.364  19.438  0.00  0.00    +0.000 A 
ATOM     11  N   UNL     1       0.832  11.214  20.378  0.00  0.00    +0.000 NA
ATOM     12  C   UNL     1       0.040  12.200  20.796  0.00  0.00    +0.000 A 
ATOM     13  N   UNL     1       0.556  13.085  21.721  0.00  0.00    +0.000 N 
ATOM     14  N   UNL     1      -1.190  12.425  20.351  0.00  0.00    +0.000 NA
ATOM     15  C   UNL     1      -1.654  11.590  19.400  0.00  0.00    +0.000 A 
ATOM     16  H   UNL     1       1.565  13.101  21.656  0.00  0.00    +0.000 HD
ATOM     17  H   UNL     1       0.074  13.970  21.652  0.00  0.00    +0.000 HD
ENDROOT
BRANCH  10  18
ATOM     18  C   UNL     1       1.299   9.289  19.059  0.00  0.00    +0.000 A 
ATOM     19  C   UNL     1       1.982   9.364  17.839  0.00  0.00    +0.000 A 
ATOM     20  C   UNL     1       2.823   8.336  17.409  0.00  0.00    +0.000 A 
ATOM     21  C   UNL     1       2.985   7.186  18.178  0.00  0.00    +0.000 A 
ATOM     22  C   UNL     1       2.352   7.106  19.413  0.00  0.00    +0.000 A 
ATOM     23  C   UNL     1       1.553   8.163  19.863  0.00  0.00    +0.000 A 
BRANCH  21  24
ATOM     24  O   UNL     1       3.726   6.089  17.820  0.00  0.00    +0.000 OA
BRANCH  24  25
ATOM     25  C   UNL     1       4.774   5.740  18.725  0.00  0.00    +0.000 C 
BRANCH  25  26
ATOM     26  C   UNL     1       5.394   4.410  18.314  0.00  0.00    +0.000 C 
BRANCH  26  27
ATOM     27  C   UNL     1       4.452   3.507  17.508  0.00  0.00    +0.000 C 
BRANCH  27  28
ATOM     28  C   UNL     1       3.647   2.555  18.385  0.00  0.00    +0.000 C 
BRANCH  28  29
ATOM     29  C   UNL     1       2.229   3.035  18.571  0.00  0.00    +0.000 C 
ATOM     30  O   UNL     1       1.568   3.537  17.665  0.00  0.00    +0.000 OA
ATOM     31  N   UNL     1       1.745   2.859  19.863  0.00  0.00    +0.000 N 
ATOM     32  H   UNL     1       2.262   2.291  20.532  0.00  0.00    +0.000 HD
BRANCH  31  33
ATOM     33  N   UNL     1       0.423   3.242  20.165  0.00  0.00    +0.000 NA
ATOM     34  H   UNL     1       0.487   4.115  20.709  0.00  0.00    +0.000 HD
ATOM     35  H   UNL     1       0.048   2.567  20.839  0.00  0.00    +0.000 HD
ENDBRANCH  31  33
ENDBRANCH  28  29
ENDBRANCH  27  28
ENDBRANCH  26  27
ENDBRANCH  25  26
ENDBRANCH  24  25
ENDBRANCH  21  24
ENDBRANCH  10  18
BRANCH   1  37
ATOM     36  C   UNL     1      -7.550  13.431  17.462  0.00  0.00    +0.000 C 
ATOM     37  O   UNL     1      -6.963  12.139  17.523  0.00  0.00    +0.000 OA
ENDBRANCH   1  37
TORSDOF 9
ENDMDL
MODEL 3
REMARK VINA RESULT:      -8.1      1.755      2.468
REMARK  Name = 
REMARK  10 active torsions:
REMARK  status: ('A' for Active; 'I' for Inactive)
REMARK    1  A    between atoms: C_1  and  O_2
REMARK    2  A    between atoms: O_2  and  C_3
REMARK    3  A    between atoms: C_12  and  C_13
REMARK    4  A    between atoms: C_16  and  O_17
REMARK    5  A    between atoms: O_17  and  C_18
REMARK    6  A    between atoms: C_18  and  C_19
REMARK    7  A    between atoms: C_19  and  C_20
REMARK    8  A    between atoms: C_20  and  C_21
REMARK    9  A    between atoms: C_21  and  C_22
REMARK   10  A    between atoms: N_24  and  N_25
REMARK                            x       y       z     vdW  Elec       q    Type
REMARK                         _______ _______ _______ _____ _____    ______ ____
ROOT
ATOM      1  C   UNL     1      -5.906  12.072  18.417  0.00  0.00    +0.000 A 
ATOM      2  C   UNL     1      -5.457  12.675  19.589  0.00  0.00    +0.000 A 
ATOM      3  C   UNL     1      -4.106  12.601  19.945  0.00  0.00    +0.000 A 
ATOM      4  C   UNL     1      -3.186  11.906  19.149  0.00  0.00    +0.000 A 
ATOM      5  C   UNL     1      -3.660  11.285  17.973  0.00  0.00    +0.000 A 
ATOM      6  C   UNL     1      -5.009  11.376  17.612  0.00  0.00    +0.000 A 
ATOM      7  C   UNL     1      -2.686  10.559  17.087  0.00  0.00    +0.000 C 
ATOM      8  C   UNL     1      -1.630   9.843  17.924  0.00  0.00    +0.000 C 
ATOM      9  C   UNL     1      -1.003  10.736  18.961  0.00  0.00    +0.000 A 
ATOM     10  C   UNL     1       0.285  10.607  19.456  0.00  0.00    +0.000 A 
ATOM     11  N   UNL     1       0.786  11.489  20.356  0.00  0.00    +0.000 NA
ATOM     12  C   UNL     1      -0.019  12.447  20.811  0.00  0.00    +0.000 A 
ATOM     13  N   UNL     1       0.516  13.364  21.693  0.00  0.00    +0.000 N 
ATOM     14  N   UNL     1      -1.283  12.616  20.440  0.00  0.00    +0.000 NA
ATOM     15  C   UNL     1      -1.768  11.750  19.529  0.00  0.00    +0.000 A 
ATOM     16  H   UNL     1       1.517  13.420  21.567  0.00  0.00    +0.000 HD
ATOM     17  H   UNL     1      -0.006  14.228  21.645  0.00  0.00    +0.000 HD
ENDROOT
BRANCH  10  18
ATOM     18  C   UNL     1       1.251   9.567  19.031  0.00  0.00    +0.000 A 
ATOM     19  C   UNL     1       1.882   9.673  17.785  0.00  0.00    +0.000 A 
ATOM     20  C   UNL     1       2.738   8.676  17.313  0.00  0.00    +0.000 A 
ATOM     21  C   UNL     1       2.969   7.527  18.066  0.00  0.00    +0.000 A 
ATOM     22  C   UNL     1       2.389   7.418  19.325  0.00  0.00    +0.000 A 
ATOM     23  C   UNL     1       1.574   8.445  19.815  0.00  0.00    +0.000 A 
BRANCH  21  24
ATOM     24  O   UNL     1       3.730   6.458  17.670  0.00  0.00    +0.000 OA
BRANCH  24  25
ATOM     25  C   UNL     1       3.546   5.264  18.432  0.00  0.00    +0.000 C 
BRANCH  25  26
ATOM     26  C   UNL     1       2.452   4.410  17.805  0.00  0.00    +0.000 C 
BRANCH  26  27
ATOM     27  C   UNL     1       1.829   3.392  18.768  0.00  0.00    +0.000 C 
BRANCH  27  28
ATOM     28  C   UNL     1       2.056   3.746  20.233  0.00  0.00    +0.000 C 
BRANCH  28  29
ATOM     29  C   UNL     1       2.994   2.772  20.902  0.00  0.00    +0.000 C 
ATOM     30  O   UNL     1       2.756   2.255  21.992  0.00  0.00    +0.000 OA
ATOM     31  N   UNL     1       4.150   2.519  20.172  0.00  0.00    +0.000 N 
ATOM     32  H   UNL     1       4.228   2.835  19.207  0.00  0.00    +0.000 HD
BRANCH  31  33
ATOM     33  N   UNL     1       5.099   1.606  20.674  0.00  0.00    +0.000 NA
ATOM     34  H   UNL     1       5.978   1.789  20.168  0.00  0.00    +0.000 HD
ATOM     35  H   UNL     1       4.830   0.670  20.355  0.00  0.00    +0.000 HD
ENDBRANCH  31  33
ENDBRANCH  28  29
ENDBRANCH  27  28
ENDBRANCH  26  27
ENDBRANCH  25  26
ENDBRANCH  24  25
ENDBRANCH  21  24
ENDBRANCH  10  18
BRANCH   1  37
ATOM     36  C   UNL     1      -7.916  13.273  18.153  0.00  0.00    +0.000 C 
ATOM     37  O   UNL     1      -7.200  12.058  17.976  0.00  0.00    +0.000 OA
ENDBRANCH   1  37
TORSDOF 9
ENDMDL
MODEL 4
REMARK VINA RESULT:      -8.1      1.239      1.431
REMARK  Name = 
REMARK  10 active torsions:
REMARK  status: ('A' for Active; 'I' for Inactive)
REMARK    1  A    between atoms: C_1  and  O_2
REMARK    2  A    between atoms: O_2  and  C_3
REMARK    3  A    between atoms: C_12  and  C_13
REMARK    4  A    between atoms: C_16  and  O_17
REMARK    5  A    between atoms: O_17  and  C_18
REMARK    6  A    between atoms: C_18  and  C_19
REMARK    7  A    between atoms: C_19  and  C_20
REMARK    8  A    between atoms: C_20  and  C_21
REMARK    9  A    between atoms: C_21  and  C_22
REMARK   10  A    between atoms: N_24  and  N_25
REMARK                            x       y       z     vdW  Elec       q    Type
REMARK                         _______ _______ _______ _____ _____    ______ ____
ROOT
ATOM      1  C   UNL     1      -5.796  12.207  17.971  0.00  0.00    +0.000 A 
ATOM      2  C   UNL     1      -5.439  12.775  19.191  0.00  0.00    +0.000 A 
ATOM      3  C   UNL     1      -4.133  12.636  19.676  0.00  0.00    +0.000 A 
ATOM      4  C   UNL     1      -3.171  11.910  18.962  0.00  0.00    +0.000 A 
ATOM      5  C   UNL     1      -3.553  11.326  17.735  0.00  0.00    +0.000 A 
ATOM      6  C   UNL     1      -4.854  11.482  17.245  0.00  0.00    +0.000 A 
ATOM      7  C   UNL     1      -2.529  10.568  16.936  0.00  0.00    +0.000 C 
ATOM      8  C   UNL     1      -1.592   9.795  17.861  0.00  0.00    +0.000 C 
ATOM      9  C   UNL     1      -1.032  10.646  18.969  0.00  0.00    +0.000 A 
ATOM     10  C   UNL     1       0.194  10.453  19.585  0.00  0.00    +0.000 A 
ATOM     11  N   UNL     1       0.642  11.300  20.544  0.00  0.00    +0.000 NA
ATOM     12  C   UNL     1      -0.162  12.288  20.935  0.00  0.00    +0.000 A 
ATOM     13  N   UNL     1       0.323  13.169  21.880  0.00  0.00    +0.000 N 
ATOM     14  N   UNL     1      -1.374  12.518  20.445  0.00  0.00    +0.000 NA
ATOM     15  C   UNL     1      -1.805  11.686  19.476  0.00  0.00    +0.000 A 
ATOM     16  H   UNL     1       1.333  13.182  21.853  0.00  0.00    +0.000 HD
ATOM     17  H   UNL     1      -0.154  14.055  21.796  0.00  0.00    +0.000 HD
ENDROOT
BRANCH  10  18
ATOM     18  C   UNL     1       1.151   9.377  19.238  0.00  0.00    +0.000 A 
ATOM     19  C   UNL     1       1.825   9.415  18.012  0.00  0.00    +0.000 A 
ATOM     20  C   UNL     1       2.675   8.381  17.613  0.00  0.00    +0.000 A 
ATOM     21  C   UNL     1       2.856   7.262  18.423  0.00  0.00    +0.000 A 
ATOM     22  C   UNL     1       2.233   7.220  19.665  0.00  0.00    +0.000 A 
ATOM     23  C   UNL     1       1.424   8.284  20.081  0.00  0.00    +0.000 A 
BRANCH  21  24
ATOM     24  O   UNL     1       3.607   6.162  18.100  0.00  0.00    +0.000 OA
BRANCH  24  25
ATOM     25  C   UNL     1       4.196   5.480  19.207  0.00  0.00    +0.000 C 
BRANCH  25  26
ATOM     26  C   UNL     1       5.715   5.574  19.128  0.00  0.00    +0.000 C 
BRANCH  26  27
ATOM     27  C   UNL     1       6.377   4.375  18.437  0.00  0.00    +0.000 C 
BRANCH  27  28
ATOM     28  C   UNL     1       7.199   4.773  17.217  0.00  0.00    +0.000 C 
BRANCH  28  29
ATOM     29  C   UNL     1       6.319   5.214  16.073  0.00  0.00    +0.000 C 
ATOM     30  O   UNL     1       6.042   4.485  15.123  0.00  0.00    +0.000 OA
ATOM     31  N   UNL     1       5.858   6.520  16.194  0.00  0.00    +0.000 N 
ATOM     32  H   UNL     1       5.973   7.026  17.071  0.00  0.00    +0.000 HD
BRANCH  31  33
ATOM     33  N   UNL     1       5.005   7.047  15.204  0.00  0.00    +0.000 NA
ATOM     34  H   UNL     1       5.209   8.056  15.147  0.00  0.00    +0.000 HD
ATOM     35  H   UNL     1       4.048   7.017  15.569  0.00  0.00    +0.000 HD
ENDBRANCH  31  33
ENDBRANCH  28  29
ENDBRANCH  27  28
ENDBRANCH  26  27
ENDBRANCH  25  26
ENDBRANCH  24  25
ENDBRANCH  21  24
ENDBRANCH  10  18
BRANCH   1  37
ATOM     36  C   UNL     1      -7.746  13.475  17.596  0.00  0.00    +0.000 C 
ATOM     37  O   UNL     1      -7.040  12.257  17.406  0.00  0.00    +0.000 OA
ENDBRANCH   1  37
TORSDOF 9
ENDMDL
MODEL 5
REMARK VINA RESULT:      -7.9      1.530      1.919
REMARK  Name = 
REMARK  10 active torsions:
REMARK  status: ('A' for Active; 'I' for Inactive)
REMARK    1  A    between atoms: C_1  and  O_2
REMARK    2  A    between atoms: O_2  and  C_3
REMARK    3  A    between atoms: C_12  and  C_13
REMARK    4  A    between atoms: C_16  and  O_17
REMARK    5  A    between atoms: O_17  and  C_18
REMARK    6  A    between atoms: C_18  and  C_19
REMARK    7  A    between atoms: C_19  and  C_20
REMARK    8  A    between atoms: C_20  and  C_21
REMARK    9  A    between atoms: C_21  and  C_22
REMARK   10  A    between atoms: N_24  and  N_25
REMARK                            x       y       z     vdW  Elec       q    Type
REMARK                         _______ _______ _______ _____ _____    ______ ____
ROOT
ATOM      1  C   UNL     1      -5.812  12.151  18.227  0.00  0.00    +0.000 A 
ATOM      2  C   UNL     1      -5.367  12.863  19.338  0.00  0.00    +0.000 A 
ATOM      3  C   UNL     1      -4.033  12.763  19.749  0.00  0.00    +0.000 A 
ATOM      4  C   UNL     1      -3.128  11.936  19.072  0.00  0.00    +0.000 A 
ATOM      5  C   UNL     1      -3.599  11.207  17.958  0.00  0.00    +0.000 A 
ATOM      6  C   UNL     1      -4.929  11.323  17.540  0.00  0.00    +0.000 A 
ATOM      7  C   UNL     1      -2.639  10.336  17.197  0.00  0.00    +0.000 C 
ATOM      8  C   UNL     1      -1.648   9.669  18.148  0.00  0.00    +0.000 C 
ATOM      9  C   UNL     1      -1.007  10.644  19.099  0.00  0.00    +0.000 A 
ATOM     10  C   UNL     1       0.257  10.509  19.652  0.00  0.00    +0.000 A 
ATOM     11  N   UNL     1       0.777  11.463  20.463  0.00  0.00    +0.000 NA
ATOM     12  C   UNL     1       0.011  12.507  20.777  0.00  0.00    +0.000 A 
ATOM     13  N   UNL     1       0.567  13.492  21.567  0.00  0.00    +0.000 N 
ATOM     14  N   UNL     1      -1.230  12.694  20.343  0.00  0.00    +0.000 NA
ATOM     15  C   UNL     1      -1.733  11.754  19.519  0.00  0.00    +0.000 A 
ATOM     16  H   UNL     1       1.573  13.483  21.472  0.00  0.00    +0.000 HD
ATOM     17  H   UNL     1       0.094  14.369  21.402  0.00  0.00    +0.000 HD
ENDROOT
BRANCH  10  18
ATOM     18  C   UNL     1       1.178   9.380  19.384  0.00  0.00    +0.000 A 
ATOM     19  C   UNL     1       1.819   9.287  18.143  0.00  0.00    +0.000 A 
ATOM     20  C   UNL     1       2.633   8.199  17.821  0.00  0.00    +0.000 A 
ATOM     21  C   UNL     1       2.809   7.155  18.726  0.00  0.00    +0.000 A 
ATOM     22  C   UNL     1       2.218   7.244  19.982  0.00  0.00    +0.000 A 
ATOM     23  C   UNL     1       1.447   8.363  20.317  0.00  0.00    +0.000 A 
BRANCH  21  24
ATOM     24  O   UNL     1       3.524   6.010  18.489  0.00  0.00    +0.000 OA
BRANCH  24  25
ATOM     25  C   UNL     1       4.390   6.056  17.355  0.00  0.00    +0.000 C 
BRANCH  25  26
ATOM     26  C   UNL     1       4.530   4.664  16.750  0.00  0.00    +0.000 C 
BRANCH  26  27
ATOM     27  C   UNL     1       3.365   3.722  17.080  0.00  0.00    +0.000 C 
BRANCH  27  28
ATOM     28  C   UNL     1       3.242   3.432  18.571  0.00  0.00    +0.000 C 
BRANCH  28  29
ATOM     29  C   UNL     1       3.893   2.121  18.939  0.00  0.00    +0.000 C 
ATOM     30  O   UNL     1       3.678   1.074  18.332  0.00  0.00    +0.000 OA
ATOM     31  N   UNL     1       4.753   2.211  20.028  0.00  0.00    +0.000 N 
ATOM     32  H   UNL     1       5.029   3.122  20.392  0.00  0.00    +0.000 HD
BRANCH  31  33
ATOM     33  N   UNL     1       5.446   1.062  20.459  0.00  0.00    +0.000 NA
ATOM     34  H   UNL     1       6.121   1.376  21.171  0.00  0.00    +0.000 HD
ATOM     35  H   UNL     1       6.043   0.749  19.686  0.00  0.00    +0.000 HD
ENDBRANCH  31  33
ENDBRANCH  28  29
ENDBRANCH  27  28
ENDBRANCH  26  27
ENDBRANCH  25  26
ENDBRANCH  24  25
ENDBRANCH  21  24
ENDBRANCH  10  18
BRANCH   1  37
ATOM     36  C   UNL     1      -7.566  13.408  17.281  0.00  0.00    +0.000 C 
ATOM     37  O   UNL     1      -7.091  12.151  17.744  0.00  0.00    +0.000 OA
ENDBRANCH   1  37
TORSDOF 9
ENDMDL
MODEL 6
REMARK VINA RESULT:      -7.8      3.380      4.639
REMARK  Name = 
REMARK  10 active torsions:
REMARK  status: ('A' for Active; 'I' for Inactive)
REMARK    1  A    between atoms: C_1  and  O_2
REMARK    2  A    between atoms: O_2  and  C_3
REMARK    3  A    between atoms: C_12  and  C_13
REMARK    4  A    between atoms: C_16  and  O_17
REMARK    5  A    between atoms: O_17  and  C_18
REMARK    6  A    between atoms: C_18  and  C_19
REMARK    7  A    between atoms: C_19  and  C_20
REMARK    8  A    between atoms: C_20  and  C_21
REMARK    9  A    between atoms: C_21  and  C_22
REMARK   10  A    between atoms: N_24  and  N_25
REMARK                            x       y       z     vdW  Elec       q    Type
REMARK                         _______ _______ _______ _____ _____    ______ ____
ROOT
ATOM      1  C   UNL     1      -2.293  13.369  23.326  0.00  0.00    +0.000 A 
ATOM      2  C   UNL     1      -2.666  13.778  22.048  0.00  0.00    +0.000 A 
ATOM      3  C   UNL     1      -2.308  13.011  20.932  0.00  0.00    +0.000 A 
ATOM      4  C   UNL     1      -1.557  11.838  21.072  0.00  0.00    +0.000 A 
ATOM      5  C   UNL     1      -1.173  11.446  22.373  0.00  0.00    +0.000 A 
ATOM      6  C   UNL     1      -1.546  12.205  23.487  0.00  0.00    +0.000 A 
ATOM      7  C   UNL     1      -0.391  10.173  22.552  0.00  0.00    +0.000 C 
ATOM      8  C   UNL     1       0.596   9.984  21.403  0.00  0.00    +0.000 C 
ATOM      9  C   UNL     1      -0.043  10.154  20.051  0.00  0.00    +0.000 A 
ATOM     10  C   UNL     1       0.373   9.531  18.884  0.00  0.00    +0.000 A 
ATOM     11  N   UNL     1      -0.294   9.704  17.717  0.00  0.00    +0.000 NA
ATOM     12  C   UNL     1      -1.322  10.551  17.700  0.00  0.00    +0.000 A 
ATOM     13  N   UNL     1      -2.018  10.685  16.516  0.00  0.00    +0.000 N 
ATOM     14  N   UNL     1      -1.757  11.236  18.750  0.00  0.00    +0.000 NA
ATOM     15  C   UNL     1      -1.105  11.043  19.913  0.00  0.00    +0.000 A 
ATOM     16  H   UNL     1      -1.907   9.852  15.955  0.00  0.00    +0.000 HD
ATOM     17  H   UNL     1      -2.961  10.992  16.709  0.00  0.00    +0.000 HD
ENDROOT
BRANCH  10  18
ATOM     18  C   UNL     1       1.512   8.589  18.793  0.00  0.00    +0.000 A 
ATOM     19  C   UNL     1       2.341   8.610  17.665  0.00  0.00    +0.000 A 
ATOM     20  C   UNL     1       3.378   7.688  17.504  0.00  0.00    +0.000 A 
ATOM     21  C   UNL     1       3.601   6.699  18.459  0.00  0.00    +0.000 A 
ATOM     22  C   UNL     1       2.820   6.685  19.610  0.00  0.00    +0.000 A 
ATOM     23  C   UNL     1       1.816   7.644  19.789  0.00  0.00    +0.000 A 
BRANCH  21  24
ATOM     24  O   UNL     1       4.539   5.704  18.369  0.00  0.00    +0.000 OA
BRANCH  24  25
ATOM     25  C   UNL     1       4.066   4.391  18.667  0.00  0.00    +0.000 C 
BRANCH  25  26
ATOM     26  C   UNL     1       2.964   4.000  17.689  0.00  0.00    +0.000 C 
BRANCH  26  27
ATOM     27  C   UNL     1       2.397   2.594  17.920  0.00  0.00    +0.000 C 
BRANCH  27  28
ATOM     28  C   UNL     1       1.019   2.610  18.569  0.00  0.00    +0.000 C 
BRANCH  28  29
ATOM     29  C   UNL     1       1.071   3.161  19.973  0.00  0.00    +0.000 C 
ATOM     30  O   UNL     1       0.497   4.195  20.308  0.00  0.00    +0.000 OA
ATOM     31  N   UNL     1       1.832   2.392  20.846  0.00  0.00    +0.000 N 
ATOM     32  H   UNL     1       2.148   1.463  20.572  0.00  0.00    +0.000 HD
BRANCH  31  33
ATOM     33  N   UNL     1       1.941   2.782  22.196  0.00  0.00    +0.000 NA
ATOM     34  H   UNL     1       2.063   3.805  22.197  0.00  0.00    +0.000 HD
ATOM     35  H   UNL     1       2.838   2.435  22.550  0.00  0.00    +0.000 HD
ENDBRANCH  31  33
ENDBRANCH  28  29
ENDBRANCH  27  28
ENDBRANCH  26  27
ENDBRANCH  25  26
ENDBRANCH  24  25
ENDBRANCH  21  24
ENDBRANCH  10  18
BRANCH   1  37
ATOM     36  C   UNL     1      -3.639  14.968  24.413  0.00  0.00    +0.000 C 
ATOM     37  O   UNL     1      -2.564  14.041  24.485  0.00  0.00    +0.000 OA
ENDBRANCH   1  37
TORSDOF 9
ENDMDL
MODEL 7
REMARK VINA RESULT:      -7.8      2.309      2.910
REMARK  Name = 
REMARK  10 active torsions:
REMARK  status: ('A' for Active; 'I' for Inactive)
REMARK    1  A    between atoms: C_1  and  O_2
REMARK    2  A    between atoms: O_2  and  C_3
REMARK    3  A    between atoms: C_12  and  C_13
REMARK    4  A    between atoms: C_16  and  O_17
REMARK    5  A    between atoms: O_17  and  C_18
REMARK    6  A    between atoms: C_18  and  C_19
REMARK    7  A    between atoms: C_19  and  C_20
REMARK    8  A    between atoms: C_20  and  C_21
REMARK    9  A    between atoms: C_21  and  C_22
REMARK   10  A    between atoms: N_24  and  N_25
REMARK                            x       y       z     vdW  Elec       q    Type
REMARK                         _______ _______ _______ _____ _____    ______ ____
ROOT
ATOM      1  C   UNL     1      -5.746  12.696  18.905  0.00  0.00    +0.000 A 
ATOM      2  C   UNL     1      -5.154  13.371  19.970  0.00  0.00    +0.000 A 
ATOM      3  C   UNL     1      -3.791  13.204  20.237  0.00  0.00    +0.000 A 
ATOM      4  C   UNL     1      -3.002  12.346  19.461  0.00  0.00    +0.000 A 
ATOM      5  C   UNL     1      -3.620  11.656  18.396  0.00  0.00    +0.000 A 
ATOM      6  C   UNL     1      -4.980  11.838  18.121  0.00  0.00    +0.000 A 
ATOM      7  C   UNL     1      -2.787  10.753  17.529  0.00  0.00    +0.000 C 
ATOM      8  C   UNL     1      -1.735  10.028  18.365  0.00  0.00    +0.000 C 
ATOM      9  C   UNL     1      -0.952  10.959  19.252  0.00  0.00    +0.000 A 
ATOM     10  C   UNL     1       0.356  10.759  19.667  0.00  0.00    +0.000 A 
ATOM     11  N   UNL     1       1.001  11.676  20.428  0.00  0.00    +0.000 NA
ATOM     12  C   UNL     1       0.322  12.749  20.831  0.00  0.00    +0.000 A 
ATOM     13  N   UNL     1       1.003  13.696  21.567  0.00  0.00    +0.000 N 
ATOM     14  N   UNL     1      -0.947  12.999  20.532  0.00  0.00    +0.000 NA
ATOM     15  C   UNL     1      -1.577  12.095  19.756  0.00  0.00    +0.000 A 
ATOM     16  H   UNL     1       1.993  13.643  21.367  0.00  0.00    +0.000 HD
ATOM     17  H   UNL     1       0.558  14.596  21.461  0.00  0.00    +0.000 HD
ENDROOT
BRANCH  10  18
ATOM     18  C   UNL     1       1.189   9.593  19.292  0.00  0.00    +0.000 A 
ATOM     19  C   UNL     1       1.848   9.579  18.058  0.00  0.00    +0.000 A 
ATOM     20  C   UNL     1       2.580   8.468  17.633  0.00  0.00    +0.000 A 
ATOM     21  C   UNL     1       2.652   7.324  18.424  0.00  0.00    +0.000 A 
ATOM     22  C   UNL     1       2.043   7.329  19.674  0.00  0.00    +0.000 A 
ATOM     23  C   UNL     1       1.355   8.465  20.116  0.00  0.00    +0.000 A 
BRANCH  21  24
ATOM     24  O   UNL     1       3.278   6.155  18.076  0.00  0.00    +0.000 OA
BRANCH  24  25
ATOM     25  C   UNL     1       4.168   5.624  19.058  0.00  0.00    +0.000 C 
BRANCH  25  26
ATOM     26  C   UNL     1       4.033   4.108  19.117  0.00  0.00    +0.000 C 
BRANCH  26  27
ATOM     27  C   UNL     1       3.000   3.537  18.138  0.00  0.00    +0.000 C 
BRANCH  27  28
ATOM     28  C   UNL     1       2.115   2.467  18.767  0.00  0.00    +0.000 C 
BRANCH  28  29
ATOM     29  C   UNL     1       1.458   2.962  20.032  0.00  0.00    +0.000 C 
ATOM     30  O   UNL     1       0.702   3.930  20.060  0.00  0.00    +0.000 OA
ATOM     31  N   UNL     1       1.794   2.222  21.161  0.00  0.00    +0.000 N 
ATOM     32  H   UNL     1       2.285   1.334  21.067  0.00  0.00    +0.000 HD
BRANCH  31  33
ATOM     33  N   UNL     1       1.227   2.563  22.406  0.00  0.00    +0.000 NA
ATOM     34  H   UNL     1       1.620   3.480  22.666  0.00  0.00    +0.000 HD
ATOM     35  H   UNL     1       1.615   1.928  23.110  0.00  0.00    +0.000 HD
ENDBRANCH  31  33
ENDBRANCH  28  29
ENDBRANCH  27  28
ENDBRANCH  26  27
ENDBRANCH  25  26
ENDBRANCH  24  25
ENDBRANCH  21  24
ENDBRANCH  10  18
BRANCH   1  37
ATOM     36  C   UNL     1      -7.910  13.415  19.498  0.00  0.00    +0.000 C 
ATOM     37  O   UNL     1      -7.067  12.761  18.559  0.00  0.00    +0.000 OA
ENDBRANCH   1  37
TORSDOF 9
ENDMDL
MODEL 8
REMARK VINA RESULT:      -7.8      2.148      2.349
REMARK  Name = 
REMARK  10 active torsions:
REMARK  status: ('A' for Active; 'I' for Inactive)
REMARK    1  A    between atoms: C_1  and  O_2
REMARK    2  A    between atoms: O_2  and  C_3
REMARK    3  A    between atoms: C_12  and  C_13
REMARK    4  A    between atoms: C_16  and  O_17
REMARK    5  A    between atoms: O_17  and  C_18
REMARK    6  A    between atoms: C_18  and  C_19
REMARK    7  A    between atoms: C_19  and  C_20
REMARK    8  A    between atoms: C_20  and  C_21
REMARK    9  A    between atoms: C_21  and  C_22
REMARK   10  A    between atoms: N_24  and  N_25
REMARK                            x       y       z     vdW  Elec       q    Type
REMARK                         _______ _______ _______ _____ _____    ______ ____
ROOT
ATOM      1  C   UNL     1      -5.739  12.174  18.206  0.00  0.00    +0.000 A 
ATOM      2  C   UNL     1      -5.282  12.857  19.330  0.00  0.00    +0.000 A 
ATOM      3  C   UNL     1      -3.947  12.733  19.733  0.00  0.00    +0.000 A 
ATOM      4  C   UNL     1      -3.054  11.911  19.034  0.00  0.00    +0.000 A 
ATOM      5  C   UNL     1      -3.538  11.213  17.906  0.00  0.00    +0.000 A 
ATOM      6  C   UNL     1      -4.869  11.352  17.497  0.00  0.00    +0.000 A 
ATOM      7  C   UNL     1      -2.591  10.347  17.121  0.00  0.00    +0.000 C 
ATOM      8  C   UNL     1      -1.604   9.649  18.054  0.00  0.00    +0.000 C 
ATOM      9  C   UNL     1      -0.947  10.596  19.022  0.00  0.00    +0.000 A 
ATOM     10  C   UNL     1       0.318  10.435  19.566  0.00  0.00    +0.000 A 
ATOM     11  N   UNL     1       0.852  11.365  20.395  0.00  0.00    +0.000 NA
ATOM     12  C   UNL     1       0.099  12.410  20.735  0.00  0.00    +0.000 A 
ATOM     13  N   UNL     1       0.669  13.371  21.544  0.00  0.00    +0.000 N 
ATOM     14  N   UNL     1      -1.142  12.621  20.312  0.00  0.00    +0.000 NA
ATOM     15  C   UNL     1      -1.659  11.704  19.470  0.00  0.00    +0.000 A 
ATOM     16  H   UNL     1       1.675  13.353  21.444  0.00  0.00    +0.000 HD
ATOM     17  H   UNL     1       0.205  14.257  21.400  0.00  0.00    +0.000 HD
ENDROOT
BRANCH  10  18
ATOM     18  C   UNL     1       1.224   9.302  19.268  0.00  0.00    +0.000 A 
ATOM     19  C   UNL     1       1.861   9.231  18.023  0.00  0.00    +0.000 A 
ATOM     20  C   UNL     1       2.661   8.140  17.674  0.00  0.00    +0.000 A 
ATOM     21  C   UNL     1       2.828   7.074  18.555  0.00  0.00    +0.000 A 
ATOM     22  C   UNL     1       2.243   7.142  19.814  0.00  0.00    +0.000 A 
ATOM     23  C   UNL     1       1.485   8.261  20.178  0.00  0.00    +0.000 A 
BRANCH  21  24
ATOM     24  O   UNL     1       3.529   5.927  18.289  0.00  0.00    +0.000 OA
BRANCH  24  25
ATOM     25  C   UNL     1       4.542   6.049  17.290  0.00  0.00    +0.000 C 
BRANCH  25  26
ATOM     26  C   UNL     1       5.919   5.896  17.924  0.00  0.00    +0.000 C 
BRANCH  26  27
ATOM     27  C   UNL     1       7.001   6.770  17.278  0.00  0.00    +0.000 C 
BRANCH  27  28
ATOM     28  C   UNL     1       8.064   7.228  18.270  0.00  0.00    +0.000 C 
BRANCH  28  29
ATOM     29  C   UNL     1       8.293   8.718  18.192  0.00  0.00    +0.000 C 
ATOM     30  O   UNL     1       7.857   9.415  17.278  0.00  0.00    +0.000 OA
ATOM     31  N   UNL     1       9.046   9.223  19.246  0.00  0.00    +0.000 N 
ATOM     32  H   UNL     1       9.243   8.644  20.061  0.00  0.00    +0.000 HD
BRANCH  31  33
ATOM     33  N   UNL     1       9.311  10.606  19.307  0.00  0.00    +0.000 NA
ATOM     34  H   UNL     1       8.727  11.049  18.582  0.00  0.00    +0.000 HD
ATOM     35  H   UNL     1      10.266  10.756  18.969  0.00  0.00    +0.000 HD
ENDBRANCH  31  33
ENDBRANCH  28  29
ENDBRANCH  27  28
ENDBRANCH  26  27
ENDBRANCH  25  26
ENDBRANCH  24  25
ENDBRANCH  21  24
ENDBRANCH  10  18
BRANCH   1  37
ATOM     36  C   UNL     1      -7.649  13.473  17.742  0.00  0.00    +0.000 C 
ATOM     37  O   UNL     1      -7.020  12.199  17.729  0.00  0.00    +0.000 OA
ENDBRANCH   1  37
TORSDOF 9
ENDMDL
MODEL 9
REMARK VINA RESULT:      -7.8      2.796      3.823
REMARK  Name = 
REMARK  10 active torsions:
REMARK  status: ('A' for Active; 'I' for Inactive)
REMARK    1  A    between atoms: C_1  and  O_2
REMARK    2  A    between atoms: O_2  and  C_3
REMARK    3  A    between atoms: C_12  and  C_13
REMARK    4  A    between atoms: C_16  and  O_17
REMARK    5  A    between atoms: O_17  and  C_18
REMARK    6  A    between atoms: C_18  and  C_19
REMARK    7  A    between atoms: C_19  and  C_20
REMARK    8  A    between atoms: C_20  and  C_21
REMARK    9  A    between atoms: C_21  and  C_22
REMARK   10  A    between atoms: N_24  and  N_25
REMARK                            x       y       z     vdW  Elec       q    Type
REMARK                         _______ _______ _______ _____ _____    ______ ____
ROOT
ATOM      1  C   UNL     1      -2.277  14.626  23.161  0.00  0.00    +0.000 A 
ATOM      2  C   UNL     1      -2.614  14.976  21.856  0.00  0.00    +0.000 A 
ATOM      3  C   UNL     1      -2.335  14.102  20.799  0.00  0.00    +0.000 A 
ATOM      4  C   UNL     1      -1.697  12.876  21.025  0.00  0.00    +0.000 A 
ATOM      5  C   UNL     1      -1.347  12.543  22.351  0.00  0.00    +0.000 A 
ATOM      6  C   UNL     1      -1.643  13.411  23.407  0.00  0.00    +0.000 A 
ATOM      7  C   UNL     1      -0.689  11.218  22.622  0.00  0.00    +0.000 C 
ATOM      8  C   UNL     1       0.272  10.855  21.492  0.00  0.00    +0.000 C 
ATOM      9  C   UNL     1      -0.354  10.988  20.130  0.00  0.00    +0.000 A 
ATOM     10  C   UNL     1      -0.004  10.246  19.012  0.00  0.00    +0.000 A 
ATOM     11  N   UNL     1      -0.655  10.398  17.833  0.00  0.00    +0.000 NA
ATOM     12  C   UNL     1      -1.598  11.335  17.753  0.00  0.00    +0.000 A 
ATOM     13  N   UNL     1      -2.284  11.451  16.560  0.00  0.00    +0.000 N 
ATOM     14  N   UNL     1      -1.963  12.132  18.750  0.00  0.00    +0.000 NA
ATOM     15  C   UNL     1      -1.327  11.961  19.926  0.00  0.00    +0.000 A 
ATOM     16  H   UNL     1      -2.254  10.573  16.060  0.00  0.00    +0.000 HD
ATOM     17  H   UNL     1      -3.192  11.858  16.728  0.00  0.00    +0.000 HD
ENDROOT
BRANCH  10  18
ATOM     18  C   UNL     1       1.041   9.197  18.991  0.00  0.00    +0.000 A 
ATOM     19  C   UNL     1       1.828   9.022  17.846  0.00  0.00    +0.000 A 
ATOM     20  C   UNL     1       2.770   7.995  17.756  0.00  0.00    +0.000 A 
ATOM     21  C   UNL     1       2.935   7.093  18.805  0.00  0.00    +0.000 A 
ATOM     22  C   UNL     1       2.198   7.272  19.971  0.00  0.00    +0.000 A 
ATOM     23  C   UNL     1       1.294   8.335  20.074  0.00  0.00    +0.000 A 
BRANCH  21  24
ATOM     24  O   UNL     1       3.775   6.010  18.797  0.00  0.00    +0.000 OA
BRANCH  24  25
ATOM     25  C   UNL     1       3.159   4.758  19.099  0.00  0.00    +0.000 C 
BRANCH  25  26
ATOM     26  C   UNL     1       4.010   3.615  18.560  0.00  0.00    +0.000 C 
BRANCH  26  27
ATOM     27  C   UNL     1       5.171   4.072  17.669  0.00  0.00    +0.000 C 
BRANCH  27  28
ATOM     28  C   UNL     1       4.766   4.245  16.210  0.00  0.00    +0.000 C 
BRANCH  28  29
ATOM     29  C   UNL     1       5.657   5.235  15.499  0.00  0.00    +0.000 C 
ATOM     30  O   UNL     1       5.393   6.433  15.416  0.00  0.00    +0.000 OA
ATOM     31  N   UNL     1       6.797   4.663  14.947  0.00  0.00    +0.000 N 
ATOM     32  H   UNL     1       7.059   3.707  15.182  0.00  0.00    +0.000 HD
BRANCH  31  33
ATOM     33  N   UNL     1       7.728   5.483  14.277  0.00  0.00    +0.000 NA
ATOM     34  H   UNL     1       8.163   6.081  14.995  0.00  0.00    +0.000 HD
ATOM     35  H   UNL     1       7.201   6.147  13.701  0.00  0.00    +0.000 HD
ENDBRANCH  31  33
ENDBRANCH  28  29
ENDBRANCH  27  28
ENDBRANCH  26  27
ENDBRANCH  25  26
ENDBRANCH  24  25
ENDBRANCH  21  24
ENDBRANCH  10  18
BRANCH   1  37
ATOM     36  C   UNL     1      -3.799  15.382  24.792  0.00  0.00    +0.000 C 
ATOM     37  O   UNL     1      -2.479  15.402  24.268  0.00  0.00    +0.000 OA
ENDBRANCH   1  37
TORSDOF 9
ENDMDL
