MODEL 1
REMARK VINA RESULT:      -7.0      0.000      0.000
REMARK  Name = 
REMARK  4 active torsions:
REMARK  status: ('A' for Active; 'I' for Inactive)
REMARK    1  A    between atoms: C_2  and  C_3
REMARK    2  A    between atoms: C_4  and  C_5
REMARK    3  A    between atoms: N_12  and  C_13
REMARK    4  A    between atoms: C_13  and  C_14
REMARK                            x       y       z     vdW  Elec       q    Type
REMARK                         _______ _______ _______ _____ _____    ______ ____
ROOT
ATOM      1  O   UNL     1       5.313   5.240  19.454  0.00  0.00    +0.000 OA
ATOM      2  C   UNL     1       5.476   4.322  18.664  0.00  0.00    +0.000 C 
ATOM      3  N   UNL     1       5.139   3.014  18.904  0.00  0.00    +0.000 N 
ATOM      4  H   UNL     1       5.294   2.304  18.205  0.00  0.00    +0.000 HD
ENDROOT
BRANCH   2   5
ATOM      5  C   UNL     1       6.059   4.521  17.312  0.00  0.00    +0.000 C 
ATOM      6  C   UNL     1       5.480   3.983  16.225  0.00  0.00    +0.000 C 
BRANCH   6   7
ATOM      7  C   UNL     1       6.012   4.134  14.862  0.00  0.00    +0.000 A 
ATOM      8  C   UNL     1       5.416   3.507  13.755  0.00  0.00    +0.000 A 
ATOM      9  C   UNL     1       5.946   3.667  12.472  0.00  0.00    +0.000 A 
ATOM     10  C   UNL     1       7.061   4.472  12.289  0.00  0.00    +0.000 A 
ATOM     11  F   UNL     1       7.572   4.620  11.059  0.00  0.00    +0.000 F 
ATOM     12  C   UNL     1       7.650   5.128  13.361  0.00  0.00    +0.000 A 
ATOM     13  C   UNL     1       7.123   4.965  14.647  0.00  0.00    +0.000 A 
ENDBRANCH   6   7
ENDBRANCH   2   5
BRANCH   3  14
ATOM     14  C   UNL     1       4.507   2.596  20.135  0.00  0.00    +0.000 C 
BRANCH  14  15
ATOM     15  C   UNL     1       3.027   2.773  20.000  0.00  0.00    +0.000 A 
ATOM     16  C   UNL     1       2.167   3.429  20.860  0.00  0.00    +0.000 A 
ATOM     17  C   UNL     1       0.825   3.443  20.381  0.00  0.00    +0.000 A 
ATOM     18  C   UNL     1       0.699   2.783  19.180  0.00  0.00    +0.000 A 
ATOM     19  S   UNL     1       2.192   2.146  18.639  0.00  0.00    +0.000 S 
ENDBRANCH  14  15
ENDBRANCH   3  14
TORSDOF 4
ENDMDL
MODEL 2
REMARK VINA RESULT:      -6.9      6.745      7.757
REMARK  Name = 
REMARK  4 active torsions:
REMARK  status: ('A' for Active; 'I' for Inactive)
REMARK    1  A    between atoms: C_2  and  C_3
REMARK    2  A    between atoms: C_4  and  C_5
REMARK    3  A    between atoms: N_12  and  C_13
REMARK    4  A    between atoms: C_13  and  C_14
REMARK                            x       y       z     vdW  Elec       q    Type
REMARK                         _______ _______ _______ _____ _____    ______ ____
ROOT
ATOM      1  O   UNL     1       8.049   6.733  18.666  0.00  0.00    +0.000 OA
ATOM      2  C   UNL     1       7.709   7.625  17.904  0.00  0.00    +0.000 C 
ATOM      3  N   UNL     1       6.736   7.506  16.944  0.00  0.00    +0.000 N 
ATOM      4  H   UNL     1       6.497   8.286  16.351  0.00  0.00    +0.000 HD
ENDROOT
BRANCH   2   5
ATOM      5  C   UNL     1       8.314   8.981  17.936  0.00  0.00    +0.000 C 
ATOM      6  C   UNL     1       9.016   9.399  19.004  0.00  0.00    +0.000 C 
BRANCH   6   7
ATOM      7  C   UNL     1       9.630  10.733  19.101  0.00  0.00    +0.000 A 
ATOM      8  C   UNL     1      10.017  11.460  17.963  0.00  0.00    +0.000 A 
ATOM      9  C   UNL     1      10.600  12.723  18.088  0.00  0.00    +0.000 A 
ATOM     10  C   UNL     1      10.778  13.273  19.349  0.00  0.00    +0.000 A 
ATOM     11  F   UNL     1      11.343  14.482  19.467  0.00  0.00    +0.000 F 
ATOM     12  C   UNL     1      10.376  12.588  20.487  0.00  0.00    +0.000 A 
ATOM     13  C   UNL     1       9.795  11.321  20.364  0.00  0.00    +0.000 A 
ENDBRANCH   6   7
ENDBRANCH   2   5
BRANCH   3  14
ATOM     14  C   UNL     1       5.975   6.290  16.768  0.00  0.00    +0.000 C 
BRANCH  14  15
ATOM     15  C   UNL     1       4.776   6.338  17.662  0.00  0.00    +0.000 A 
ATOM     16  C   UNL     1       3.674   7.166  17.562  0.00  0.00    +0.000 A 
ATOM     17  C   UNL     1       2.696   6.894  18.562  0.00  0.00    +0.000 A 
ATOM     18  C   UNL     1       3.089   5.878  19.404  0.00  0.00    +0.000 A 
ATOM     19  S   UNL     1       4.631   5.263  18.990  0.00  0.00    +0.000 S 
ENDBRANCH  14  15
ENDBRANCH   3  14
TORSDOF 4
ENDMDL
MODEL 3
REMARK VINA RESULT:      -6.9      0.251      1.164
REMARK  Name = 
REMARK  4 active torsions:
REMARK  status: ('A' for Active; 'I' for Inactive)
REMARK    1  A    between atoms: C_2  and  C_3
REMARK    2  A    between atoms: C_4  and  C_5
REMARK    3  A    between atoms: N_12  and  C_13
REMARK    4  A    between atoms: C_13  and  C_14
REMARK                            x       y       z     vdW  Elec       q    Type
REMARK                         _______ _______ _______ _____ _____    ______ ____
ROOT
ATOM      1  O   UNL     1       5.706   5.260  19.611  0.00  0.00    +0.000 OA
ATOM      2  C   UNL     1       5.701   4.358  18.786  0.00  0.00    +0.000 C 
ATOM      3  N   UNL     1       5.162   3.114  18.992  0.00  0.00    +0.000 N 
ATOM      4  H   UNL     1       5.184   2.415  18.265  0.00  0.00    +0.000 HD
ENDROOT
BRANCH   2   5
ATOM      5  C   UNL     1       6.279   4.511  17.427  0.00  0.00    +0.000 C 
ATOM      6  C   UNL     1       5.576   4.165  16.335  0.00  0.00    +0.000 C 
BRANCH   6   7
ATOM      7  C   UNL     1       6.095   4.282  14.963  0.00  0.00    +0.000 A 
ATOM      8  C   UNL     1       7.210   5.080  14.654  0.00  0.00    +0.000 A 
ATOM      9  C   UNL     1       7.678   5.174  13.341  0.00  0.00    +0.000 A 
ATOM     10  C   UNL     1       7.047   4.454  12.336  0.00  0.00    +0.000 A 
ATOM     11  F   UNL     1       7.494   4.550  11.078  0.00  0.00    +0.000 F 
ATOM     12  C   UNL     1       5.964   3.635  12.621  0.00  0.00    +0.000 A 
ATOM     13  C   UNL     1       5.491   3.543  13.935  0.00  0.00    +0.000 A 
ENDBRANCH   6   7
ENDBRANCH   2   5
BRANCH   3  14
ATOM     14  C   UNL     1       4.497   2.757  20.224  0.00  0.00    +0.000 C 
BRANCH  14  15
ATOM     15  C   UNL     1       3.027   2.988  20.063  0.00  0.00    +0.000 A 
ATOM     16  C   UNL     1       2.228   3.887  20.743  0.00  0.00    +0.000 A 
ATOM     17  C   UNL     1       0.878   3.868  20.287  0.00  0.00    +0.000 A 
ATOM     18  C   UNL     1       0.685   2.945  19.284  0.00  0.00    +0.000 A 
ATOM     19  S   UNL     1       2.125   2.103  18.902  0.00  0.00    +0.000 S 
ENDBRANCH  14  15
ENDBRANCH   3  14
TORSDOF 4
ENDMDL
MODEL 4
REMARK VINA RESULT:      -6.9      6.370      7.396
REMARK  Name = 
REMARK  4 active torsions:
REMARK  status: ('A' for Active; 'I' for Inactive)
REMARK    1  A    between atoms: C_2  and  C_3
REMARK    2  A    between atoms: C_4  and  C_5
REMARK    3  A    between atoms: N_12  and  C_13
REMARK    4  A    between atoms: C_13  and  C_14
REMARK                            x       y       z     vdW  Elec       q    Type
REMARK                         _______ _______ _______ _____ _____    ______ ____
ROOT
ATOM      1  O   UNL     1       7.215   7.285  16.651  0.00  0.00    +0.000 OA
ATOM      2  C   UNL     1       7.695   7.166  17.769  0.00  0.00    +0.000 C 
ATOM      3  N   UNL     1       7.709   6.002  18.495  0.00  0.00    +0.000 N 
ATOM      4  H   UNL     1       8.130   5.970  19.411  0.00  0.00    +0.000 HD
ENDROOT
BRANCH   2   5
ATOM      5  C   UNL     1       8.350   8.291  18.484  0.00  0.00    +0.000 C 
ATOM      6  C   UNL     1       8.447   9.506  17.918  0.00  0.00    +0.000 C 
BRANCH   6   7
ATOM      7  C   UNL     1       9.091  10.657  18.569  0.00  0.00    +0.000 A 
ATOM      8  C   UNL     1       9.192  11.910  17.940  0.00  0.00    +0.000 A 
ATOM      9  C   UNL     1       9.812  12.983  18.583  0.00  0.00    +0.000 A 
ATOM     10  C   UNL     1      10.316  12.815  19.865  0.00  0.00    +0.000 A 
ATOM     11  F   UNL     1      10.916  13.845  20.476  0.00  0.00    +0.000 F 
ATOM     12  C   UNL     1      10.202  11.597  20.520  0.00  0.00    +0.000 A 
ATOM     13  C   UNL     1       9.584  10.519  19.876  0.00  0.00    +0.000 A 
ENDBRANCH   6   7
ENDBRANCH   2   5
BRANCH   3  14
ATOM     14  C   UNL     1       7.175   4.764  17.974  0.00  0.00    +0.000 C 
BRANCH  14  15
ATOM     15  C   UNL     1       5.686   4.781  18.124  0.00  0.00    +0.000 A 
ATOM     16  C   UNL     1       4.945   5.240  19.197  0.00  0.00    +0.000 A 
ATOM     17  C   UNL     1       3.541   5.148  18.968  0.00  0.00    +0.000 A 
ATOM     18  C   UNL     1       3.255   4.608  17.735  0.00  0.00    +0.000 A 
ATOM     19  S   UNL     1       4.673   4.209  16.864  0.00  0.00    +0.000 S 
ENDBRANCH  14  15
ENDBRANCH   3  14
TORSDOF 4
ENDMDL
MODEL 5
REMARK VINA RESULT:      -6.9      6.193      7.266
REMARK  Name = 
REMARK  4 active torsions:
REMARK  status: ('A' for Active; 'I' for Inactive)
REMARK    1  A    between atoms: C_2  and  C_3
REMARK    2  A    between atoms: C_4  and  C_5
REMARK    3  A    between atoms: N_12  and  C_13
REMARK    4  A    between atoms: C_13  and  C_14
REMARK                            x       y       z     vdW  Elec       q    Type
REMARK                         _______ _______ _______ _____ _____    ______ ____
ROOT
ATOM      1  O   UNL     1       6.621   7.523  16.736  0.00  0.00    +0.000 OA
ATOM      2  C   UNL     1       7.493   7.157  17.510  0.00  0.00    +0.000 C 
ATOM      3  N   UNL     1       7.753   5.850  17.833  0.00  0.00    +0.000 N 
ATOM      4  H   UNL     1       8.495   5.614  18.475  0.00  0.00    +0.000 HD
ENDROOT
BRANCH   2   5
ATOM      5  C   UNL     1       8.407   8.106  18.196  0.00  0.00    +0.000 C 
ATOM      6  C   UNL     1       8.326   9.429  17.969  0.00  0.00    +0.000 C 
BRANCH   6   7
ATOM      7  C   UNL     1       9.207  10.418  18.608  0.00  0.00    +0.000 A 
ATOM      8  C   UNL     1       9.200  10.635  19.997  0.00  0.00    +0.000 A 
ATOM      9  C   UNL     1      10.047  11.584  20.575  0.00  0.00    +0.000 A 
ATOM     10  C   UNL     1      10.918  12.304  19.770  0.00  0.00    +0.000 A 
ATOM     11  F   UNL     1      11.725  13.218  20.325  0.00  0.00    +0.000 F 
ATOM     12  C   UNL     1      10.966  12.086  18.400  0.00  0.00    +0.000 A 
ATOM     13  C   UNL     1      10.116  11.139  17.819  0.00  0.00    +0.000 A 
ENDBRANCH   6   7
ENDBRANCH   2   5
BRANCH   3  14
ATOM     14  C   UNL     1       7.023   4.751  17.243  0.00  0.00    +0.000 C 
BRANCH  14  15
ATOM     15  C   UNL     1       5.704   4.621  17.938  0.00  0.00    +0.000 A 
ATOM     16  C   UNL     1       5.424   4.822  19.276  0.00  0.00    +0.000 A 
ATOM     17  C   UNL     1       4.040   4.659  19.573  0.00  0.00    +0.000 A 
ATOM     18  C   UNL     1       3.309   4.324  18.457  0.00  0.00    +0.000 A 
ATOM     19  S   UNL     1       4.291   4.201  17.060  0.00  0.00    +0.000 S 
ENDBRANCH  14  15
ENDBRANCH   3  14
TORSDOF 4
ENDMDL
MODEL 6
REMARK VINA RESULT:      -6.8      6.214      7.240
REMARK  Name = 
REMARK  4 active torsions:
REMARK  status: ('A' for Active; 'I' for Inactive)
REMARK    1  A    between atoms: C_2  and  C_3
REMARK    2  A    between atoms: C_4  and  C_5
REMARK    3  A    between atoms: N_12  and  C_13
REMARK    4  A    between atoms: C_13  and  C_14
REMARK                            x       y       z     vdW  Elec       q    Type
REMARK                         _______ _______ _______ _____ _____    ______ ____
ROOT
ATOM      1  O   UNL     1       7.772   5.743  17.450  0.00  0.00    +0.000 OA
ATOM      2  C   UNL     1       7.408   6.910  17.477  0.00  0.00    +0.000 C 
ATOM      3  N   UNL     1       6.273   7.389  16.874  0.00  0.00    +0.000 N 
ATOM      4  H   UNL     1       6.024   8.364  16.942  0.00  0.00    +0.000 HD
ENDROOT
BRANCH   2   5
ATOM      5  C   UNL     1       8.161   7.969  18.196  0.00  0.00    +0.000 C 
ATOM      6  C   UNL     1       8.094   9.252  17.803  0.00  0.00    +0.000 C 
BRANCH   6   7
ATOM      7  C   UNL     1       8.823  10.345  18.466  0.00  0.00    +0.000 A 
ATOM      8  C   UNL     1       9.385  10.197  19.746  0.00  0.00    +0.000 A 
ATOM      9  C   UNL     1      10.069  11.254  20.350  0.00  0.00    +0.000 A 
ATOM     10  C   UNL     1      10.214  12.454  19.670  0.00  0.00    +0.000 A 
ATOM     11  F   UNL     1      10.865  13.468  20.255  0.00  0.00    +0.000 F 
ATOM     12  C   UNL     1       9.696  12.615  18.393  0.00  0.00    +0.000 A 
ATOM     13  C   UNL     1       9.006  11.559  17.787  0.00  0.00    +0.000 A 
ENDBRANCH   6   7
ENDBRANCH   2   5
BRANCH   3  14
ATOM     14  C   UNL     1       5.357   6.526  16.162  0.00  0.00    +0.000 C 
BRANCH  14  15
ATOM     15  C   UNL     1       4.296   6.063  17.111  0.00  0.00    +0.000 A 
ATOM     16  C   UNL     1       3.426   6.835  17.857  0.00  0.00    +0.000 A 
ATOM     17  C   UNL     1       2.511   6.047  18.614  0.00  0.00    +0.000 A 
ATOM     18  C   UNL     1       2.721   4.699  18.434  0.00  0.00    +0.000 A 
ATOM     19  S   UNL     1       4.020   4.389  17.364  0.00  0.00    +0.000 S 
ENDBRANCH  14  15
ENDBRANCH   3  14
TORSDOF 4
ENDMDL
MODEL 7
REMARK VINA RESULT:      -6.7      6.572      7.506
REMARK  Name = 
REMARK  4 active torsions:
REMARK  status: ('A' for Active; 'I' for Inactive)
REMARK    1  A    between atoms: C_2  and  C_3
REMARK    2  A    between atoms: C_4  and  C_5
REMARK    3  A    between atoms: N_12  and  C_13
REMARK    4  A    between atoms: C_13  and  C_14
REMARK                            x       y       z     vdW  Elec       q    Type
REMARK                         _______ _______ _______ _____ _____    ______ ____
ROOT
ATOM      1  O   UNL     1       7.965   6.815  18.816  0.00  0.00    +0.000 OA
ATOM      2  C   UNL     1       7.655   7.537  17.880  0.00  0.00    +0.000 C 
ATOM      3  N   UNL     1       6.766   7.197  16.892  0.00  0.00    +0.000 N 
ATOM      4  H   UNL     1       6.547   7.843  16.149  0.00  0.00    +0.000 HD
ENDROOT
BRANCH   2   5
ATOM      5  C   UNL     1       8.204   8.906  17.705  0.00  0.00    +0.000 C 
ATOM      6  C   UNL     1       8.906   9.498  18.686  0.00  0.00    +0.000 C 
BRANCH   6   7
ATOM      7  C   UNL     1       9.467  10.854  18.579  0.00  0.00    +0.000 A 
ATOM      8  C   UNL     1      10.753  11.168  19.052  0.00  0.00    +0.000 A 
ATOM      9  C   UNL     1      11.257  12.466  18.939  0.00  0.00    +0.000 A 
ATOM     10  C   UNL     1      10.488  13.449  18.334  0.00  0.00    +0.000 A 
ATOM     11  F   UNL     1      10.971  14.694  18.232  0.00  0.00    +0.000 F 
ATOM     12  C   UNL     1       9.228  13.157  17.831  0.00  0.00    +0.000 A 
ATOM     13  C   UNL     1       8.719  11.859  17.947  0.00  0.00    +0.000 A 
ENDBRANCH   6   7
ENDBRANCH   2   5
BRANCH   3  14
ATOM     14  C   UNL     1       6.066   5.932  16.888  0.00  0.00    +0.000 C 
BRANCH  14  15
ATOM     15  C   UNL     1       4.750   6.107  17.578  0.00  0.00    +0.000 A 
ATOM     16  C   UNL     1       3.870   7.167  17.473  0.00  0.00    +0.000 A 
ATOM     17  C   UNL     1       2.684   6.968  18.238  0.00  0.00    +0.000 A 
ATOM     18  C   UNL     1       2.703   5.770  18.915  0.00  0.00    +0.000 A 
ATOM     19  S   UNL     1       4.147   4.896  18.633  0.00  0.00    +0.000 S 
ENDBRANCH  14  15
ENDBRANCH   3  14
TORSDOF 4
ENDMDL
MODEL 8
REMARK VINA RESULT:      -6.6      5.887      6.831
REMARK  Name = 
REMARK  4 active torsions:
REMARK  status: ('A' for Active; 'I' for Inactive)
REMARK    1  A    between atoms: C_2  and  C_3
REMARK    2  A    between atoms: C_4  and  C_5
REMARK    3  A    between atoms: N_12  and  C_13
REMARK    4  A    between atoms: C_13  and  C_14
REMARK                            x       y       z     vdW  Elec       q    Type
REMARK                         _______ _______ _______ _____ _____    ______ ____
ROOT
ATOM      1  O   UNL     1       7.519   6.188  16.154  0.00  0.00    +0.000 OA
ATOM      2  C   UNL     1       7.167   6.740  17.186  0.00  0.00    +0.000 C 
ATOM      3  N   UNL     1       6.498   6.123  18.213  0.00  0.00    +0.000 N 
ATOM      4  H   UNL     1       6.243   6.635  19.044  0.00  0.00    +0.000 HD
ENDROOT
BRANCH   2   5
ATOM      5  C   UNL     1       7.443   8.172  17.464  0.00  0.00    +0.000 C 
ATOM      6  C   UNL     1       8.492   8.539  18.221  0.00  0.00    +0.000 C 
BRANCH   6   7
ATOM      7  C   UNL     1       8.812   9.939  18.541  0.00  0.00    +0.000 A 
ATOM      8  C   UNL     1       8.525  10.991  17.654  0.00  0.00    +0.000 A 
ATOM      9  C   UNL     1       8.844  12.310  17.985  0.00  0.00    +0.000 A 
ATOM     10  C   UNL     1       9.431  12.585  19.212  0.00  0.00    +0.000 A 
ATOM     11  F   UNL     1       9.741  13.850  19.524  0.00  0.00    +0.000 F 
ATOM     12  C   UNL     1       9.695  11.568  20.118  0.00  0.00    +0.000 A 
ATOM     13  C   UNL     1       9.381  10.246  19.786  0.00  0.00    +0.000 A 
ENDBRANCH   6   7
ENDBRANCH   2   5
BRANCH   3  14
ATOM     14  C   UNL     1       6.171   4.716  18.184  0.00  0.00    +0.000 C 
BRANCH  14  15
ATOM     15  C   UNL     1       4.689   4.569  18.035  0.00  0.00    +0.000 A 
ATOM     16  C   UNL     1       3.998   3.598  17.336  0.00  0.00    +0.000 A 
ATOM     17  C   UNL     1       2.585   3.742  17.458  0.00  0.00    +0.000 A 
ATOM     18  C   UNL     1       2.243   4.826  18.233  0.00  0.00    +0.000 A 
ATOM     19  S   UNL     1       3.620   5.668  18.802  0.00  0.00    +0.000 S 
ENDBRANCH  14  15
ENDBRANCH   3  14
TORSDOF 4
ENDMDL
MODEL 9
REMARK VINA RESULT:      -6.6      6.604      7.610
REMARK  Name = 
REMARK  4 active torsions:
REMARK  status: ('A' for Active; 'I' for Inactive)
REMARK    1  A    between atoms: C_2  and  C_3
REMARK    2  A    between atoms: C_4  and  C_5
REMARK    3  A    between atoms: N_12  and  C_13
REMARK    4  A    between atoms: C_13  and  C_14
REMARK                            x       y       z     vdW  Elec       q    Type
REMARK                         _______ _______ _______ _____ _____    ______ ____
ROOT
ATOM      1  O   UNL     1       8.054   6.544  18.445  0.00  0.00    +0.000 OA
ATOM      2  C   UNL     1       7.596   7.480  17.806  0.00  0.00    +0.000 C 
ATOM      3  N   UNL     1       6.522   7.395  16.956  0.00  0.00    +0.000 N 
ATOM      4  H   UNL     1       6.188   8.209  16.463  0.00  0.00    +0.000 HD
ENDROOT
BRANCH   2   5
ATOM      5  C   UNL     1       8.151   8.855  17.887  0.00  0.00    +0.000 C 
ATOM      6  C   UNL     1       8.919   9.229  18.924  0.00  0.00    +0.000 C 
BRANCH   6   7
ATOM      7  C   UNL     1       9.490  10.578  19.068  0.00  0.00    +0.000 A 
ATOM      8  C   UNL     1       9.838  11.362  17.955  0.00  0.00    +0.000 A 
ATOM      9  C   UNL     1      10.380  12.638  18.124  0.00  0.00    +0.000 A 
ATOM     10  C   UNL     1      10.557  13.144  19.404  0.00  0.00    +0.000 A 
ATOM     11  F   UNL     1      11.082  14.365  19.563  0.00  0.00    +0.000 F 
ATOM     12  C   UNL     1      10.191  12.401  20.518  0.00  0.00    +0.000 A 
ATOM     13  C   UNL     1       9.652  11.121  20.351  0.00  0.00    +0.000 A 
ENDBRANCH   6   7
ENDBRANCH   2   5
BRANCH   3  14
ATOM     14  C   UNL     1       5.790   6.164  16.762  0.00  0.00    +0.000 C 
BRANCH  14  15
ATOM     15  C   UNL     1       4.702   6.084  17.787  0.00  0.00    +0.000 A 
ATOM     16  C   UNL     1       4.585   5.189  18.833  0.00  0.00    +0.000 A 
ATOM     17  C   UNL     1       3.441   5.446  19.644  0.00  0.00    +0.000 A 
ATOM     18  C   UNL     1       2.714   6.519  19.183  0.00  0.00    +0.000 A 
ATOM     19  S   UNL     1       3.405   7.206  17.776  0.00  0.00    +0.000 S 
ENDBRANCH  14  15
ENDBRANCH   3  14
TORSDOF 4
ENDMDL
