MODEL 1
REMARK VINA RESULT:      -7.1      0.000      0.000
REMARK  Name = 
REMARK  4 active torsions:
REMARK  status: ('A' for Active; 'I' for Inactive)
REMARK    1  A    between atoms: C_2  and  C_3
REMARK    2  A    between atoms: C_3  and  O_4
REMARK    3  A    between atoms: O_4  and  C_5
REMARK    4  A    between atoms: C_21  and  N_22
REMARK                            x       y       z     vdW  Elec       q    Type
REMARK                         _______ _______ _______ _____ _____    ______ ____
ROOT
ATOM      1  O   UNL     1       1.124  11.990  18.401  0.00  0.00    +0.000 OA
ATOM      2  C   UNL     1       0.383  12.206  19.356  0.00  0.00    +0.000 C 
ATOM      3  N   UNL     1      -0.768  11.405  19.663  0.00  0.00    +0.000 N 
ATOM      4  C   UNL     1      -0.608  10.028  19.105  0.00  0.00    +0.000 C 
ATOM      5  C   UNL     1      -1.167  10.070  17.679  0.00  0.00    +0.000 C 
ATOM      6  C   UNL     1      -2.288  11.021  17.950  0.00  0.00    +0.000 A 
ATOM      7  C   UNL     1      -3.534  10.959  17.366  0.00  0.00    +0.000 A 
ATOM      8  C   UNL     1      -4.610  11.485  18.022  0.00  0.00    +0.000 A 
ATOM      9  N   UNL     1      -5.786  11.140  17.495  0.00  0.00    +0.000 NA
ATOM     10  C   UNL     1      -6.899  11.447  18.169  0.00  0.00    +0.000 A 
ATOM     11  C   UNL     1      -6.901  12.166  19.343  0.00  0.00    +0.000 A 
ATOM     12  C   UNL     1      -5.688  12.606  19.897  0.00  0.00    +0.000 A 
ATOM     13  C   UNL     1      -4.454  12.233  19.238  0.00  0.00    +0.000 A 
ATOM     14  C   UNL     1      -3.100  12.423  19.724  0.00  0.00    +0.000 A 
ATOM     15  C   UNL     1      -2.031  11.794  19.080  0.00  0.00    +0.000 A 
ENDROOT
BRANCH  12  16
ATOM     16  N   UNL     1      -5.729  13.395  21.051  0.00  0.00    +0.000 N 
ATOM     17  C   UNL     1      -6.437  12.965  22.294  0.00  0.00    +0.000 C 
ATOM     18  C   UNL     1      -7.234  14.073  23.064  0.00  0.00    +0.000 C 
ATOM     19  N   UNL     1      -6.724  15.425  22.858  0.00  0.00    +0.000 NA
ATOM     20  C   UNL     1      -7.533  16.519  23.369  0.00  0.00    +0.000 C 
ATOM     21  C   UNL     1      -6.845  17.705  22.699  0.00  0.00    +0.000 C 
ATOM     22  C   UNL     1      -6.374  17.179  21.341  0.00  0.00    +0.000 C 
ATOM     23  C   UNL     1      -6.590  15.674  21.417  0.00  0.00    +0.000 C 
ATOM     24  C   UNL     1      -5.439  14.829  20.870  0.00  0.00    +0.000 C 
ENDBRANCH  12  16
BRANCH   2  25
ATOM     25  C   UNL     1       0.781  13.132  20.510  0.00  0.00    +0.000 C 
BRANCH  25  26
ATOM     26  O   UNL     1       0.652  12.564  21.813  0.00  0.00    +0.000 OA
BRANCH  26  27
ATOM     27  C   UNL     1      -0.560  12.799  22.418  0.00  0.00    +0.000 A 
ATOM     28  C   UNL     1      -0.915  14.156  22.478  0.00  0.00    +0.000 A 
ATOM     29  C   UNL     1      -2.151  14.554  23.008  0.00  0.00    +0.000 A 
ATOM     30  C   UNL     1      -3.038  13.598  23.498  0.00  0.00    +0.000 A 
ATOM     31  C   UNL     1      -2.667  12.258  23.502  0.00  0.00    +0.000 A 
ATOM     32  C   UNL     1      -1.420  11.856  22.996  0.00  0.00    +0.000 A 
ATOM     33 CL   UNL     1      -1.037  10.189  23.237  0.00  0.00    +0.000 Cl
ENDBRANCH  26  27
ENDBRANCH  25  26
ENDBRANCH   2  25
TORSDOF 4
ENDMDL
MODEL 2
REMARK VINA RESULT:      -7.0      5.153      9.662
REMARK  Name = 
REMARK  4 active torsions:
REMARK  status: ('A' for Active; 'I' for Inactive)
REMARK    1  A    between atoms: C_2  and  C_3
REMARK    2  A    between atoms: C_3  and  O_4
REMARK    3  A    between atoms: O_4  and  C_5
REMARK    4  A    between atoms: C_21  and  N_22
REMARK                            x       y       z     vdW  Elec       q    Type
REMARK                         _______ _______ _______ _____ _____    ______ ____
ROOT
ATOM      1  O   UNL     1      -0.354   9.756  17.631  0.00  0.00    +0.000 OA
ATOM      2  C   UNL     1       0.669  10.037  18.249  0.00  0.00    +0.000 C 
ATOM      3  N   UNL     1       0.723  11.034  19.281  0.00  0.00    +0.000 N 
ATOM      4  C   UNL     1      -0.626  11.222  19.895  0.00  0.00    +0.000 C 
ATOM      5  C   UNL     1      -1.335  12.294  19.064  0.00  0.00    +0.000 C 
ATOM      6  C   UNL     1      -0.131  13.134  18.782  0.00  0.00    +0.000 A 
ATOM      7  C   UNL     1      -0.126  14.510  18.717  0.00  0.00    +0.000 A 
ATOM      8  C   UNL     1       1.027  15.191  18.986  0.00  0.00    +0.000 A 
ATOM      9  N   UNL     1       0.854  16.503  19.151  0.00  0.00    +0.000 NA
ATOM     10  C   UNL     1       1.883  17.229  19.599  0.00  0.00    +0.000 A 
ATOM     11  C   UNL     1       3.135  16.706  19.831  0.00  0.00    +0.000 A 
ATOM     12  C   UNL     1       3.378  15.341  19.606  0.00  0.00    +0.000 A 
ATOM     13  C   UNL     1       2.272  14.505  19.189  0.00  0.00    +0.000 A 
ATOM     14  C   UNL     1       2.252  13.058  19.074  0.00  0.00    +0.000 A 
ATOM     15  C   UNL     1       1.040  12.388  18.890  0.00  0.00    +0.000 A 
ENDROOT
BRANCH  12  16
ATOM     16  N   UNL     1       4.678  14.856  19.783  0.00  0.00    +0.000 N 
ATOM     17  C   UNL     1       5.309  14.720  21.129  0.00  0.00    +0.000 C 
ATOM     18  C   UNL     1       6.822  15.113  21.236  0.00  0.00    +0.000 C 
ATOM     19  N   UNL     1       7.562  14.975  19.985  0.00  0.00    +0.000 NA
ATOM     20  C   UNL     1       8.911  15.517  19.955  0.00  0.00    +0.000 C 
ATOM     21  C   UNL     1       9.196  15.461  18.458  0.00  0.00    +0.000 C 
ATOM     22  C   UNL     1       7.849  15.732  17.784  0.00  0.00    +0.000 C 
ATOM     23  C   UNL     1       6.835  15.674  18.918  0.00  0.00    +0.000 C 
ATOM     24  C   UNL     1       5.555  14.901  18.599  0.00  0.00    +0.000 C 
ENDBRANCH  12  16
BRANCH   2  25
ATOM     25  C   UNL     1       1.911   9.139  18.230  0.00  0.00    +0.000 C 
BRANCH  25  26
ATOM     26  O   UNL     1       1.923   8.104  19.213  0.00  0.00    +0.000 OA
BRANCH  26  27
ATOM     27  C   UNL     1       2.657   6.995  18.861  0.00  0.00    +0.000 A 
ATOM     28  C   UNL     1       3.478   7.186  17.739  0.00  0.00    +0.000 A 
ATOM     29  C   UNL     1       4.336   6.169  17.293  0.00  0.00    +0.000 A 
ATOM     30  C   UNL     1       4.367   4.945  17.958  0.00  0.00    +0.000 A 
ATOM     31  C   UNL     1       3.509   4.726  19.030  0.00  0.00    +0.000 A 
ATOM     32  C   UNL     1       2.631   5.731  19.465  0.00  0.00    +0.000 A 
ATOM     33 CL   UNL     1       1.509   5.244  20.685  0.00  0.00    +0.000 Cl
ENDBRANCH  26  27
ENDBRANCH  25  26
ENDBRANCH   2  25
TORSDOF 4
ENDMDL
MODEL 3
REMARK VINA RESULT:      -6.9      4.503      7.595
REMARK  Name = 
REMARK  4 active torsions:
REMARK  status: ('A' for Active; 'I' for Inactive)
REMARK    1  A    between atoms: C_2  and  C_3
REMARK    2  A    between atoms: C_3  and  O_4
REMARK    3  A    between atoms: O_4  and  C_5
REMARK    4  A    between atoms: C_21  and  N_22
REMARK                            x       y       z     vdW  Elec       q    Type
REMARK                         _______ _______ _______ _____ _____    ______ ____
ROOT
ATOM      1  O   UNL     1       0.540   7.564  20.980  0.00  0.00    +0.000 OA
ATOM      2  C   UNL     1       1.082   8.588  20.575  0.00  0.00    +0.000 C 
ATOM      3  N   UNL     1       1.319   9.738  21.401  0.00  0.00    +0.000 N 
ATOM      4  C   UNL     1       1.395   9.341  22.839  0.00  0.00    +0.000 C 
ATOM      5  C   UNL     1      -0.036   9.397  23.381  0.00  0.00    +0.000 C 
ATOM      6  C   UNL     1      -0.484  10.586  22.593  0.00  0.00    +0.000 A 
ATOM      7  C   UNL     1      -1.336  11.564  23.056  0.00  0.00    +0.000 A 
ATOM      8  C   UNL     1      -1.272  12.819  22.522  0.00  0.00    +0.000 A 
ATOM      9  N   UNL     1      -1.947  13.737  23.215  0.00  0.00    +0.000 NA
ATOM     10  C   UNL     1      -1.795  15.023  22.884  0.00  0.00    +0.000 A 
ATOM     11  C   UNL     1      -1.035  15.446  21.817  0.00  0.00    +0.000 A 
ATOM     12  C   UNL     1      -0.362  14.506  21.019  0.00  0.00    +0.000 A 
ATOM     13  C   UNL     1      -0.441  13.108  21.387  0.00  0.00    +0.000 A 
ATOM     14  C   UNL     1       0.309  12.002  20.822  0.00  0.00    +0.000 A 
ATOM     15  C   UNL     1       0.292  10.753  21.449  0.00  0.00    +0.000 A 
ENDROOT
BRANCH  12  16
ATOM     16  N   UNL     1       0.343  14.963  19.901  0.00  0.00    +0.000 N 
ATOM     17  C   UNL     1       1.816  15.208  19.924  0.00  0.00    +0.000 C 
ATOM     18  C   UNL     1       2.326  16.477  19.158  0.00  0.00    +0.000 C 
ATOM     19  N   UNL     1       1.459  16.899  18.062  0.00  0.00    +0.000 NA
ATOM     20  C   UNL     1       1.755  18.181  17.444  0.00  0.00    +0.000 C 
ATOM     21  C   UNL     1       0.492  18.384  16.612  0.00  0.00    +0.000 C 
ATOM     22  C   UNL     1      -0.633  17.754  17.434  0.00  0.00    +0.000 C 
ATOM     23  C   UNL     1       0.080  17.011  18.555  0.00  0.00    +0.000 C 
ATOM     24  C   UNL     1      -0.459  15.609  18.847  0.00  0.00    +0.000 C 
ENDBRANCH  12  16
BRANCH   2  25
ATOM     25  C   UNL     1       1.862   8.637  19.257  0.00  0.00    +0.000 C 
BRANCH  25  26
ATOM     26  O   UNL     1       1.860   7.422  18.508  0.00  0.00    +0.000 OA
BRANCH  26  27
ATOM     27  C   UNL     1       3.069   6.768  18.483  0.00  0.00    +0.000 A 
ATOM     28  C   UNL     1       3.911   7.162  17.432  0.00  0.00    +0.000 A 
ATOM     29  C   UNL     1       5.204   6.633  17.307  0.00  0.00    +0.000 A 
ATOM     30  C   UNL     1       5.662   5.692  18.226  0.00  0.00    +0.000 A 
ATOM     31  C   UNL     1       4.812   5.249  19.233  0.00  0.00    +0.000 A 
ATOM     32  C   UNL     1       3.507   5.756  19.348  0.00  0.00    +0.000 A 
ATOM     33 CL   UNL     1       2.521   4.975  20.532  0.00  0.00    +0.000 Cl
ENDBRANCH  26  27
ENDBRANCH  25  26
ENDBRANCH   2  25
TORSDOF 4
ENDMDL
MODEL 4
REMARK VINA RESULT:      -6.9      7.154     10.301
REMARK  Name = 
REMARK  4 active torsions:
REMARK  status: ('A' for Active; 'I' for Inactive)
REMARK    1  A    between atoms: C_2  and  C_3
REMARK    2  A    between atoms: C_3  and  O_4
REMARK    3  A    between atoms: O_4  and  C_5
REMARK    4  A    between atoms: C_21  and  N_22
REMARK                            x       y       z     vdW  Elec       q    Type
REMARK                         _______ _______ _______ _____ _____    ______ ____
ROOT
ATOM      1  O   UNL     1       8.185   7.029  16.384  0.00  0.00    +0.000 OA
ATOM      2  C   UNL     1       7.531   7.470  17.325  0.00  0.00    +0.000 C 
ATOM      3  N   UNL     1       6.930   6.639  18.330  0.00  0.00    +0.000 N 
ATOM      4  C   UNL     1       7.661   5.341  18.439  0.00  0.00    +0.000 C 
ATOM      5  C   UNL     1       7.008   4.389  17.433  0.00  0.00    +0.000 C 
ATOM      6  C   UNL     1       5.605   4.876  17.605  0.00  0.00    +0.000 A 
ATOM      7  C   UNL     1       4.482   4.078  17.572  0.00  0.00    +0.000 A 
ATOM      8  C   UNL     1       3.358   4.473  18.239  0.00  0.00    +0.000 A 
ATOM      9  N   UNL     1       2.436   3.516  18.358  0.00  0.00    +0.000 NA
ATOM     10  C   UNL     1       1.384   3.741  19.151  0.00  0.00    +0.000 A 
ATOM     11  C   UNL     1       1.164   4.938  19.795  0.00  0.00    +0.000 A 
ATOM     12  C   UNL     1       2.075   5.995  19.643  0.00  0.00    +0.000 A 
ATOM     13  C   UNL     1       3.266   5.768  18.851  0.00  0.00    +0.000 A 
ATOM     14  C   UNL     1       4.413   6.646  18.708  0.00  0.00    +0.000 A 
ATOM     15  C   UNL     1       5.581   6.178  18.100  0.00  0.00    +0.000 A 
ENDROOT
BRANCH  12  16
ATOM     16  N   UNL     1       1.785   7.219  20.252  0.00  0.00    +0.000 N 
ATOM     17  C   UNL     1       0.925   7.328  21.468  0.00  0.00    +0.000 C 
ATOM     18  C   UNL     1      -0.074   8.536  21.513  0.00  0.00    +0.000 C 
ATOM     19  N   UNL     1       0.351   9.688  20.724  0.00  0.00    +0.000 NA
ATOM     20  C   UNL     1      -0.617  10.759  20.549  0.00  0.00    +0.000 C 
ATOM     21  C   UNL     1       0.069  11.573  19.457  0.00  0.00    +0.000 C 
ATOM     22  C   UNL     1       0.793  10.546  18.586  0.00  0.00    +0.000 C 
ATOM     23  C   UNL     1       0.692   9.243  19.367  0.00  0.00    +0.000 C 
ATOM     24  C   UNL     1       1.981   8.422  19.422  0.00  0.00    +0.000 C 
ENDBRANCH  12  16
BRANCH   2  25
ATOM     25  C   UNL     1       7.561   8.949  17.724  0.00  0.00    +0.000 C 
BRANCH  25  26
ATOM     26  O   UNL     1       8.831   9.586  17.588  0.00  0.00    +0.000 OA
BRANCH  26  27
ATOM     27  C   UNL     1       9.029  10.646  18.441  0.00  0.00    +0.000 A 
ATOM     28  C   UNL     1       9.621  10.294  19.664  0.00  0.00    +0.000 A 
ATOM     29  C   UNL     1       9.946  11.271  20.616  0.00  0.00    +0.000 A 
ATOM     30  C   UNL     1       9.667  12.612  20.358  0.00  0.00    +0.000 A 
ATOM     31  C   UNL     1       9.023  12.962  19.177  0.00  0.00    +0.000 A 
ATOM     32  C   UNL     1       8.672  11.985  18.232  0.00  0.00    +0.000 A 
ATOM     33 CL   UNL     1       7.720  12.556  16.908  0.00  0.00    +0.000 Cl
ENDBRANCH  26  27
ENDBRANCH  25  26
ENDBRANCH   2  25
TORSDOF 4
ENDMDL
MODEL 5
REMARK VINA RESULT:      -6.8      2.688      4.064
REMARK  Name = 
REMARK  4 active torsions:
REMARK  status: ('A' for Active; 'I' for Inactive)
REMARK    1  A    between atoms: C_2  and  C_3
REMARK    2  A    between atoms: C_3  and  O_4
REMARK    3  A    between atoms: O_4  and  C_5
REMARK    4  A    between atoms: C_21  and  N_22
REMARK                            x       y       z     vdW  Elec       q    Type
REMARK                         _______ _______ _______ _____ _____    ______ ____
ROOT
ATOM      1  O   UNL     1       2.000  11.914  18.485  0.00  0.00    +0.000 OA
ATOM      2  C   UNL     1       1.236  12.234  19.391  0.00  0.00    +0.000 C 
ATOM      3  N   UNL     1       0.105  11.445  19.789  0.00  0.00    +0.000 N 
ATOM      4  C   UNL     1       0.316  10.011  19.428  0.00  0.00    +0.000 C 
ATOM      5  C   UNL     1      -0.216   9.839  18.002  0.00  0.00    +0.000 C 
ATOM      6  C   UNL     1      -1.371  10.781  18.124  0.00  0.00    +0.000 A 
ATOM      7  C   UNL     1      -2.604  10.599  17.536  0.00  0.00    +0.000 A 
ATOM      8  C   UNL     1      -3.707  11.174  18.098  0.00  0.00    +0.000 A 
ATOM      9  N   UNL     1      -4.862  10.721  17.607  0.00  0.00    +0.000 NA
ATOM     10  C   UNL     1      -5.997  11.081  18.216  0.00  0.00    +0.000 A 
ATOM     11  C   UNL     1      -6.042  11.953  19.280  0.00  0.00    +0.000 A 
ATOM     12  C   UNL     1      -4.853  12.505  19.785  0.00  0.00    +0.000 A 
ATOM     13  C   UNL     1      -3.597  12.086  19.201  0.00  0.00    +0.000 A 
ATOM     14  C   UNL     1      -2.259  12.385  19.676  0.00  0.00    +0.000 A 
ATOM     15  C   UNL     1      -1.159  11.709  19.140  0.00  0.00    +0.000 A 
ENDROOT
BRANCH  12  16
ATOM     16  N   UNL     1      -4.940  13.443  20.820  0.00  0.00    +0.000 N 
ATOM     17  C   UNL     1      -4.814  14.912  20.586  0.00  0.00    +0.000 C 
ATOM     18  C   UNL     1      -4.005  15.724  21.654  0.00  0.00    +0.000 C 
ATOM     19  N   UNL     1      -4.001  15.119  22.983  0.00  0.00    +0.000 NA
ATOM     20  C   UNL     1      -3.104  15.701  23.968  0.00  0.00    +0.000 C 
ATOM     21  C   UNL     1      -3.165  14.634  25.058  0.00  0.00    +0.000 C 
ATOM     22  C   UNL     1      -3.325  13.309  24.312  0.00  0.00    +0.000 C 
ATOM     23  C   UNL     1      -3.600  13.711  22.870  0.00  0.00    +0.000 C 
ATOM     24  C   UNL     1      -4.720  12.928  22.183  0.00  0.00    +0.000 C 
ENDBRANCH  12  16
BRANCH   2  25
ATOM     25  C   UNL     1       1.584  13.323  20.413  0.00  0.00    +0.000 C 
BRANCH  25  26
ATOM     26  O   UNL     1       2.757  14.078  20.114  0.00  0.00    +0.000 OA
BRANCH  26  27
ATOM     27  C   UNL     1       2.560  15.104  19.218  0.00  0.00    +0.000 A 
ATOM     28  C   UNL     1       1.308  15.728  19.331  0.00  0.00    +0.000 A 
ATOM     29  C   UNL     1       0.979  16.833  18.532  0.00  0.00    +0.000 A 
ATOM     30  C   UNL     1       1.896  17.313  17.599  0.00  0.00    +0.000 A 
ATOM     31  C   UNL     1       3.112  16.660  17.436  0.00  0.00    +0.000 A 
ATOM     32  C   UNL     1       3.437  15.539  18.216  0.00  0.00    +0.000 A 
ATOM     33 CL   UNL     1       4.900  14.736  17.769  0.00  0.00    +0.000 Cl
ENDBRANCH  26  27
ENDBRANCH  25  26
ENDBRANCH   2  25
TORSDOF 4
ENDMDL
MODEL 6
REMARK VINA RESULT:      -6.8      7.276     10.413
REMARK  Name = 
REMARK  4 active torsions:
REMARK  status: ('A' for Active; 'I' for Inactive)
REMARK    1  A    between atoms: C_2  and  C_3
REMARK    2  A    between atoms: C_3  and  O_4
REMARK    3  A    between atoms: O_4  and  C_5
REMARK    4  A    between atoms: C_21  and  N_22
REMARK                            x       y       z     vdW  Elec       q    Type
REMARK                         _______ _______ _______ _____ _____    ______ ____
ROOT
ATOM      1  O   UNL     1       8.429   7.202  16.371  0.00  0.00    +0.000 OA
ATOM      2  C   UNL     1       7.755   7.580  17.326  0.00  0.00    +0.000 C 
ATOM      3  N   UNL     1       7.095   6.685  18.233  0.00  0.00    +0.000 N 
ATOM      4  C   UNL     1       7.783   5.359  18.250  0.00  0.00    +0.000 C 
ATOM      5  C   UNL     1       7.137   4.521  17.143  0.00  0.00    +0.000 C 
ATOM      6  C   UNL     1       5.744   5.037  17.311  0.00  0.00    +0.000 A 
ATOM      7  C   UNL     1       4.600   4.282  17.172  0.00  0.00    +0.000 A 
ATOM      8  C   UNL     1       3.465   4.653  17.834  0.00  0.00    +0.000 A 
ATOM      9  N   UNL     1       2.512   3.720  17.838  0.00  0.00    +0.000 NA
ATOM     10  C   UNL     1       1.439   3.910  18.613  0.00  0.00    +0.000 A 
ATOM     11  C   UNL     1       1.232   5.052  19.352  0.00  0.00    +0.000 A 
ATOM     12  C   UNL     1       2.180   6.088  19.324  0.00  0.00    +0.000 A 
ATOM     13  C   UNL     1       3.390   5.893  18.554  0.00  0.00    +0.000 A 
ATOM     14  C   UNL     1       4.567   6.741  18.528  0.00  0.00    +0.000 A 
ATOM     15  C   UNL     1       5.741   6.290  17.919  0.00  0.00    +0.000 A 
ENDROOT
BRANCH  12  16
ATOM     16  N   UNL     1       1.904   7.264  20.030  0.00  0.00    +0.000 N 
ATOM     17  C   UNL     1       1.166   7.268  21.328  0.00  0.00    +0.000 C 
ATOM     18  C   UNL     1       0.131   8.426  21.540  0.00  0.00    +0.000 C 
ATOM     19  N   UNL     1       0.430   9.638  20.782  0.00  0.00    +0.000 NA
ATOM     20  C   UNL     1      -0.591  10.673  20.766  0.00  0.00    +0.000 C 
ATOM     21  C   UNL     1      -0.049  11.575  19.662  0.00  0.00    +0.000 C 
ATOM     22  C   UNL     1       0.624  10.629  18.666  0.00  0.00    +0.000 C 
ATOM     23  C   UNL     1       0.652   9.282  19.375  0.00  0.00    +0.000 C 
ATOM     24  C   UNL     1       1.971   8.517  19.256  0.00  0.00    +0.000 C 
ENDBRANCH  12  16
BRANCH   2  25
ATOM     25  C   UNL     1       7.815   9.018  17.854  0.00  0.00    +0.000 C 
BRANCH  25  26
ATOM     26  O   UNL     1       8.710   9.222  18.947  0.00  0.00    +0.000 OA
BRANCH  26  27
ATOM     27  C   UNL     1       9.278  10.474  18.990  0.00  0.00    +0.000 A 
ATOM     28  C   UNL     1       9.905  10.858  17.795  0.00  0.00    +0.000 A 
ATOM     29  C   UNL     1      10.475  12.132  17.658  0.00  0.00    +0.000 A 
ATOM     30  C   UNL     1      10.437  13.029  18.723  0.00  0.00    +0.000 A 
ATOM     31  C   UNL     1       9.874  12.634  19.931  0.00  0.00    +0.000 A 
ATOM     32  C   UNL     1       9.324  11.351  20.082  0.00  0.00    +0.000 A 
ATOM     33 CL   UNL     1       8.831  10.951  21.689  0.00  0.00    +0.000 Cl
ENDBRANCH  26  27
ENDBRANCH  25  26
ENDBRANCH   2  25
TORSDOF 4
ENDMDL
MODEL 7
REMARK VINA RESULT:      -6.7      3.289      7.901
REMARK  Name = 
REMARK  4 active torsions:
REMARK  status: ('A' for Active; 'I' for Inactive)
REMARK    1  A    between atoms: C_2  and  C_3
REMARK    2  A    between atoms: C_3  and  O_4
REMARK    3  A    between atoms: O_4  and  C_5
REMARK    4  A    between atoms: C_21  and  N_22
REMARK                            x       y       z     vdW  Elec       q    Type
REMARK                         _______ _______ _______ _____ _____    ______ ____
ROOT
ATOM      1  O   UNL     1      -7.781  13.746  20.877  0.00  0.00    +0.000 OA
ATOM      2  C   UNL     1      -6.925  12.889  21.080  0.00  0.00    +0.000 C 
ATOM      3  N   UNL     1      -5.734  13.125  21.846  0.00  0.00    +0.000 N 
ATOM      4  C   UNL     1      -5.948  14.246  22.810  0.00  0.00    +0.000 C 
ATOM      5  C   UNL     1      -5.579  15.533  22.067  0.00  0.00    +0.000 C 
ATOM      6  C   UNL     1      -4.445  14.969  21.275  0.00  0.00    +0.000 A 
ATOM      7  C   UNL     1      -3.284  15.644  20.966  0.00  0.00    +0.000 A 
ATOM      8  C   UNL     1      -2.139  14.939  20.731  0.00  0.00    +0.000 A 
ATOM      9  N   UNL     1      -1.037  15.690  20.705  0.00  0.00    +0.000 NA
ATOM     10  C   UNL     1       0.151  15.077  20.668  0.00  0.00    +0.000 A 
ATOM     11  C   UNL     1       0.295  13.711  20.583  0.00  0.00    +0.000 A 
ATOM     12  C   UNL     1      -0.841  12.886  20.541  0.00  0.00    +0.000 A 
ATOM     13  C   UNL     1      -2.145  13.505  20.651  0.00  0.00    +0.000 A 
ATOM     14  C   UNL     1      -3.426  12.843  20.809  0.00  0.00    +0.000 A 
ATOM     15  C   UNL     1      -4.562  13.587  21.140  0.00  0.00    +0.000 A 
ENDROOT
BRANCH  12  16
ATOM     16  N   UNL     1      -0.659  11.509  20.383  0.00  0.00    +0.000 N 
ATOM     17  C   UNL     1      -0.500  10.580  21.541  0.00  0.00    +0.000 C 
ATOM     18  C   UNL     1       0.557   9.434  21.379  0.00  0.00    +0.000 C 
ATOM     19  N   UNL     1       0.799   9.039  19.995  0.00  0.00    +0.000 NA
ATOM     20  C   UNL     1       1.910   8.135  19.752  0.00  0.00    +0.000 C 
ATOM     21  C   UNL     1       2.013   8.227  18.233  0.00  0.00    +0.000 C 
ATOM     22  C   UNL     1       1.628   9.668  17.892  0.00  0.00    +0.000 C 
ATOM     23  C   UNL     1       1.086  10.238  19.196  0.00  0.00    +0.000 C 
ATOM     24  C   UNL     1      -0.194  11.063  19.057  0.00  0.00    +0.000 C 
ENDBRANCH  12  16
BRANCH   2  25
ATOM     25  C   UNL     1      -7.181  11.399  20.832  0.00  0.00    +0.000 C 
BRANCH  25  26
ATOM     26  O   UNL     1      -7.530  11.061  19.489  0.00  0.00    +0.000 OA
BRANCH  26  27
ATOM     27  C   UNL     1      -6.548  11.326  18.563  0.00  0.00    +0.000 A 
ATOM     28  C   UNL     1      -5.421  10.497  18.673  0.00  0.00    +0.000 A 
ATOM     29  C   UNL     1      -4.361  10.599  17.761  0.00  0.00    +0.000 A 
ATOM     30  C   UNL     1      -4.412  11.544  16.739  0.00  0.00    +0.000 A 
ATOM     31  C   UNL     1      -5.495  12.412  16.662  0.00  0.00    +0.000 A 
ATOM     32  C   UNL     1      -6.548  12.331  17.588  0.00  0.00    +0.000 A 
ATOM     33 CL   UNL     1      -7.725  13.591  17.468  0.00  0.00    +0.000 Cl
ENDBRANCH  26  27
ENDBRANCH  25  26
ENDBRANCH   2  25
TORSDOF 4
ENDMDL
MODEL 8
REMARK VINA RESULT:      -6.6      0.998      1.292
REMARK  Name = 
REMARK  4 active torsions:
REMARK  status: ('A' for Active; 'I' for Inactive)
REMARK    1  A    between atoms: C_2  and  C_3
REMARK    2  A    between atoms: C_3  and  O_4
REMARK    3  A    between atoms: O_4  and  C_5
REMARK    4  A    between atoms: C_21  and  N_22
REMARK                            x       y       z     vdW  Elec       q    Type
REMARK                         _______ _______ _______ _____ _____    ______ ____
ROOT
ATOM      1  O   UNL     1       1.117  11.828  18.727  0.00  0.00    +0.000 OA
ATOM      2  C   UNL     1       0.317  11.998  19.642  0.00  0.00    +0.000 C 
ATOM      3  N   UNL     1      -0.887  11.231  19.795  0.00  0.00    +0.000 N 
ATOM      4  C   UNL     1      -0.745   9.900  19.131  0.00  0.00    +0.000 C 
ATOM      5  C   UNL     1      -1.193  10.090  17.679  0.00  0.00    +0.000 C 
ATOM      6  C   UNL     1      -2.289  11.068  17.952  0.00  0.00    +0.000 A 
ATOM      7  C   UNL     1      -3.490  11.117  17.278  0.00  0.00    +0.000 A 
ATOM      8  C   UNL     1      -4.588  11.638  17.900  0.00  0.00    +0.000 A 
ATOM      9  N   UNL     1      -5.735  11.396  17.262  0.00  0.00    +0.000 NA
ATOM     10  C   UNL     1      -6.882  11.700  17.879  0.00  0.00    +0.000 A 
ATOM     11  C   UNL     1      -6.940  12.316  19.109  0.00  0.00    +0.000 A 
ATOM     12  C   UNL     1      -5.755  12.648  19.784  0.00  0.00    +0.000 A 
ATOM     13  C   UNL     1      -4.492  12.272  19.184  0.00  0.00    +0.000 A 
ATOM     14  C   UNL     1      -3.172  12.354  19.780  0.00  0.00    +0.000 A 
ATOM     15  C   UNL     1      -2.085  11.730  19.160  0.00  0.00    +0.000 A 
ENDROOT
BRANCH  12  16
ATOM     16  N   UNL     1      -5.849  13.338  20.997  0.00  0.00    +0.000 N 
ATOM     17  C   UNL     1      -6.525  12.763  22.198  0.00  0.00    +0.000 C 
ATOM     18  C   UNL     1      -7.395  13.750  23.050  0.00  0.00    +0.000 C 
ATOM     19  N   UNL     1      -6.977  15.146  22.955  0.00  0.00    +0.000 NA
ATOM     20  C   UNL     1      -7.858  16.139  23.548  0.00  0.00    +0.000 C 
ATOM     21  C   UNL     1      -7.252  17.418  22.977  0.00  0.00    +0.000 C 
ATOM     22  C   UNL     1      -6.747  17.035  21.585  0.00  0.00    +0.000 C 
ATOM     23  C   UNL     1      -6.861  15.518  21.540  0.00  0.00    +0.000 C 
ATOM     24  C   UNL     1      -5.656  14.798  20.932  0.00  0.00    +0.000 C 
ENDBRANCH  12  16
BRANCH   2  25
ATOM     25  C   UNL     1       0.667  12.803  20.899  0.00  0.00    +0.000 C 
BRANCH  25  26
ATOM     26  O   UNL     1       0.292  12.191  22.132  0.00  0.00    +0.000 OA
BRANCH  26  27
ATOM     27  C   UNL     1      -0.834  12.725  22.712  0.00  0.00    +0.000 A 
ATOM     28  C   UNL     1      -1.863  11.795  22.927  0.00  0.00    +0.000 A 
ATOM     29  C   UNL     1      -3.052  12.170  23.568  0.00  0.00    +0.000 A 
ATOM     30  C   UNL     1      -3.230  13.487  23.988  0.00  0.00    +0.000 A 
ATOM     31  C   UNL     1      -2.242  14.429  23.722  0.00  0.00    +0.000 A 
ATOM     32  C   UNL     1      -1.060  14.064  23.058  0.00  0.00    +0.000 A 
ATOM     33 CL   UNL     1      -0.019  15.379  22.643  0.00  0.00    +0.000 Cl
ENDBRANCH  26  27
ENDBRANCH  25  26
ENDBRANCH   2  25
TORSDOF 4
ENDMDL
MODEL 9
REMARK VINA RESULT:      -6.6      2.267      5.946
REMARK  Name = 
REMARK  4 active torsions:
REMARK  status: ('A' for Active; 'I' for Inactive)
REMARK    1  A    between atoms: C_2  and  C_3
REMARK    2  A    between atoms: C_3  and  O_4
REMARK    3  A    between atoms: O_4  and  C_5
REMARK    4  A    between atoms: C_21  and  N_22
REMARK                            x       y       z     vdW  Elec       q    Type
REMARK                         _______ _______ _______ _____ _____    ______ ____
ROOT
ATOM      1  O   UNL     1      -4.780  11.448  15.982  0.00  0.00    +0.000 OA
ATOM      2  C   UNL     1      -4.077  11.170  16.949  0.00  0.00    +0.000 C 
ATOM      3  N   UNL     1      -4.593  10.974  18.274  0.00  0.00    +0.000 N 
ATOM      4  C   UNL     1      -6.028  10.560  18.218  0.00  0.00    +0.000 C 
ATOM      5  C   UNL     1      -6.852  11.851  18.218  0.00  0.00    +0.000 C 
ATOM      6  C   UNL     1      -5.970  12.632  19.139  0.00  0.00    +0.000 A 
ATOM      7  C   UNL     1      -6.413  13.531  20.084  0.00  0.00    +0.000 A 
ATOM      8  C   UNL     1      -5.648  13.778  21.187  0.00  0.00    +0.000 A 
ATOM      9  N   UNL     1      -6.284  14.451  22.147  0.00  0.00    +0.000 NA
ATOM     10  C   UNL     1      -5.687  14.580  23.336  0.00  0.00    +0.000 A 
ATOM     11  C   UNL     1      -4.418  14.118  23.601  0.00  0.00    +0.000 A 
ATOM     12  C   UNL     1      -3.687  13.462  22.597  0.00  0.00    +0.000 A 
ATOM     13  C   UNL     1      -4.324  13.237  21.317  0.00  0.00    +0.000 A 
ATOM     14  C   UNL     1      -3.830  12.436  20.213  0.00  0.00    +0.000 A 
ATOM     15  C   UNL     1      -4.672  12.126  19.141  0.00  0.00    +0.000 A 
ENDROOT
BRANCH  12  16
ATOM     16  N   UNL     1      -2.374  13.069  22.877  0.00  0.00    +0.000 N 
ATOM     17  C   UNL     1      -1.185  13.793  22.337  0.00  0.00    +0.000 C 
ATOM     18  C   UNL     1       0.019  12.908  21.864  0.00  0.00    +0.000 C 
ATOM     19  N   UNL     1       0.103  11.612  22.533  0.00  0.00    +0.000 NA
ATOM     20  C   UNL     1       1.062  10.658  22.002  0.00  0.00    +0.000 C 
ATOM     21  C   UNL     1       0.627   9.394  22.736  0.00  0.00    +0.000 C 
ATOM     22  C   UNL     1      -0.890   9.516  22.880  0.00  0.00    +0.000 C 
ATOM     23  C   UNL     1      -1.202  10.944  22.452  0.00  0.00    +0.000 C 
ATOM     24  C   UNL     1      -2.197  11.683  23.348  0.00  0.00    +0.000 C 
ENDBRANCH  12  16
BRANCH   2  25
ATOM     25  C   UNL     1      -2.634  10.674  16.799  0.00  0.00    +0.000 C 
BRANCH  25  26
ATOM     26  O   UNL     1      -1.941  10.452  18.027  0.00  0.00    +0.000 OA
BRANCH  26  27
ATOM     27  C   UNL     1      -0.803  11.208  18.181  0.00  0.00    +0.000 A 
ATOM     28  C   UNL     1      -1.028  12.592  18.152  0.00  0.00    +0.000 A 
ATOM     29  C   UNL     1       0.023  13.498  18.360  0.00  0.00    +0.000 A 
ATOM     30  C   UNL     1       1.314  13.024  18.582  0.00  0.00    +0.000 A 
ATOM     31  C   UNL     1       1.557  11.656  18.548  0.00  0.00    +0.000 A 
ATOM     32  C   UNL     1       0.513  10.746  18.316  0.00  0.00    +0.000 A 
ATOM     33 CL   UNL     1       1.007   9.101  18.124  0.00  0.00    +0.000 Cl
ENDBRANCH  26  27
ENDBRANCH  25  26
ENDBRANCH   2  25
TORSDOF 4
ENDMDL
