MODEL 1
REMARK VINA RESULT:      -6.5      0.000      0.000
REMARK  Name = 
REMARK  12 active torsions:
REMARK  status: ('A' for Active; 'I' for Inactive)
REMARK    1  A    between atoms: C_1  and  O_2
REMARK    2  A    between atoms: O_2  and  C_3
REMARK    3  A    between atoms: C_8  and  C_9
REMARK    4  A    between atoms: C_12  and  O_13
REMARK    5  A    between atoms: C_14  and  O_15
REMARK    6  A    between atoms: O_15  and  C_16
REMARK    7  A    between atoms: C_17  and  O_18
REMARK    8  A    between atoms: O_18  and  C_19
REMARK    9  A    between atoms: C_23  and  O_24
REMARK   10  A    between atoms: O_24  and  C_25
REMARK   11  A    between atoms: C_30  and  C_31
REMARK   12  A    between atoms: C_31  and  O_32
REMARK                            x       y       z     vdW  Elec       q    Type
REMARK                         _______ _______ _______ _____ _____    ______ ____
ROOT
ATOM      1  C   UNL     1       1.176  11.353  20.077  0.00  0.00    +0.000 C 
ATOM      2  O   UNL     1       1.732  11.888  18.889  0.00  0.00    +0.000 OA
ATOM      3  C   UNL     1       0.669  12.478  18.135  0.00  0.00    +0.000 C 
ATOM      4  C   UNL     1      -0.583  12.925  18.954  0.00  0.00    +0.000 C 
ATOM      5  C   UNL     1      -2.085  12.974  19.574  0.00  0.00    +0.000 C 
ATOM      6  O   UNL     1      -1.933  13.072  21.009  0.00  0.00    +0.000 OA
ATOM      7  C   UNL     1      -0.642  12.550  21.271  0.00  0.00    +0.000 C 
ATOM      8  C   UNL     1      -0.276  11.791  20.005  0.00  0.00    +0.000 C 
ENDROOT
BRANCH   1  14
ATOM      9  C   UNL     1       1.133   9.153  21.436  0.00  0.00    +0.000 A 
ATOM     10  C   UNL     1       1.214   7.759  21.513  0.00  0.00    +0.000 A 
ATOM     11  C   UNL     1       1.729   7.034  20.451  0.00  0.00    +0.000 A 
ATOM     12  C   UNL     1       2.086   7.685  19.275  0.00  0.00    +0.000 A 
ATOM     13  C   UNL     1       1.905   9.072  19.154  0.00  0.00    +0.000 A 
ATOM     14  C   UNL     1       1.384   9.835  20.221  0.00  0.00    +0.000 A 
ATOM     15  O   UNL     1       2.620   7.026  18.195  0.00  0.00    +0.000 OA
ATOM     16  C   UNL     1       2.630   5.589  18.341  0.00  0.00    +0.000 C 
ATOM     17  C   UNL     1       2.872   5.163  19.785  0.00  0.00    +0.000 C 
ATOM     18  O   UNL     1       1.866   5.687  20.647  0.00  0.00    +0.000 OA
BRANCH   9  20
ATOM     19  C   UNL     1      -0.381   9.479  23.244  0.00  0.00    +0.000 C 
ATOM     20  O   UNL     1       0.787   9.893  22.533  0.00  0.00    +0.000 OA
ENDBRANCH   9  20
BRANCH  16  21
ATOM     21  C   UNL     1       1.325   5.009  17.781  0.00  0.00    +0.000 C 
BRANCH  21  22
ATOM     22  O   UNL     1       1.489   3.619  17.500  0.00  0.00    +0.000 OA
ATOM     23  H   UNL     1       0.923   3.148  18.141  0.00  0.00    +0.000 HD
ENDBRANCH  21  22
ENDBRANCH  16  21
ENDBRANCH   1  14
BRANCH   4  24
ATOM     24  O   UNL     1      -1.257  12.931  17.619  0.00  0.00    +0.000 OA
ATOM     25  H   UNL     1      -0.565  12.824  16.943  0.00  0.00    +0.000 HD
ENDBRANCH   4  24
BRANCH   5  26
ATOM     26  O   UNL     1      -2.887  11.800  19.268  0.00  0.00    +0.000 OA
BRANCH  26  27
ATOM     27  C   UNL     1      -4.213  11.791  18.923  0.00  0.00    +0.000 A 
ATOM     28  C   UNL     1      -5.305  12.019  19.794  0.00  0.00    +0.000 A 
ATOM     29  C   UNL     1      -6.616  12.143  19.280  0.00  0.00    +0.000 A 
ATOM     30  C   UNL     1      -6.884  11.994  17.931  0.00  0.00    +0.000 A 
ATOM     31  C   UNL     1      -5.837  11.739  17.069  0.00  0.00    +0.000 A 
ATOM     32  C   UNL     1      -4.513  11.646  17.539  0.00  0.00    +0.000 A 
BRANCH  28  33
ATOM     33  O   UNL     1      -5.094  12.196  21.140  0.00  0.00    +0.000 OA
ATOM     34  C   UNL     1      -6.234  12.663  21.861  0.00  0.00    +0.000 C 
ENDBRANCH  28  33
BRANCH  32  35
ATOM     35  O   UNL     1      -3.669  11.445  16.472  0.00  0.00    +0.000 OA
ATOM     36  C   UNL     1      -3.104  10.168  16.263  0.00  0.00    +0.000 C 
ENDBRANCH  32  35
ENDBRANCH  26  27
ENDBRANCH   5  26
TORSDOF 9
ENDMDL
MODEL 2
REMARK VINA RESULT:      -6.5      4.577      8.353
REMARK  Name = 
REMARK  12 active torsions:
REMARK  status: ('A' for Active; 'I' for Inactive)
REMARK    1  A    between atoms: C_1  and  O_2
REMARK    2  A    between atoms: O_2  and  C_3
REMARK    3  A    between atoms: C_8  and  C_9
REMARK    4  A    between atoms: C_12  and  O_13
REMARK    5  A    between atoms: C_14  and  O_15
REMARK    6  A    between atoms: O_15  and  C_16
REMARK    7  A    between atoms: C_17  and  O_18
REMARK    8  A    between atoms: O_18  and  C_19
REMARK    9  A    between atoms: C_23  and  O_24
REMARK   10  A    between atoms: O_24  and  C_25
REMARK   11  A    between atoms: C_30  and  C_31
REMARK   12  A    between atoms: C_31  and  O_32
REMARK                            x       y       z     vdW  Elec       q    Type
REMARK                         _______ _______ _______ _____ _____    ______ ____
ROOT
ATOM      1  C   UNL     1       3.863   3.075  17.860  0.00  0.00    +0.000 C 
ATOM      2  O   UNL     1       4.379   2.282  18.914  0.00  0.00    +0.000 OA
ATOM      3  C   UNL     1       4.002   2.896  20.150  0.00  0.00    +0.000 C 
ATOM      4  C   UNL     1       2.737   3.810  20.099  0.00  0.00    +0.000 C 
ATOM      5  C   UNL     1       1.783   5.126  20.091  0.00  0.00    +0.000 C 
ATOM      6  O   UNL     1       0.928   5.005  18.930  0.00  0.00    +0.000 OA
ATOM      7  C   UNL     1       1.629   4.138  18.055  0.00  0.00    +0.000 C 
ATOM      8  C   UNL     1       3.053   4.132  18.589  0.00  0.00    +0.000 C 
ENDROOT
BRANCH   1  14
ATOM      9  C   UNL     1       6.130   4.239  17.418  0.00  0.00    +0.000 A 
ATOM     10  C   UNL     1       7.160   4.629  16.556  0.00  0.00    +0.000 A 
ATOM     11  C   UNL     1       6.964   4.603  15.185  0.00  0.00    +0.000 A 
ATOM     12  C   UNL     1       5.774   4.108  14.664  0.00  0.00    +0.000 A 
ATOM     13  C   UNL     1       4.779   3.613  15.523  0.00  0.00    +0.000 A 
ATOM     14  C   UNL     1       4.952   3.631  16.923  0.00  0.00    +0.000 A 
ATOM     15  O   UNL     1       5.512   4.073  13.317  0.00  0.00    +0.000 OA
ATOM     16  C   UNL     1       6.640   4.453  12.497  0.00  0.00    +0.000 C 
ATOM     17  C   UNL     1       7.487   5.535  13.158  0.00  0.00    +0.000 C 
ATOM     18  O   UNL     1       7.985   5.094  14.418  0.00  0.00    +0.000 OA
BRANCH   9  20
ATOM     19  C   UNL     1       7.060   5.510  19.203  0.00  0.00    +0.000 C 
ATOM     20  O   UNL     1       6.247   4.419  18.769  0.00  0.00    +0.000 OA
ENDBRANCH   9  20
BRANCH  16  21
ATOM     21  C   UNL     1       7.464   3.207  12.154  0.00  0.00    +0.000 C 
BRANCH  21  22
ATOM     22  O   UNL     1       6.598   2.135  11.779  0.00  0.00    +0.000 OA
ATOM     23  H   UNL     1       5.700   2.414  12.041  0.00  0.00    +0.000 HD
ENDBRANCH  21  22
ENDBRANCH  16  21
ENDBRANCH   1  14
BRANCH   4  24
ATOM     24  O   UNL     1       3.265   4.342  21.394  0.00  0.00    +0.000 OA
ATOM     25  H   UNL     1       4.135   3.933  21.543  0.00  0.00    +0.000 HD
ENDBRANCH   4  24
BRANCH   5  26
ATOM     26  O   UNL     1       2.513   6.382  20.005  0.00  0.00    +0.000 OA
BRANCH  26  27
ATOM     27  C   UNL     1       2.016   7.580  19.563  0.00  0.00    +0.000 A 
ATOM     28  C   UNL     1       1.280   8.514  20.331  0.00  0.00    +0.000 A 
ATOM     29  C   UNL     1       0.965   9.785  19.800  0.00  0.00    +0.000 A 
ATOM     30  C   UNL     1       1.311  10.139  18.508  0.00  0.00    +0.000 A 
ATOM     31  C   UNL     1       2.001   9.230  17.732  0.00  0.00    +0.000 A 
ATOM     32  C   UNL     1       2.365   7.968  18.239  0.00  0.00    +0.000 A 
BRANCH  28  33
ATOM     33  O   UNL     1       0.928   8.223  21.627  0.00  0.00    +0.000 OA
ATOM     34  C   UNL     1       1.015   9.329  22.525  0.00  0.00    +0.000 C 
ENDBRANCH  28  33
BRANCH  32  35
ATOM     35  O   UNL     1       3.087   7.290  17.285  0.00  0.00    +0.000 OA
ATOM     36  C   UNL     1       4.498   7.336  17.319  0.00  0.00    +0.000 C 
ENDBRANCH  32  35
ENDBRANCH  26  27
ENDBRANCH   5  26
TORSDOF 9
ENDMDL
MODEL 3
REMARK VINA RESULT:      -6.5      4.518      8.584
REMARK  Name = 
REMARK  12 active torsions:
REMARK  status: ('A' for Active; 'I' for Inactive)
REMARK    1  A    between atoms: C_1  and  O_2
REMARK    2  A    between atoms: O_2  and  C_3
REMARK    3  A    between atoms: C_8  and  C_9
REMARK    4  A    between atoms: C_12  and  O_13
REMARK    5  A    between atoms: C_14  and  O_15
REMARK    6  A    between atoms: O_15  and  C_16
REMARK    7  A    between atoms: C_17  and  O_18
REMARK    8  A    between atoms: O_18  and  C_19
REMARK    9  A    between atoms: C_23  and  O_24
REMARK   10  A    between atoms: O_24  and  C_25
REMARK   11  A    between atoms: C_30  and  C_31
REMARK   12  A    between atoms: C_31  and  O_32
REMARK                            x       y       z     vdW  Elec       q    Type
REMARK                         _______ _______ _______ _____ _____    ______ ____
ROOT
ATOM      1  C   UNL     1       3.802   3.094  17.842  0.00  0.00    +0.000 C 
ATOM      2  O   UNL     1       4.288   2.260  18.880  0.00  0.00    +0.000 OA
ATOM      3  C   UNL     1       3.934   2.863  20.128  0.00  0.00    +0.000 C 
ATOM      4  C   UNL     1       2.704   3.825  20.097  0.00  0.00    +0.000 C 
ATOM      5  C   UNL     1       1.800   5.175  20.116  0.00  0.00    +0.000 C 
ATOM      6  O   UNL     1       0.941   5.110  18.953  0.00  0.00    +0.000 OA
ATOM      7  C   UNL     1       1.609   4.235  18.060  0.00  0.00    +0.000 C 
ATOM      8  C   UNL     1       3.032   4.165  18.594  0.00  0.00    +0.000 C 
ENDROOT
BRANCH   1  14
ATOM      9  C   UNL     1       6.106   4.191  17.424  0.00  0.00    +0.000 A 
ATOM     10  C   UNL     1       7.151   4.560  16.570  0.00  0.00    +0.000 A 
ATOM     11  C   UNL     1       6.959   4.559  15.198  0.00  0.00    +0.000 A 
ATOM     12  C   UNL     1       5.755   4.109  14.666  0.00  0.00    +0.000 A 
ATOM     13  C   UNL     1       4.742   3.635  15.515  0.00  0.00    +0.000 A 
ATOM     14  C   UNL     1       4.911   3.627  16.917  0.00  0.00    +0.000 A 
ATOM     15  O   UNL     1       5.496   4.101  13.318  0.00  0.00    +0.000 OA
ATOM     16  C   UNL     1       6.639   4.456  12.507  0.00  0.00    +0.000 C 
ATOM     17  C   UNL     1       7.518   5.501  13.185  0.00  0.00    +0.000 C 
ATOM     18  O   UNL     1       7.997   5.028  14.440  0.00  0.00    +0.000 OA
BRANCH   9  20
ATOM     19  C   UNL     1       6.870   5.540  19.231  0.00  0.00    +0.000 C 
ATOM     20  O   UNL     1       6.224   4.348  18.777  0.00  0.00    +0.000 OA
ENDBRANCH   9  20
BRANCH  16  21
ATOM     21  C   UNL     1       7.425   3.189  12.149  0.00  0.00    +0.000 C 
BRANCH  21  22
ATOM     22  O   UNL     1       6.525   2.144  11.781  0.00  0.00    +0.000 OA
ATOM     23  H   UNL     1       6.963   1.657  11.058  0.00  0.00    +0.000 HD
ENDBRANCH  21  22
ENDBRANCH  16  21
ENDBRANCH   1  14
BRANCH   4  24
ATOM     24  O   UNL     1       3.251   4.310  21.402  0.00  0.00    +0.000 OA
ATOM     25  H   UNL     1       3.376   5.272  21.325  0.00  0.00    +0.000 HD
ENDBRANCH   4  24
BRANCH   5  26
ATOM     26  O   UNL     1       2.576   6.404  20.055  0.00  0.00    +0.000 OA
BRANCH  26  27
ATOM     27  C   UNL     1       2.148   7.609  19.564  0.00  0.00    +0.000 A 
ATOM     28  C   UNL     1       2.258   8.052  18.224  0.00  0.00    +0.000 A 
ATOM     29  C   UNL     1       1.631   9.251  17.814  0.00  0.00    +0.000 A 
ATOM     30  C   UNL     1       0.942  10.053  18.707  0.00  0.00    +0.000 A 
ATOM     31  C   UNL     1       0.852   9.655  20.025  0.00  0.00    +0.000 A 
ATOM     32  C   UNL     1       1.432   8.449  20.463  0.00  0.00    +0.000 A 
BRANCH  28  33
ATOM     33  O   UNL     1       2.911   7.285  17.291  0.00  0.00    +0.000 OA
ATOM     34  C   UNL     1       4.334   7.404  17.319  0.00  0.00    +0.000 C 
ENDBRANCH  28  33
BRANCH  32  35
ATOM     35  O   UNL     1       1.145   8.269  21.796  0.00  0.00    +0.000 OA
ATOM     36  C   UNL     1       0.375   9.236  22.477  0.00  0.00    +0.000 C 
ENDBRANCH  32  35
ENDBRANCH  26  27
ENDBRANCH   5  26
TORSDOF 9
ENDMDL
MODEL 4
REMARK VINA RESULT:      -6.4      0.227      2.218
REMARK  Name = 
REMARK  12 active torsions:
REMARK  status: ('A' for Active; 'I' for Inactive)
REMARK    1  A    between atoms: C_1  and  O_2
REMARK    2  A    between atoms: O_2  and  C_3
REMARK    3  A    between atoms: C_8  and  C_9
REMARK    4  A    between atoms: C_12  and  O_13
REMARK    5  A    between atoms: C_14  and  O_15
REMARK    6  A    between atoms: O_15  and  C_16
REMARK    7  A    between atoms: C_17  and  O_18
REMARK    8  A    between atoms: O_18  and  C_19
REMARK    9  A    between atoms: C_23  and  O_24
REMARK   10  A    between atoms: O_24  and  C_25
REMARK   11  A    between atoms: C_30  and  C_31
REMARK   12  A    between atoms: C_31  and  O_32
REMARK                            x       y       z     vdW  Elec       q    Type
REMARK                         _______ _______ _______ _____ _____    ______ ____
ROOT
ATOM      1  C   UNL     1       1.203  11.394  20.102  0.00  0.00    +0.000 C 
ATOM      2  O   UNL     1       1.744  11.918  18.902  0.00  0.00    +0.000 OA
ATOM      3  C   UNL     1       0.675  12.514  18.162  0.00  0.00    +0.000 C 
ATOM      4  C   UNL     1      -0.559  12.977  19.000  0.00  0.00    +0.000 C 
ATOM      5  C   UNL     1      -2.049  13.044  19.645  0.00  0.00    +0.000 C 
ATOM      6  O   UNL     1      -1.873  13.147  21.077  0.00  0.00    +0.000 OA
ATOM      7  C   UNL     1      -0.582  12.614  21.320  0.00  0.00    +0.000 C 
ATOM      8  C   UNL     1      -0.245  11.846  20.051  0.00  0.00    +0.000 C 
ENDROOT
BRANCH   1  14
ATOM      9  C   UNL     1       1.110   9.193  21.456  0.00  0.00    +0.000 A 
ATOM     10  C   UNL     1       1.181   7.798  21.534  0.00  0.00    +0.000 A 
ATOM     11  C   UNL     1       1.722   7.071  20.486  0.00  0.00    +0.000 A 
ATOM     12  C   UNL     1       2.117   7.722  19.322  0.00  0.00    +0.000 A 
ATOM     13  C   UNL     1       1.947   9.110  19.197  0.00  0.00    +0.000 A 
ATOM     14  C   UNL     1       1.400   9.874  20.250  0.00  0.00    +0.000 A 
ATOM     15  O   UNL     1       2.678   7.061  18.257  0.00  0.00    +0.000 OA
ATOM     16  C   UNL     1       2.676   5.623  18.402  0.00  0.00    +0.000 C 
ATOM     17  C   UNL     1       2.874   5.195  19.851  0.00  0.00    +0.000 C 
ATOM     18  O   UNL     1       1.847   5.723  20.684  0.00  0.00    +0.000 OA
BRANCH   9  20
ATOM     19  C   UNL     1      -0.447   9.518  23.228  0.00  0.00    +0.000 C 
ATOM     20  O   UNL     1       0.737   9.933  22.543  0.00  0.00    +0.000 OA
ENDBRANCH   9  20
BRANCH  16  21
ATOM     21  C   UNL     1       1.385   5.051  17.804  0.00  0.00    +0.000 C 
BRANCH  21  22
ATOM     22  O   UNL     1       1.120   3.762  18.357  0.00  0.00    +0.000 OA
ATOM     23  H   UNL     1       1.193   3.867  19.324  0.00  0.00    +0.000 HD
ENDBRANCH  21  22
ENDBRANCH  16  21
ENDBRANCH   1  14
BRANCH   4  24
ATOM     24  O   UNL     1      -1.255  12.983  17.676  0.00  0.00    +0.000 OA
ATOM     25  H   UNL     1      -1.862  12.222  17.663  0.00  0.00    +0.000 HD
ENDBRANCH   4  24
BRANCH   5  26
ATOM     26  O   UNL     1      -2.868  11.876  19.358  0.00  0.00    +0.000 OA
BRANCH  26  27
ATOM     27  C   UNL     1      -4.168  11.883  18.925  0.00  0.00    +0.000 A 
ATOM     28  C   UNL     1      -4.608  11.668  17.597  0.00  0.00    +0.000 A 
ATOM     29  C   UNL     1      -5.988  11.541  17.314  0.00  0.00    +0.000 A 
ATOM     30  C   UNL     1      -6.948  11.676  18.301  0.00  0.00    +0.000 A 
ATOM     31  C   UNL     1      -6.539  11.918  19.597  0.00  0.00    +0.000 A 
ATOM     32  C   UNL     1      -5.173  12.014  19.924  0.00  0.00    +0.000 A 
BRANCH  28  33
ATOM     33  O   UNL     1      -3.698  11.506  16.582  0.00  0.00    +0.000 OA
ATOM     34  C   UNL     1      -3.279  10.157  16.373  0.00  0.00    +0.000 C 
ENDBRANCH  28  33
BRANCH  32  35
ATOM     35  O   UNL     1      -5.047  12.201  21.281  0.00  0.00    +0.000 OA
ATOM     36  C   UNL     1      -6.091  12.826  21.997  0.00  0.00    +0.000 C 
ENDBRANCH  32  35
ENDBRANCH  26  27
ENDBRANCH   5  26
TORSDOF 9
ENDMDL
MODEL 5
REMARK VINA RESULT:      -6.3      4.129      8.260
REMARK  Name = 
REMARK  12 active torsions:
REMARK  status: ('A' for Active; 'I' for Inactive)
REMARK    1  A    between atoms: C_1  and  O_2
REMARK    2  A    between atoms: O_2  and  C_3
REMARK    3  A    between atoms: C_8  and  C_9
REMARK    4  A    between atoms: C_12  and  O_13
REMARK    5  A    between atoms: C_14  and  O_15
REMARK    6  A    between atoms: O_15  and  C_16
REMARK    7  A    between atoms: C_17  and  O_18
REMARK    8  A    between atoms: O_18  and  C_19
REMARK    9  A    between atoms: C_23  and  O_24
REMARK   10  A    between atoms: O_24  and  C_25
REMARK   11  A    between atoms: C_30  and  C_31
REMARK   12  A    between atoms: C_31  and  O_32
REMARK                            x       y       z     vdW  Elec       q    Type
REMARK                         _______ _______ _______ _____ _____    ______ ____
ROOT
ATOM      1  C   UNL     1      -7.047  13.643  20.512  0.00  0.00    +0.000 C 
ATOM      2  O   UNL     1      -7.861  14.612  19.873  0.00  0.00    +0.000 OA
ATOM      3  C   UNL     1      -7.678  14.476  18.461  0.00  0.00    +0.000 C 
ATOM      4  C   UNL     1      -7.200  13.074  17.967  0.00  0.00    +0.000 C 
ATOM      5  C   UNL     1      -6.266  11.879  17.383  0.00  0.00    +0.000 C 
ATOM      6  O   UNL     1      -6.379  10.778  18.315  0.00  0.00    +0.000 OA
ATOM      7  C   UNL     1      -6.778  11.378  19.535  0.00  0.00    +0.000 C 
ATOM      8  C   UNL     1      -6.473  12.856  19.348  0.00  0.00    +0.000 C 
ENDROOT
BRANCH   1  14
ATOM      9  C   UNL     1      -6.169  14.272  22.862  0.00  0.00    +0.000 A 
ATOM     10  C   UNL     1      -5.153  14.723  23.710  0.00  0.00    +0.000 A 
ATOM     11  C   UNL     1      -4.031  15.339  23.182  0.00  0.00    +0.000 A 
ATOM     12  C   UNL     1      -3.876  15.434  21.803  0.00  0.00    +0.000 A 
ATOM     13  C   UNL     1      -4.843  14.886  20.945  0.00  0.00    +0.000 A 
ATOM     14  C   UNL     1      -5.997  14.254  21.457  0.00  0.00    +0.000 A 
ATOM     15  O   UNL     1      -2.797  16.050  21.218  0.00  0.00    +0.000 OA
ATOM     16  C   UNL     1      -1.777  16.449  22.161  0.00  0.00    +0.000 C 
ATOM     17  C   UNL     1      -2.371  16.888  23.494  0.00  0.00    +0.000 C 
ATOM     18  O   UNL     1      -3.132  15.839  24.085  0.00  0.00    +0.000 OA
BRANCH   9  20
ATOM     19  C   UNL     1      -7.368  12.473  23.860  0.00  0.00    +0.000 C 
ATOM     20  O   UNL     1      -7.353  13.817  23.373  0.00  0.00    +0.000 OA
ENDBRANCH   9  20
BRANCH  16  21
ATOM     21  C   UNL     1      -0.765  15.309  22.330  0.00  0.00    +0.000 C 
BRANCH  21  22
ATOM     22  O   UNL     1      -0.351  15.222  23.694  0.00  0.00    +0.000 OA
ATOM     23  H   UNL     1       0.616  15.357  23.688  0.00  0.00    +0.000 HD
ENDBRANCH  21  22
ENDBRANCH  16  21
ENDBRANCH   1  14
BRANCH   4  24
ATOM     24  O   UNL     1      -6.834  13.814  16.720  0.00  0.00    +0.000 OA
ATOM     25  H   UNL     1      -5.871  13.736  16.607  0.00  0.00    +0.000 HD
ENDBRANCH   4  24
BRANCH   5  26
ATOM     26  O   UNL     1      -4.863  12.239  17.254  0.00  0.00    +0.000 OA
BRANCH  26  27
ATOM     27  C   UNL     1      -3.798  11.378  17.294  0.00  0.00    +0.000 A 
ATOM     28  C   UNL     1      -3.385  10.510  16.254  0.00  0.00    +0.000 A 
ATOM     29  C   UNL     1      -2.173   9.791  16.363  0.00  0.00    +0.000 A 
ATOM     30  C   UNL     1      -1.383   9.865  17.497  0.00  0.00    +0.000 A 
ATOM     31  C   UNL     1      -1.785  10.681  18.535  0.00  0.00    +0.000 A 
ATOM     32  C   UNL     1      -2.967  11.441  18.448  0.00  0.00    +0.000 A 
BRANCH  28  33
ATOM     33  O   UNL     1      -4.120  10.414  15.098  0.00  0.00    +0.000 OA
ATOM     34  C   UNL     1      -3.358  10.070  13.941  0.00  0.00    +0.000 C 
ENDBRANCH  28  33
BRANCH  32  35
ATOM     35  O   UNL     1      -3.098  12.202  19.586  0.00  0.00    +0.000 OA
ATOM     36  C   UNL     1      -1.953  12.509  20.352  0.00  0.00    +0.000 C 
ENDBRANCH  32  35
ENDBRANCH  26  27
ENDBRANCH   5  26
TORSDOF 9
ENDMDL
MODEL 6
REMARK VINA RESULT:      -6.3      3.799      7.621
REMARK  Name = 
REMARK  12 active torsions:
REMARK  status: ('A' for Active; 'I' for Inactive)
REMARK    1  A    between atoms: C_1  and  O_2
REMARK    2  A    between atoms: O_2  and  C_3
REMARK    3  A    between atoms: C_8  and  C_9
REMARK    4  A    between atoms: C_12  and  O_13
REMARK    5  A    between atoms: C_14  and  O_15
REMARK    6  A    between atoms: O_15  and  C_16
REMARK    7  A    between atoms: C_17  and  O_18
REMARK    8  A    between atoms: O_18  and  C_19
REMARK    9  A    between atoms: C_23  and  O_24
REMARK   10  A    between atoms: O_24  and  C_25
REMARK   11  A    between atoms: C_30  and  C_31
REMARK   12  A    between atoms: C_31  and  O_32
REMARK                            x       y       z     vdW  Elec       q    Type
REMARK                         _______ _______ _______ _____ _____    ______ ____
ROOT
ATOM      1  C   UNL     1      -1.286  11.880  18.907  0.00  0.00    +0.000 C 
ATOM      2  O   UNL     1      -0.530  12.537  17.906  0.00  0.00    +0.000 OA
ATOM      3  C   UNL     1       0.141  13.643  18.517  0.00  0.00    +0.000 C 
ATOM      4  C   UNL     1       0.387  13.527  20.055  0.00  0.00    +0.000 C 
ATOM      5  C   UNL     1       0.267  13.759  21.659  0.00  0.00    +0.000 C 
ATOM      6  O   UNL     1       0.117  12.448  22.253  0.00  0.00    +0.000 OA
ATOM      7  C   UNL     1      -0.392  11.636  21.210  0.00  0.00    +0.000 C 
ATOM      8  C   UNL     1      -0.901  12.625  20.173  0.00  0.00    +0.000 C 
ENDROOT
BRANCH   1  14
ATOM      9  C   UNL     1      -3.311  11.419  17.366  0.00  0.00    +0.000 A 
ATOM     10  C   UNL     1      -4.687  11.287  17.157  0.00  0.00    +0.000 A 
ATOM     11  C   UNL     1      -5.581  11.759  18.105  0.00  0.00    +0.000 A 
ATOM     12  C   UNL     1      -5.108  12.288  19.301  0.00  0.00    +0.000 A 
ATOM     13  C   UNL     1      -3.729  12.323  19.561  0.00  0.00    +0.000 A 
ATOM     14  C   UNL     1      -2.797  11.851  18.612  0.00  0.00    +0.000 A 
ATOM     15  O   UNL     1      -5.941  12.789  20.270  0.00  0.00    +0.000 OA
ATOM     16  C   UNL     1      -7.344  12.576  19.996  0.00  0.00    +0.000 C 
ATOM     17  C   UNL     1      -7.652  12.653  18.505  0.00  0.00    +0.000 C 
ATOM     18  O   UNL     1      -6.908  11.681  17.778  0.00  0.00    +0.000 OA
BRANCH   9  20
ATOM     19  C   UNL     1      -2.962  10.509  15.194  0.00  0.00    +0.000 C 
ATOM     20  O   UNL     1      -2.423  11.114  16.371  0.00  0.00    +0.000 OA
ENDBRANCH   9  20
BRANCH  16  21
ATOM     21  C   UNL     1      -7.787  11.241  20.606  0.00  0.00    +0.000 C 
BRANCH  21  22
ATOM     22  O   UNL     1      -7.340  11.149  21.959  0.00  0.00    +0.000 OA
ATOM     23  H   UNL     1      -7.850  11.817  22.454  0.00  0.00    +0.000 HD
ENDBRANCH  21  22
ENDBRANCH  16  21
ENDBRANCH   1  14
BRANCH   4  24
ATOM     24  O   UNL     1       0.600  15.005  19.972  0.00  0.00    +0.000 OA
ATOM     25  H   UNL     1      -0.216  15.397  19.617  0.00  0.00    +0.000 HD
ENDBRANCH   4  24
BRANCH   5  26
ATOM     26  O   UNL     1      -0.867  14.583  22.051  0.00  0.00    +0.000 OA
BRANCH  26  27
ATOM     27  C   UNL     1      -1.325  14.775  23.328  0.00  0.00    +0.000 A 
ATOM     28  C   UNL     1      -0.710  15.567  24.326  0.00  0.00    +0.000 A 
ATOM     29  C   UNL     1      -1.371  15.813  25.551  0.00  0.00    +0.000 A 
ATOM     30  C   UNL     1      -2.603  15.252  25.838  0.00  0.00    +0.000 A 
ATOM     31  C   UNL     1      -3.205  14.449  24.889  0.00  0.00    +0.000 A 
ATOM     32  C   UNL     1      -2.594  14.212  23.643  0.00  0.00    +0.000 A 
BRANCH  28  33
ATOM     33  O   UNL     1       0.502  16.167  24.088  0.00  0.00    +0.000 OA
ATOM     34  C   UNL     1       0.415  17.515  23.628  0.00  0.00    +0.000 C 
ENDBRANCH  28  33
BRANCH  32  35
ATOM     35  O   UNL     1      -3.427  13.433  22.874  0.00  0.00    +0.000 OA
ATOM     36  C   UNL     1      -4.500  12.750  23.486  0.00  0.00    +0.000 C 
ENDBRANCH  32  35
ENDBRANCH  26  27
ENDBRANCH   5  26
TORSDOF 9
ENDMDL
MODEL 7
REMARK VINA RESULT:      -6.1      7.383     11.735
REMARK  Name = 
REMARK  12 active torsions:
REMARK  status: ('A' for Active; 'I' for Inactive)
REMARK    1  A    between atoms: C_1  and  O_2
REMARK    2  A    between atoms: O_2  and  C_3
REMARK    3  A    between atoms: C_8  and  C_9
REMARK    4  A    between atoms: C_12  and  O_13
REMARK    5  A    between atoms: C_14  and  O_15
REMARK    6  A    between atoms: O_15  and  C_16
REMARK    7  A    between atoms: C_17  and  O_18
REMARK    8  A    between atoms: O_18  and  C_19
REMARK    9  A    between atoms: C_23  and  O_24
REMARK   10  A    between atoms: O_24  and  C_25
REMARK   11  A    between atoms: C_30  and  C_31
REMARK   12  A    between atoms: C_31  and  O_32
REMARK                            x       y       z     vdW  Elec       q    Type
REMARK                         _______ _______ _______ _____ _____    ______ ____
ROOT
ATOM      1  C   UNL     1       6.271  14.267  23.197  0.00  0.00    +0.000 C 
ATOM      2  O   UNL     1       6.044  12.971  23.722  0.00  0.00    +0.000 OA
ATOM      3  C   UNL     1       7.024  12.093  23.160  0.00  0.00    +0.000 C 
ATOM      4  C   UNL     1       8.344  12.768  22.671  0.00  0.00    +0.000 C 
ATOM      5  C   UNL     1       9.506  13.365  21.704  0.00  0.00    +0.000 C 
ATOM      6  O   UNL     1       9.764  14.714  22.158  0.00  0.00    +0.000 OA
ATOM      7  C   UNL     1       8.582  15.098  22.838  0.00  0.00    +0.000 C 
ATOM      8  C   UNL     1       7.538  14.091  22.381  0.00  0.00    +0.000 C 
ENDROOT
BRANCH   1  14
ATOM      9  C   UNL     1       4.066  15.609  23.031  0.00  0.00    +0.000 A 
ATOM     10  C   UNL     1       3.050  16.208  22.280  0.00  0.00    +0.000 A 
ATOM     11  C   UNL     1       2.898  15.890  20.940  0.00  0.00    +0.000 A 
ATOM     12  C   UNL     1       3.808  15.040  20.322  0.00  0.00    +0.000 A 
ATOM     13  C   UNL     1       4.894  14.522  21.046  0.00  0.00    +0.000 A 
ATOM     14  C   UNL     1       5.071  14.828  22.412  0.00  0.00    +0.000 A 
ATOM     15  O   UNL     1       3.701  14.671  19.004  0.00  0.00    +0.000 OA
ATOM     16  C   UNL     1       2.652  15.365  18.292  0.00  0.00    +0.000 C 
ATOM     17  C   UNL     1       1.448  15.648  19.183  0.00  0.00    +0.000 C 
ATOM     18  O   UNL     1       1.819  16.443  20.305  0.00  0.00    +0.000 OA
BRANCH   9  20
ATOM     19  C   UNL     1       4.037  17.125  24.867  0.00  0.00    +0.000 C 
ATOM     20  O   UNL     1       4.125  15.782  24.387  0.00  0.00    +0.000 OA
ENDBRANCH   9  20
BRANCH  16  21
ATOM     21  C   UNL     1       3.220  16.645  17.667  0.00  0.00    +0.000 C 
BRANCH  21  22
ATOM     22  O   UNL     1       2.224  17.669  17.661  0.00  0.00    +0.000 OA
ATOM     23  H   UNL     1       2.028  17.844  16.721  0.00  0.00    +0.000 HD
ENDBRANCH  21  22
ENDBRANCH  16  21
ENDBRANCH   1  14
BRANCH   4  24
ATOM     24  O   UNL     1       8.529  11.492  21.913  0.00  0.00    +0.000 OA
ATOM     25  H   UNL     1       9.136  11.676  21.175  0.00  0.00    +0.000 HD
ENDBRANCH   4  24
BRANCH   5  26
ATOM     26  O   UNL     1       9.136  13.408  20.297  0.00  0.00    +0.000 OA
BRANCH  26  27
ATOM     27  C   UNL     1       9.978  13.224  19.232  0.00  0.00    +0.000 A 
ATOM     28  C   UNL     1      10.417  11.979  18.720  0.00  0.00    +0.000 A 
ATOM     29  C   UNL     1      11.155  11.923  17.515  0.00  0.00    +0.000 A 
ATOM     30  C   UNL     1      11.518  13.070  16.831  0.00  0.00    +0.000 A 
ATOM     31  C   UNL     1      11.128  14.295  17.333  0.00  0.00    +0.000 A 
ATOM     32  C   UNL     1      10.360  14.389  18.509  0.00  0.00    +0.000 A 
BRANCH  28  33
ATOM     33  O   UNL     1      10.067  10.808  19.346  0.00  0.00    +0.000 OA
ATOM     34  C   UNL     1       8.997  10.100  18.720  0.00  0.00    +0.000 C 
ENDBRANCH  28  33
BRANCH  32  35
ATOM     35  O   UNL     1      10.064  15.710  18.750  0.00  0.00    +0.000 OA
ATOM     36  C   UNL     1       9.147  16.380  17.912  0.00  0.00    +0.000 C 
ENDBRANCH  32  35
ENDBRANCH  26  27
ENDBRANCH   5  26
TORSDOF 9
ENDMDL
MODEL 8
REMARK VINA RESULT:      -6.1      2.072      4.018
REMARK  Name = 
REMARK  12 active torsions:
REMARK  status: ('A' for Active; 'I' for Inactive)
REMARK    1  A    between atoms: C_1  and  O_2
REMARK    2  A    between atoms: O_2  and  C_3
REMARK    3  A    between atoms: C_8  and  C_9
REMARK    4  A    between atoms: C_12  and  O_13
REMARK    5  A    between atoms: C_14  and  O_15
REMARK    6  A    between atoms: O_15  and  C_16
REMARK    7  A    between atoms: C_17  and  O_18
REMARK    8  A    between atoms: O_18  and  C_19
REMARK    9  A    between atoms: C_23  and  O_24
REMARK   10  A    between atoms: O_24  and  C_25
REMARK   11  A    between atoms: C_30  and  C_31
REMARK   12  A    between atoms: C_31  and  O_32
REMARK                            x       y       z     vdW  Elec       q    Type
REMARK                         _______ _______ _______ _____ _____    ______ ____
ROOT
ATOM      1  C   UNL     1       0.182  10.496  17.956  0.00  0.00    +0.000 C 
ATOM      2  O   UNL     1      -1.044  10.120  17.355  0.00  0.00    +0.000 OA
ATOM      3  C   UNL     1      -2.095  10.818  18.030  0.00  0.00    +0.000 C 
ATOM      4  C   UNL     1      -1.685  12.145  18.743  0.00  0.00    +0.000 C 
ATOM      5  C   UNL     1      -1.324  13.227  19.900  0.00  0.00    +0.000 C 
ATOM      6  O   UNL     1      -0.045  13.800  19.541  0.00  0.00    +0.000 OA
ATOM      7  C   UNL     1       0.560  12.833  18.700  0.00  0.00    +0.000 C 
ATOM      8  C   UNL     1      -0.236  11.562  18.953  0.00  0.00    +0.000 C 
ENDROOT
BRANCH   1  14
ATOM      9  C   UNL     1       0.888   9.001  19.944  0.00  0.00    +0.000 A 
ATOM     10  C   UNL     1       1.500   7.852  20.457  0.00  0.00    +0.000 A 
ATOM     11  C   UNL     1       2.342   7.098  19.657  0.00  0.00    +0.000 A 
ATOM     12  C   UNL     1       2.514   7.436  18.319  0.00  0.00    +0.000 A 
ATOM     13  C   UNL     1       1.817   8.525  17.771  0.00  0.00    +0.000 A 
ATOM     14  C   UNL     1       0.954   9.311  18.564  0.00  0.00    +0.000 A 
ATOM     15  O   UNL     1       3.349   6.741  17.479  0.00  0.00    +0.000 OA
ATOM     16  C   UNL     1       3.907   5.549  18.075  0.00  0.00    +0.000 C 
ATOM     17  C   UNL     1       4.175   5.726  19.565  0.00  0.00    +0.000 C 
ATOM     18  O   UNL     1       2.977   6.049  20.264  0.00  0.00    +0.000 OA
BRANCH   9  20
ATOM     19  C   UNL     1      -0.212   9.321  22.031  0.00  0.00    +0.000 C 
ATOM     20  O   UNL     1       0.192   9.845  20.764  0.00  0.00    +0.000 OA
ENDBRANCH   9  20
BRANCH  16  21
ATOM     21  C   UNL     1       2.983   4.357  17.795  0.00  0.00    +0.000 C 
BRANCH  21  22
ATOM     22  O   UNL     1       3.643   3.414  16.950  0.00  0.00    +0.000 OA
ATOM     23  H   UNL     1       3.007   3.198  16.243  0.00  0.00    +0.000 HD
ENDBRANCH  21  22
ENDBRANCH  16  21
ENDBRANCH   1  14
BRANCH   4  24
ATOM     24  O   UNL     1      -2.978  11.966  19.473  0.00  0.00    +0.000 OA
ATOM     25  H   UNL     1      -3.427  12.830  19.485  0.00  0.00    +0.000 HD
ENDBRANCH   4  24
BRANCH   5  26
ATOM     26  O   UNL     1      -1.221  12.652  21.233  0.00  0.00    +0.000 OA
BRANCH  26  27
ATOM     27  C   UNL     1      -1.588  13.256  22.407  0.00  0.00    +0.000 A 
ATOM     28  C   UNL     1      -0.796  14.146  23.172  0.00  0.00    +0.000 A 
ATOM     29  C   UNL     1      -1.353  14.826  24.279  0.00  0.00    +0.000 A 
ATOM     30  C   UNL     1      -2.659  14.609  24.683  0.00  0.00    +0.000 A 
ATOM     31  C   UNL     1      -3.437  13.720  23.969  0.00  0.00    +0.000 A 
ATOM     32  C   UNL     1      -2.928  13.052  22.839  0.00  0.00    +0.000 A 
BRANCH  28  33
ATOM     33  O   UNL     1       0.499  14.415  22.803  0.00  0.00    +0.000 OA
ATOM     34  C   UNL     1       0.734  15.767  22.413  0.00  0.00    +0.000 C 
ENDBRANCH  28  33
BRANCH  32  35
ATOM     35  O   UNL     1      -3.923  12.278  22.288  0.00  0.00    +0.000 OA
ATOM     36  C   UNL     1      -5.222  12.812  22.148  0.00  0.00    +0.000 C 
ENDBRANCH  32  35
ENDBRANCH  26  27
ENDBRANCH   5  26
TORSDOF 9
ENDMDL
MODEL 9
REMARK VINA RESULT:      -6.1      2.788      6.547
REMARK  Name = 
REMARK  12 active torsions:
REMARK  status: ('A' for Active; 'I' for Inactive)
REMARK    1  A    between atoms: C_1  and  O_2
REMARK    2  A    between atoms: O_2  and  C_3
REMARK    3  A    between atoms: C_8  and  C_9
REMARK    4  A    between atoms: C_12  and  O_13
REMARK    5  A    between atoms: C_14  and  O_15
REMARK    6  A    between atoms: O_15  and  C_16
REMARK    7  A    between atoms: C_17  and  O_18
REMARK    8  A    between atoms: O_18  and  C_19
REMARK    9  A    between atoms: C_23  and  O_24
REMARK   10  A    between atoms: O_24  and  C_25
REMARK   11  A    between atoms: C_30  and  C_31
REMARK   12  A    between atoms: C_31  and  O_32
REMARK                            x       y       z     vdW  Elec       q    Type
REMARK                         _______ _______ _______ _____ _____    ______ ____
ROOT
ATOM      1  C   UNL     1      -5.221  11.479  18.260  0.00  0.00    +0.000 C 
ATOM      2  O   UNL     1      -6.098  10.368  18.201  0.00  0.00    +0.000 OA
ATOM      3  C   UNL     1      -6.851  10.339  19.418  0.00  0.00    +0.000 C 
ATOM      4  C   UNL     1      -6.999  11.703  20.161  0.00  0.00    +0.000 C 
ATOM      5  C   UNL     1      -6.819  12.893  21.253  0.00  0.00    +0.000 C 
ATOM      6  O   UNL     1      -6.496  14.090  20.507  0.00  0.00    +0.000 OA
ATOM      7  C   UNL     1      -5.959  13.617  19.283  0.00  0.00    +0.000 C 
ATOM      8  C   UNL     1      -5.617  12.160  19.558  0.00  0.00    +0.000 C 
ENDROOT
BRANCH   1  14
ATOM      9  C   UNL     1      -3.157  10.623  16.959  0.00  0.00    +0.000 A 
ATOM     10  C   UNL     1      -1.782  10.389  16.859  0.00  0.00    +0.000 A 
ATOM     11  C   UNL     1      -0.987  10.428  17.993  0.00  0.00    +0.000 A 
ATOM     12  C   UNL     1      -1.543  10.783  19.217  0.00  0.00    +0.000 A 
ATOM     13  C   UNL     1      -2.902  11.125  19.303  0.00  0.00    +0.000 A 
ATOM     14  C   UNL     1      -3.735  11.091  18.163  0.00  0.00    +0.000 A 
ATOM     15  O   UNL     1      -0.814  10.822  20.380  0.00  0.00    +0.000 OA
ATOM     16  C   UNL     1       0.602  10.609  20.183  0.00  0.00    +0.000 C 
ATOM     17  C   UNL     1       0.880   9.625  19.052  0.00  0.00    +0.000 C 
ATOM     18  O   UNL     1       0.328  10.090  17.824  0.00  0.00    +0.000 OA
BRANCH   9  20
ATOM     19  C   UNL     1      -3.346  10.073  14.650  0.00  0.00    +0.000 C 
ATOM     20  O   UNL     1      -3.978  10.422  15.884  0.00  0.00    +0.000 OA
ENDBRANCH   9  20
BRANCH  16  21
ATOM     21  C   UNL     1       1.294  11.959  19.954  0.00  0.00    +0.000 C 
BRANCH  21  22
ATOM     22  O   UNL     1       1.480  12.630  21.200  0.00  0.00    +0.000 OA
ATOM     23  H   UNL     1       1.574  11.928  21.870  0.00  0.00    +0.000 HD
ENDBRANCH  21  22
ENDBRANCH  16  21
ENDBRANCH   1  14
BRANCH   4  24
ATOM     24  O   UNL     1      -7.377  10.846  21.327  0.00  0.00    +0.000 OA
ATOM     25  H   UNL     1      -8.203  11.205  21.697  0.00  0.00    +0.000 HD
ENDBRANCH   4  24
BRANCH   5  26
ATOM     26  O   UNL     1      -5.763  12.648  22.223  0.00  0.00    +0.000 OA
BRANCH  26  27
ATOM     27  C   UNL     1      -5.059  13.599  22.913  0.00  0.00    +0.000 A 
ATOM     28  C   UNL     1      -3.650  13.737  22.946  0.00  0.00    +0.000 A 
ATOM     29  C   UNL     1      -3.056  14.860  23.566  0.00  0.00    +0.000 A 
ATOM     30  C   UNL     1      -3.817  15.824  24.204  0.00  0.00    +0.000 A 
ATOM     31  C   UNL     1      -5.191  15.690  24.211  0.00  0.00    +0.000 A 
ATOM     32  C   UNL     1      -5.820  14.605  23.572  0.00  0.00    +0.000 A 
BRANCH  28  33
ATOM     33  O   UNL     1      -2.848  12.821  22.311  0.00  0.00    +0.000 OA
ATOM     34  C   UNL     1      -2.219  11.881  23.183  0.00  0.00    +0.000 C 
ENDBRANCH  28  33
BRANCH  32  35
ATOM     35  O   UNL     1      -7.184  14.747  23.682  0.00  0.00    +0.000 OA
ATOM     36  C   UNL     1      -7.779  15.992  23.387  0.00  0.00    +0.000 C 
ENDBRANCH  32  35
ENDBRANCH  26  27
ENDBRANCH   5  26
TORSDOF 9
ENDMDL
