MODEL 1
REMARK VINA RESULT:      -7.4      0.000      0.000
REMARK  Name = 
REMARK  3 active torsions:
REMARK  status: ('A' for Active; 'I' for Inactive)
REMARK    1  A    between atoms: C_5  and  O_6
REMARK    2  A    between atoms: C_7  and  O_8
REMARK    3  A    between atoms: C_14  and  O_15
REMARK                            x       y       z     vdW  Elec       q    Type
REMARK                         _______ _______ _______ _____ _____    ______ ____
ROOT
ATOM      1  O   UNL     1       3.661   6.954  19.471  0.00  0.00    +0.000 OA
ATOM      2  C   UNL     1       3.712   5.835  18.974  0.00  0.00    +0.000 C 
ATOM      3  C   UNL     1       4.786   5.497  18.032  0.00  0.00    +0.000 A 
ATOM      4  C   UNL     1       5.735   6.483  17.724  0.00  0.00    +0.000 A 
ATOM      5  C   UNL     1       6.755   6.181  16.839  0.00  0.00    +0.000 A 
ATOM      6  C   UNL     1       6.830   4.913  16.265  0.00  0.00    +0.000 A 
ATOM      7  C   UNL     1       5.891   3.929  16.563  0.00  0.00    +0.000 A 
ATOM      8  C   UNL     1       4.856   4.225  17.457  0.00  0.00    +0.000 A 
ATOM      9  C   UNL     1       3.841   3.205  17.799  0.00  0.00    +0.000 C 
ATOM     10  O   UNL     1       3.880   2.078  17.307  0.00  0.00    +0.000 OA
ATOM     11  C   UNL     1       2.758   3.543  18.750  0.00  0.00    +0.000 A 
ATOM     12  C   UNL     1       1.774   2.611  19.104  0.00  0.00    +0.000 A 
ATOM     13  C   UNL     1       0.761   2.952  20.003  0.00  0.00    +0.000 A 
ATOM     14  C   UNL     1       0.719   4.230  20.559  0.00  0.00    +0.000 A 
ATOM     15  C   UNL     1       1.690   5.164  20.215  0.00  0.00    +0.000 A 
ATOM     16  C   UNL     1       2.705   4.819  19.313  0.00  0.00    +0.000 A 
ENDROOT
BRANCH   5  17
ATOM     17  O   UNL     1       7.705   7.103  16.506  0.00  0.00    +0.000 OA
ATOM     18  H   UNL     1       8.473   6.982  17.095  0.00  0.00    +0.000 HD
ENDBRANCH   5  17
BRANCH   6  19
ATOM     19  O   UNL     1       7.841   4.625  15.393  0.00  0.00    +0.000 OA
ATOM     20  H   UNL     1       8.185   5.493  15.102  0.00  0.00    +0.000 HD
ENDBRANCH   6  19
BRANCH  12  21
ATOM     21  O   UNL     1       1.737   1.335  18.610  0.00  0.00    +0.000 OA
ATOM     22  H   UNL     1       1.585   0.716  19.359  0.00  0.00    +0.000 HD
ENDBRANCH  12  21
TORSDOF 3
ENDMDL
MODEL 2
REMARK VINA RESULT:      -7.4      1.231      1.269
REMARK  Name = 
REMARK  3 active torsions:
REMARK  status: ('A' for Active; 'I' for Inactive)
REMARK    1  A    between atoms: C_5  and  O_6
REMARK    2  A    between atoms: C_7  and  O_8
REMARK    3  A    between atoms: C_14  and  O_15
REMARK                            x       y       z     vdW  Elec       q    Type
REMARK                         _______ _______ _______ _____ _____    ______ ____
ROOT
ATOM      1  O   UNL     1       5.062   5.745  19.836  0.00  0.00    +0.000 OA
ATOM      2  C   UNL     1       4.458   5.008  19.067  0.00  0.00    +0.000 C 
ATOM      3  C   UNL     1       4.947   4.816  17.695  0.00  0.00    +0.000 A 
ATOM      4  C   UNL     1       6.109   5.496  17.303  0.00  0.00    +0.000 A 
ATOM      5  C   UNL     1       6.584   5.326  16.014  0.00  0.00    +0.000 A 
ATOM      6  C   UNL     1       5.911   4.490  15.125  0.00  0.00    +0.000 A 
ATOM      7  C   UNL     1       4.755   3.813  15.505  0.00  0.00    +0.000 A 
ATOM      8  C   UNL     1       4.267   3.979  16.807  0.00  0.00    +0.000 A 
ATOM      9  C   UNL     1       3.043   3.275  17.247  0.00  0.00    +0.000 C 
ATOM     10  O   UNL     1       2.426   2.532  16.485  0.00  0.00    +0.000 OA
ATOM     11  C   UNL     1       2.549   3.466  18.629  0.00  0.00    +0.000 A 
ATOM     12  C   UNL     1       1.394   2.821  19.093  0.00  0.00    +0.000 A 
ATOM     13  C   UNL     1       0.947   3.016  20.401  0.00  0.00    +0.000 A 
ATOM     14  C   UNL     1       1.647   3.858  21.264  0.00  0.00    +0.000 A 
ATOM     15  C   UNL     1       2.795   4.504  20.816  0.00  0.00    +0.000 A 
ATOM     16  C   UNL     1       3.241   4.306  19.502  0.00  0.00    +0.000 A 
ENDROOT
BRANCH   5  17
ATOM     17  O   UNL     1       7.711   5.963  15.581  0.00  0.00    +0.000 OA
ATOM     18  H   UNL     1       7.853   5.735  14.643  0.00  0.00    +0.000 HD
ENDBRANCH   5  17
BRANCH   6  19
ATOM     19  O   UNL     1       6.388   4.328  13.856  0.00  0.00    +0.000 OA
ATOM     20  H   UNL     1       6.277   3.377  13.659  0.00  0.00    +0.000 HD
ENDBRANCH   6  19
BRANCH  12  21
ATOM     21  O   UNL     1       0.645   1.977  18.318  0.00  0.00    +0.000 OA
ATOM     22  H   UNL     1       0.049   2.520  17.755  0.00  0.00    +0.000 HD
ENDBRANCH  12  21
TORSDOF 3
ENDMDL
MODEL 3
REMARK VINA RESULT:      -7.3      0.718      2.922
REMARK  Name = 
REMARK  3 active torsions:
REMARK  status: ('A' for Active; 'I' for Inactive)
REMARK    1  A    between atoms: C_5  and  O_6
REMARK    2  A    between atoms: C_7  and  O_8
REMARK    3  A    between atoms: C_14  and  O_15
REMARK                            x       y       z     vdW  Elec       q    Type
REMARK                         _______ _______ _______ _____ _____    ______ ____
ROOT
ATOM      1  O   UNL     1       3.880   2.101  16.901  0.00  0.00    +0.000 OA
ATOM      2  C   UNL     1       3.814   3.158  17.517  0.00  0.00    +0.000 C 
ATOM      3  C   UNL     1       4.814   4.209  17.282  0.00  0.00    +0.000 A 
ATOM      4  C   UNL     1       5.829   3.963  16.347  0.00  0.00    +0.000 A 
ATOM      5  C   UNL     1       6.778   4.943  16.113  0.00  0.00    +0.000 A 
ATOM      6  C   UNL     1       6.719   6.153  16.803  0.00  0.00    +0.000 A 
ATOM      7  C   UNL     1       5.716   6.404  17.735  0.00  0.00    +0.000 A 
ATOM      8  C   UNL     1       4.751   5.419  17.978  0.00  0.00    +0.000 A 
ATOM      9  C   UNL     1       3.669   5.651  18.960  0.00  0.00    +0.000 C 
ATOM     10  O   UNL     1       3.592   6.708  19.585  0.00  0.00    +0.000 OA
ATOM     11  C   UNL     1       2.660   4.594  19.197  0.00  0.00    +0.000 A 
ATOM     12  C   UNL     1       1.618   4.766  20.116  0.00  0.00    +0.000 A 
ATOM     13  C   UNL     1       0.677   3.755  20.324  0.00  0.00    +0.000 A 
ATOM     14  C   UNL     1       0.767   2.558  19.614  0.00  0.00    +0.000 A 
ATOM     15  C   UNL     1       1.797   2.375  18.698  0.00  0.00    +0.000 A 
ATOM     16  C   UNL     1       2.739   3.391  18.493  0.00  0.00    +0.000 A 
ENDROOT
BRANCH   5  17
ATOM     17  O   UNL     1       7.787   4.756  15.213  0.00  0.00    +0.000 OA
ATOM     18  H   UNL     1       7.820   5.531  14.621  0.00  0.00    +0.000 HD
ENDBRANCH   5  17
BRANCH   6  19
ATOM     19  O   UNL     1       7.660   7.114  16.564  0.00  0.00    +0.000 OA
ATOM     20  H   UNL     1       8.114   7.246  17.420  0.00  0.00    +0.000 HD
ENDBRANCH   6  19
BRANCH  12  21
ATOM     21  O   UNL     1       1.451   5.906  20.855  0.00  0.00    +0.000 OA
ATOM     22  H   UNL     1       2.340   6.248  21.104  0.00  0.00    +0.000 HD
ENDBRANCH  12  21
TORSDOF 3
ENDMDL
MODEL 4
REMARK VINA RESULT:      -7.1      1.359      1.594
REMARK  Name = 
REMARK  3 active torsions:
REMARK  status: ('A' for Active; 'I' for Inactive)
REMARK    1  A    between atoms: C_5  and  O_6
REMARK    2  A    between atoms: C_7  and  O_8
REMARK    3  A    between atoms: C_14  and  O_15
REMARK                            x       y       z     vdW  Elec       q    Type
REMARK                         _______ _______ _______ _____ _____    ______ ____
ROOT
ATOM      1  O   UNL     1       4.213   7.341  17.933  0.00  0.00    +0.000 OA
ATOM      2  C   UNL     1       3.975   6.143  17.847  0.00  0.00    +0.000 C 
ATOM      3  C   UNL     1       4.624   5.337  16.805  0.00  0.00    +0.000 A 
ATOM      4  C   UNL     1       5.510   5.977  15.926  0.00  0.00    +0.000 A 
ATOM      5  C   UNL     1       6.131   5.231  14.939  0.00  0.00    +0.000 A 
ATOM      6  C   UNL     1       5.874   3.866  14.826  0.00  0.00    +0.000 A 
ATOM      7  C   UNL     1       4.994   3.224  15.693  0.00  0.00    +0.000 A 
ATOM      8  C   UNL     1       4.361   3.969  16.695  0.00  0.00    +0.000 A 
ATOM      9  C   UNL     1       3.421   3.320  17.635  0.00  0.00    +0.000 C 
ATOM     10  O   UNL     1       3.173   2.118  17.560  0.00  0.00    +0.000 OA
ATOM     11  C   UNL     1       2.766   4.131  18.687  0.00  0.00    +0.000 A 
ATOM     12  C   UNL     1       1.869   3.562  19.601  0.00  0.00    +0.000 A 
ATOM     13  C   UNL     1       1.263   4.346  20.585  0.00  0.00    +0.000 A 
ATOM     14  C   UNL     1       1.546   5.709  20.669  0.00  0.00    +0.000 A 
ATOM     15  C   UNL     1       2.435   6.285  19.767  0.00  0.00    +0.000 A 
ATOM     16  C   UNL     1       3.042   5.496  18.781  0.00  0.00    +0.000 A 
ENDROOT
BRANCH   5  17
ATOM     17  O   UNL     1       7.003   5.804  14.057  0.00  0.00    +0.000 OA
ATOM     18  H   UNL     1       7.280   5.125  13.414  0.00  0.00    +0.000 HD
ENDBRANCH   5  17
BRANCH   6  19
ATOM     19  O   UNL     1       6.492   3.140  13.849  0.00  0.00    +0.000 OA
ATOM     20  H   UNL     1       7.323   3.621  13.659  0.00  0.00    +0.000 HD
ENDBRANCH   6  19
BRANCH  12  21
ATOM     21  O   UNL     1       1.533   2.235  19.595  0.00  0.00    +0.000 OA
ATOM     22  H   UNL     1       1.521   1.914  20.525  0.00  0.00    +0.000 HD
ENDBRANCH  12  21
TORSDOF 3
ENDMDL
MODEL 5
REMARK VINA RESULT:      -7.1      1.391      3.297
REMARK  Name = 
REMARK  3 active torsions:
REMARK  status: ('A' for Active; 'I' for Inactive)
REMARK    1  A    between atoms: C_5  and  O_6
REMARK    2  A    between atoms: C_7  and  O_8
REMARK    3  A    between atoms: C_14  and  O_15
REMARK                            x       y       z     vdW  Elec       q    Type
REMARK                         _______ _______ _______ _____ _____    ______ ____
ROOT
ATOM      1  O   UNL     1       3.340   2.052  17.683  0.00  0.00    +0.000 OA
ATOM      2  C   UNL     1       3.481   3.266  17.763  0.00  0.00    +0.000 C 
ATOM      3  C   UNL     1       4.352   3.969  16.812  0.00  0.00    +0.000 A 
ATOM      4  C   UNL     1       5.006   3.214  15.827  0.00  0.00    +0.000 A 
ATOM      5  C   UNL     1       5.829   3.861  14.922  0.00  0.00    +0.000 A 
ATOM      6  C   UNL     1       6.002   5.242  14.996  0.00  0.00    +0.000 A 
ATOM      7  C   UNL     1       5.358   5.999  15.972  0.00  0.00    +0.000 A 
ATOM      8  C   UNL     1       4.523   5.353  16.891  0.00  0.00    +0.000 A 
ATOM      9  C   UNL     1       3.821   6.124  17.941  0.00  0.00    +0.000 C 
ATOM     10  O   UNL     1       3.954   7.344  18.033  0.00  0.00    +0.000 OA
ATOM     11  C   UNL     1       2.942   5.418  18.900  0.00  0.00    +0.000 A 
ATOM     12  C   UNL     1       2.257   6.103  19.912  0.00  0.00    +0.000 A 
ATOM     13  C   UNL     1       1.433   5.416  20.805  0.00  0.00    +0.000 A 
ATOM     14  C   UNL     1       1.283   4.034  20.700  0.00  0.00    +0.000 A 
ATOM     15  C   UNL     1       1.958   3.341  19.700  0.00  0.00    +0.000 A 
ATOM     16  C   UNL     1       2.784   4.034  18.805  0.00  0.00    +0.000 A 
ENDROOT
BRANCH   5  17
ATOM     17  O   UNL     1       6.489   3.175  13.943  0.00  0.00    +0.000 OA
ATOM     18  H   UNL     1       6.387   2.220  14.114  0.00  0.00    +0.000 HD
ENDBRANCH   5  17
BRANCH   6  19
ATOM     19  O   UNL     1       6.815   5.871  14.098  0.00  0.00    +0.000 OA
ATOM     20  H   UNL     1       6.577   6.818  14.155  0.00  0.00    +0.000 HD
ENDBRANCH   6  19
BRANCH  12  21
ATOM     21  O   UNL     1       2.343   7.458  20.090  0.00  0.00    +0.000 OA
ATOM     22  H   UNL     1       3.192   7.768  19.702  0.00  0.00    +0.000 HD
ENDBRANCH  12  21
TORSDOF 3
ENDMDL
MODEL 6
REMARK VINA RESULT:      -7.0      2.675      4.665
REMARK  Name = 
REMARK  3 active torsions:
REMARK  status: ('A' for Active; 'I' for Inactive)
REMARK    1  A    between atoms: C_5  and  O_6
REMARK    2  A    between atoms: C_7  and  O_8
REMARK    3  A    between atoms: C_14  and  O_15
REMARK                            x       y       z     vdW  Elec       q    Type
REMARK                         _______ _______ _______ _____ _____    ______ ____
ROOT
ATOM      1  O   UNL     1       1.829   5.503  21.256  0.00  0.00    +0.000 OA
ATOM      2  C   UNL     1       2.175   6.078  20.231  0.00  0.00    +0.000 C 
ATOM      3  C   UNL     1       3.019   5.385  19.249  0.00  0.00    +0.000 A 
ATOM      4  C   UNL     1       3.410   4.067  19.521  0.00  0.00    +0.000 A 
ATOM      5  C   UNL     1       4.205   3.399  18.606  0.00  0.00    +0.000 A 
ATOM      6  C   UNL     1       4.608   4.036  17.433  0.00  0.00    +0.000 A 
ATOM      7  C   UNL     1       4.226   5.346  17.156  0.00  0.00    +0.000 A 
ATOM      8  C   UNL     1       3.421   6.029  18.076  0.00  0.00    +0.000 A 
ATOM      9  C   UNL     1       2.995   7.421  17.814  0.00  0.00    +0.000 C 
ATOM     10  O   UNL     1       3.335   8.011  16.790  0.00  0.00    +0.000 OA
ATOM     11  C   UNL     1       2.143   8.121  18.803  0.00  0.00    +0.000 A 
ATOM     12  C   UNL     1       1.713   9.439  18.600  0.00  0.00    +0.000 A 
ATOM     13  C   UNL     1       0.910  10.079  19.547  0.00  0.00    +0.000 A 
ATOM     14  C   UNL     1       0.525   9.409  20.707  0.00  0.00    +0.000 A 
ATOM     15  C   UNL     1       0.945   8.100  20.920  0.00  0.00    +0.000 A 
ATOM     16  C   UNL     1       1.751   7.461  19.969  0.00  0.00    +0.000 A 
ENDROOT
BRANCH   5  17
ATOM     17  O   UNL     1       4.614   2.114  18.821  0.00  0.00    +0.000 OA
ATOM     18  H   UNL     1       5.560   2.127  19.059  0.00  0.00    +0.000 HD
ENDBRANCH   5  17
BRANCH   6  19
ATOM     19  O   UNL     1       5.391   3.369  16.536  0.00  0.00    +0.000 OA
ATOM     20  H   UNL     1       6.291   3.730  16.662  0.00  0.00    +0.000 HD
ENDBRANCH   6  19
BRANCH  12  21
ATOM     21  O   UNL     1       2.041  10.172  17.492  0.00  0.00    +0.000 OA
ATOM     22  H   UNL     1       2.638   9.631  16.927  0.00  0.00    +0.000 HD
ENDBRANCH  12  21
TORSDOF 3
ENDMDL
MODEL 7
REMARK VINA RESULT:      -6.9      1.910      5.936
REMARK  Name = 
REMARK  3 active torsions:
REMARK  status: ('A' for Active; 'I' for Inactive)
REMARK    1  A    between atoms: C_5  and  O_6
REMARK    2  A    between atoms: C_7  and  O_8
REMARK    3  A    between atoms: C_14  and  O_15
REMARK                            x       y       z     vdW  Elec       q    Type
REMARK                         _______ _______ _______ _____ _____    ______ ____
ROOT
ATOM      1  O   UNL     1       2.586   3.266  16.055  0.00  0.00    +0.000 OA
ATOM      2  C   UNL     1       3.421   3.609  16.884  0.00  0.00    +0.000 C 
ATOM      3  C   UNL     1       3.102   3.549  18.317  0.00  0.00    +0.000 A 
ATOM      4  C   UNL     1       1.830   3.096  18.696  0.00  0.00    +0.000 A 
ATOM      5  C   UNL     1       1.514   3.033  20.041  0.00  0.00    +0.000 A 
ATOM      6  C   UNL     1       2.451   3.417  21.000  0.00  0.00    +0.000 A 
ATOM      7  C   UNL     1       3.715   3.870  20.631  0.00  0.00    +0.000 A 
ATOM      8  C   UNL     1       4.044   3.937  19.272  0.00  0.00    +0.000 A 
ATOM      9  C   UNL     1       5.378   4.412  18.844  0.00  0.00    +0.000 C 
ATOM     10  O   UNL     1       6.225   4.759  19.665  0.00  0.00    +0.000 OA
ATOM     11  C   UNL     1       5.702   4.472  17.400  0.00  0.00    +0.000 A 
ATOM     12  C   UNL     1       6.951   4.914  16.945  0.00  0.00    +0.000 A 
ATOM     13  C   UNL     1       7.234   4.962  15.578  0.00  0.00    +0.000 A 
ATOM     14  C   UNL     1       6.272   4.568  14.649  0.00  0.00    +0.000 A 
ATOM     15  C   UNL     1       5.028   4.127  15.088  0.00  0.00    +0.000 A 
ATOM     16  C   UNL     1       4.747   4.080  16.460  0.00  0.00    +0.000 A 
ENDROOT
BRANCH   5  17
ATOM     17  O   UNL     1       0.291   2.599  20.466  0.00  0.00    +0.000 OA
ATOM     18  H   UNL     1      -0.106   2.056  19.759  0.00  0.00    +0.000 HD
ENDBRANCH   5  17
BRANCH   6  19
ATOM     19  O   UNL     1       2.129   3.350  22.325  0.00  0.00    +0.000 OA
ATOM     20  H   UNL     1       2.710   2.655  22.695  0.00  0.00    +0.000 HD
ENDBRANCH   6  19
BRANCH  12  21
ATOM     21  O   UNL     1       7.954   5.319  17.784  0.00  0.00    +0.000 OA
ATOM     22  H   UNL     1       7.859   6.286  17.936  0.00  0.00    +0.000 HD
ENDBRANCH  12  21
TORSDOF 3
ENDMDL
MODEL 8
REMARK VINA RESULT:      -6.6      2.838      4.589
REMARK  Name = 
REMARK  3 active torsions:
REMARK  status: ('A' for Active; 'I' for Inactive)
REMARK    1  A    between atoms: C_5  and  O_6
REMARK    2  A    between atoms: C_7  and  O_8
REMARK    3  A    between atoms: C_14  and  O_15
REMARK                            x       y       z     vdW  Elec       q    Type
REMARK                         _______ _______ _______ _____ _____    ______ ____
ROOT
ATOM      1  O   UNL     1       3.690   7.960  16.429  0.00  0.00    +0.000 OA
ATOM      2  C   UNL     1       3.284   7.521  17.499  0.00  0.00    +0.000 C 
ATOM      3  C   UNL     1       3.718   6.196  17.961  0.00  0.00    +0.000 A 
ATOM      4  C   UNL     1       4.595   5.463  17.149  0.00  0.00    +0.000 A 
ATOM      5  C   UNL     1       5.013   4.213  17.571  0.00  0.00    +0.000 A 
ATOM      6  C   UNL     1       4.565   3.697  18.786  0.00  0.00    +0.000 A 
ATOM      7  C   UNL     1       3.693   4.418  19.597  0.00  0.00    +0.000 A 
ATOM      8  C   UNL     1       3.264   5.683  19.179  0.00  0.00    +0.000 A 
ATOM      9  C   UNL     1       2.338   6.478  20.016  0.00  0.00    +0.000 C 
ATOM     10  O   UNL     1       1.924   6.050  21.092  0.00  0.00    +0.000 OA
ATOM     11  C   UNL     1       1.901   7.815  19.552  0.00  0.00    +0.000 A 
ATOM     12  C   UNL     1       1.026   8.605  20.308  0.00  0.00    +0.000 A 
ATOM     13  C   UNL     1       0.627   9.863  19.850  0.00  0.00    +0.000 A 
ATOM     14  C   UNL     1       1.098  10.347  18.631  0.00  0.00    +0.000 A 
ATOM     15  C   UNL     1       1.967   9.571  17.870  0.00  0.00    +0.000 A 
ATOM     16  C   UNL     1       2.365   8.310  18.332  0.00  0.00    +0.000 A 
ENDROOT
BRANCH   5  17
ATOM     17  O   UNL     1       5.867   3.457  16.819  0.00  0.00    +0.000 OA
ATOM     18  H   UNL     1       6.695   3.957  16.697  0.00  0.00    +0.000 HD
ENDBRANCH   5  17
BRANCH   6  19
ATOM     19  O   UNL     1       4.985   2.464  19.193  0.00  0.00    +0.000 OA
ATOM     20  H   UNL     1       5.012   2.511  20.169  0.00  0.00    +0.000 HD
ENDBRANCH   6  19
BRANCH  12  21
ATOM     21  O   UNL     1       0.515   8.212  21.516  0.00  0.00    +0.000 OA
ATOM     22  H   UNL     1       1.143   8.487  22.222  0.00  0.00    +0.000 HD
ENDBRANCH  12  21
TORSDOF 3
ENDMDL
MODEL 9
REMARK VINA RESULT:      -6.6      2.871      4.554
REMARK  Name = 
REMARK  3 active torsions:
REMARK  status: ('A' for Active; 'I' for Inactive)
REMARK    1  A    between atoms: C_5  and  O_6
REMARK    2  A    between atoms: C_7  and  O_8
REMARK    3  A    between atoms: C_14  and  O_15
REMARK                            x       y       z     vdW  Elec       q    Type
REMARK                         _______ _______ _______ _____ _____    ______ ____
ROOT
ATOM      1  O   UNL     1       2.594   5.364  20.721  0.00  0.00    +0.000 OA
ATOM      2  C   UNL     1       2.603   6.263  19.889  0.00  0.00    +0.000 C 
ATOM      3  C   UNL     1       3.455   6.154  18.697  0.00  0.00    +0.000 A 
ATOM      4  C   UNL     1       4.246   5.005  18.549  0.00  0.00    +0.000 A 
ATOM      5  C   UNL     1       5.053   4.886  17.431  0.00  0.00    +0.000 A 
ATOM      6  C   UNL     1       5.076   5.898  16.473  0.00  0.00    +0.000 A 
ATOM      7  C   UNL     1       4.295   7.043  16.614  0.00  0.00    +0.000 A 
ATOM      8  C   UNL     1       3.475   7.172  17.741  0.00  0.00    +0.000 A 
ATOM      9  C   UNL     1       2.631   8.374  17.924  0.00  0.00    +0.000 C 
ATOM     10  O   UNL     1       2.631   9.284  17.096  0.00  0.00    +0.000 OA
ATOM     11  C   UNL     1       1.771   8.485  19.123  0.00  0.00    +0.000 A 
ATOM     12  C   UNL     1       0.955   9.602  19.341  0.00  0.00    +0.000 A 
ATOM     13  C   UNL     1       0.151   9.686  20.481  0.00  0.00    +0.000 A 
ATOM     14  C   UNL     1       0.153   8.653  21.417  0.00  0.00    +0.000 A 
ATOM     15  C   UNL     1       0.960   7.538  21.212  0.00  0.00    +0.000 A 
ATOM     16  C   UNL     1       1.765   7.457  20.068  0.00  0.00    +0.000 A 
ENDROOT
BRANCH   5  17
ATOM     17  O   UNL     1       5.842   3.789  17.237  0.00  0.00    +0.000 OA
ATOM     18  H   UNL     1       6.775   4.075  17.240  0.00  0.00    +0.000 HD
ENDBRANCH   5  17
BRANCH   6  19
ATOM     19  O   UNL     1       5.875   5.771  15.374  0.00  0.00    +0.000 OA
ATOM     20  H   UNL     1       6.152   6.682  15.150  0.00  0.00    +0.000 HD
ENDBRANCH   6  19
BRANCH  12  21
ATOM     21  O   UNL     1       0.888  10.661  18.477  0.00  0.00    +0.000 OA
ATOM     22  H   UNL     1       1.778  10.794  18.079  0.00  0.00    +0.000 HD
ENDBRANCH  12  21
TORSDOF 3
ENDMDL
