MODEL 1
REMARK VINA RESULT:      -7.7      0.000      0.000
REMARK  Name = 
REMARK  5 active torsions:
REMARK  status: ('A' for Active; 'I' for Inactive)
REMARK    1  A    between atoms: C_1  and  C_2
REMARK    2  A    between atoms: N_4  and  C_5
REMARK    3  A    between atoms: C_8  and  S_9
REMARK    4  A    between atoms: S_9  and  N_12
REMARK    5  A    between atoms: C_16  and  C_17
REMARK                            x       y       z     vdW  Elec       q    Type
REMARK                         _______ _______ _______ _____ _____    ______ ____
ROOT
ATOM      1  S   UNL     1       2.215   4.557  20.137  0.00  0.00    +0.000 S 
ATOM      2  O   UNL     1       2.451   4.465  21.566  0.00  0.00    +0.000 OA
ATOM      3  O   UNL     1       1.083   3.885  19.534  0.00  0.00    +0.000 OA
ENDROOT
BRANCH   1   7
ATOM      4  C   UNL     1       1.671   9.004  19.096  0.00  0.00    +0.000 A 
ATOM      5  C   UNL     1       2.021   8.086  18.102  0.00  0.00    +0.000 A 
ATOM      6  C   UNL     1       2.225   6.730  18.414  0.00  0.00    +0.000 A 
ATOM      7  C   UNL     1       2.088   6.289  19.738  0.00  0.00    +0.000 A 
ATOM      8  C   UNL     1       1.710   7.197  20.728  0.00  0.00    +0.000 A 
ATOM      9  C   UNL     1       1.516   8.545  20.411  0.00  0.00    +0.000 A 
BRANCH   4  13
ATOM     10  C   UNL     1       0.432  12.510  18.443  0.00  0.00    +0.000 C 
ATOM     11  C   UNL     1       0.256  11.056  18.807  0.00  0.00    +0.000 C 
ATOM     12  O   UNL     1      -0.859  10.580  18.988  0.00  0.00    +0.000 OA
ATOM     13  N   UNL     1       1.464  10.382  18.875  0.00  0.00    +0.000 N 
ATOM     14  H   UNL     1       2.298  10.948  18.778  0.00  0.00    +0.000 HD
ENDBRANCH   4  13
ENDBRANCH   1   7
BRANCH   1  15
ATOM     15  N   UNL     1       3.606   4.022  19.354  0.00  0.00    +0.000 NA
ATOM     16  C   UNL     1       3.885   2.572  19.322  0.00  0.00    +0.000 C 
ATOM     17  C   UNL     1       4.036   2.078  17.895  0.00  0.00    +0.000 C 
ATOM     18  S   UNL     1       3.902   3.492  16.798  0.00  0.00    +0.000 S 
ATOM     19  C   UNL     1       4.031   4.727  18.125  0.00  0.00    +0.000 C 
BRANCH  19  20
ATOM     20  C   UNL     1       5.421   5.364  18.199  0.00  0.00    +0.000 A 
ATOM     21  C   UNL     1       6.306   5.072  19.259  0.00  0.00    +0.000 A 
ATOM     22  C   UNL     1       7.509   5.767  19.422  0.00  0.00    +0.000 A 
ATOM     23  C   UNL     1       7.863   6.771  18.529  0.00  0.00    +0.000 A 
ATOM     24  C   UNL     1       7.043   7.035  17.437  0.00  0.00    +0.000 A 
ATOM     25  C   UNL     1       5.842   6.331  17.263  0.00  0.00    +0.000 A 
ATOM     26 CL   UNL     1       4.913   6.737  15.860  0.00  0.00    +0.000 Cl
ENDBRANCH  19  20
ENDBRANCH   1  15
TORSDOF 4
ENDMDL
MODEL 2
REMARK VINA RESULT:      -7.6      3.313      5.748
REMARK  Name = 
REMARK  5 active torsions:
REMARK  status: ('A' for Active; 'I' for Inactive)
REMARK    1  A    between atoms: C_1  and  C_2
REMARK    2  A    between atoms: N_4  and  C_5
REMARK    3  A    between atoms: C_8  and  S_9
REMARK    4  A    between atoms: S_9  and  N_12
REMARK    5  A    between atoms: C_16  and  C_17
REMARK                            x       y       z     vdW  Elec       q    Type
REMARK                         _______ _______ _______ _____ _____    ______ ____
ROOT
ATOM      1  S   UNL     1       5.127   4.259  18.177  0.00  0.00    +0.000 S 
ATOM      2  O   UNL     1       5.406   3.513  16.963  0.00  0.00    +0.000 OA
ATOM      3  O   UNL     1       5.350   3.659  19.475  0.00  0.00    +0.000 OA
ENDROOT
BRANCH   1   7
ATOM      4  C   UNL     1       7.707   8.048  17.807  0.00  0.00    +0.000 A 
ATOM      5  C   UNL     1       8.091   7.017  18.667  0.00  0.00    +0.000 A 
ATOM      6  C   UNL     1       7.292   5.869  18.816  0.00  0.00    +0.000 A 
ATOM      7  C   UNL     1       6.090   5.756  18.103  0.00  0.00    +0.000 A 
ATOM      8  C   UNL     1       5.718   6.771  17.221  0.00  0.00    +0.000 A 
ATOM      9  C   UNL     1       6.514   7.913  17.084  0.00  0.00    +0.000 A 
BRANCH   4  13
ATOM     10  C   UNL     1       9.602  11.309  17.984  0.00  0.00    +0.000 C 
ATOM     11  C   UNL     1       8.990  10.063  18.576  0.00  0.00    +0.000 C 
ATOM     12  O   UNL     1       8.995   9.870  19.786  0.00  0.00    +0.000 OA
ATOM     13  N   UNL     1       8.437   9.240  17.610  0.00  0.00    +0.000 N 
ATOM     14  H   UNL     1       8.594   9.511  16.647  0.00  0.00    +0.000 HD
ENDBRANCH   4  13
ENDBRANCH   1   7
BRANCH   1  15
ATOM     15  N   UNL     1       3.521   4.760  18.111  0.00  0.00    +0.000 NA
ATOM     16  C   UNL     1       2.537   3.889  17.436  0.00  0.00    +0.000 C 
ATOM     17  C   UNL     1       1.396   3.532  18.370  0.00  0.00    +0.000 C 
ATOM     18  S   UNL     1       1.654   4.395  19.922  0.00  0.00    +0.000 S 
ATOM     19  C   UNL     1       2.965   5.477  19.278  0.00  0.00    +0.000 C 
BRANCH  19  20
ATOM     20  C   UNL     1       2.462   6.892  18.981  0.00  0.00    +0.000 A 
ATOM     21  C   UNL     1       2.710   7.513  17.738  0.00  0.00    +0.000 A 
ATOM     22  C   UNL     1       2.397   8.859  17.516  0.00  0.00    +0.000 A 
ATOM     23  C   UNL     1       1.825   9.620  18.526  0.00  0.00    +0.000 A 
ATOM     24  C   UNL     1       1.508   9.018  19.740  0.00  0.00    +0.000 A 
ATOM     25  C   UNL     1       1.808   7.666  19.963  0.00  0.00    +0.000 A 
ATOM     26 CL   UNL     1       1.353   7.024  21.504  0.00  0.00    +0.000 Cl
ENDBRANCH  19  20
ENDBRANCH   1  15
TORSDOF 4
ENDMDL
MODEL 3
REMARK VINA RESULT:      -7.5      3.655      6.748
REMARK  Name = 
REMARK  5 active torsions:
REMARK  status: ('A' for Active; 'I' for Inactive)
REMARK    1  A    between atoms: C_1  and  C_2
REMARK    2  A    between atoms: N_4  and  C_5
REMARK    3  A    between atoms: C_8  and  S_9
REMARK    4  A    between atoms: S_9  and  N_12
REMARK    5  A    between atoms: C_16  and  C_17
REMARK                            x       y       z     vdW  Elec       q    Type
REMARK                         _______ _______ _______ _____ _____    ______ ____
ROOT
ATOM      1  S   UNL     1       4.922   4.407  19.136  0.00  0.00    +0.000 S 
ATOM      2  O   UNL     1       4.956   3.056  19.667  0.00  0.00    +0.000 OA
ATOM      3  O   UNL     1       5.648   5.473  19.795  0.00  0.00    +0.000 OA
ENDROOT
BRANCH   1   7
ATOM      4  C   UNL     1       6.399   4.405  14.781  0.00  0.00    +0.000 A 
ATOM      5  C   UNL     1       5.057   4.146  15.069  0.00  0.00    +0.000 A 
ATOM      6  C   UNL     1       4.600   4.108  16.399  0.00  0.00    +0.000 A 
ATOM      7  C   UNL     1       5.500   4.323  17.453  0.00  0.00    +0.000 A 
ATOM      8  C   UNL     1       6.835   4.611  17.168  0.00  0.00    +0.000 A 
ATOM      9  C   UNL     1       7.283   4.640  15.844  0.00  0.00    +0.000 A 
BRANCH   4  13
ATOM     10  C   UNL     1       7.425   3.964  11.174  0.00  0.00    +0.000 C 
ATOM     11  C   UNL     1       6.519   3.748  12.362  0.00  0.00    +0.000 C 
ATOM     12  O   UNL     1       5.544   3.010  12.287  0.00  0.00    +0.000 OA
ATOM     13  N   UNL     1       6.945   4.445  13.480  0.00  0.00    +0.000 N 
ATOM     14  H   UNL     1       7.726   5.075  13.345  0.00  0.00    +0.000 HD
ENDBRANCH   4  13
ENDBRANCH   1   7
BRANCH   1  15
ATOM     15  N   UNL     1       3.309   4.874  19.029  0.00  0.00    +0.000 NA
ATOM     16  C   UNL     1       2.301   3.853  18.675  0.00  0.00    +0.000 C 
ATOM     17  C   UNL     1       1.219   3.766  19.735  0.00  0.00    +0.000 C 
ATOM     18  S   UNL     1       1.551   5.019  20.976  0.00  0.00    +0.000 S 
ATOM     19  C   UNL     1       2.808   5.882  19.988  0.00  0.00    +0.000 C 
BRANCH  19  20
ATOM     20  C   UNL     1       2.270   7.164  19.347  0.00  0.00    +0.000 A 
ATOM     21  C   UNL     1       2.482   7.446  17.981  0.00  0.00    +0.000 A 
ATOM     22  C   UNL     1       2.135   8.683  17.425  0.00  0.00    +0.000 A 
ATOM     23  C   UNL     1       1.566   9.671  18.218  0.00  0.00    +0.000 A 
ATOM     24  C   UNL     1       1.284   9.398  19.553  0.00  0.00    +0.000 A 
ATOM     25  C   UNL     1       1.617   8.155  20.111  0.00  0.00    +0.000 A 
ATOM     26 CL   UNL     1       1.204   7.926  21.776  0.00  0.00    +0.000 Cl
ENDBRANCH  19  20
ENDBRANCH   1  15
TORSDOF 4
ENDMDL
MODEL 4
REMARK VINA RESULT:      -7.3      3.926      7.208
REMARK  Name = 
REMARK  5 active torsions:
REMARK  status: ('A' for Active; 'I' for Inactive)
REMARK    1  A    between atoms: C_1  and  C_2
REMARK    2  A    between atoms: N_4  and  C_5
REMARK    3  A    between atoms: C_8  and  S_9
REMARK    4  A    between atoms: S_9  and  N_12
REMARK    5  A    between atoms: C_16  and  C_17
REMARK                            x       y       z     vdW  Elec       q    Type
REMARK                         _______ _______ _______ _____ _____    ______ ____
ROOT
ATOM      1  S   UNL     1       5.008   6.175  18.148  0.00  0.00    +0.000 S 
ATOM      2  O   UNL     1       5.535   5.365  19.232  0.00  0.00    +0.000 OA
ATOM      3  O   UNL     1       5.466   7.535  17.958  0.00  0.00    +0.000 OA
ENDROOT
BRANCH   1   7
ATOM      4  C   UNL     1       6.012   3.908  14.274  0.00  0.00    +0.000 A 
ATOM      5  C   UNL     1       5.665   5.261  14.228  0.00  0.00    +0.000 A 
ATOM      6  C   UNL     1       5.320   5.956  15.402  0.00  0.00    +0.000 A 
ATOM      7  C   UNL     1       5.314   5.287  16.634  0.00  0.00    +0.000 A 
ATOM      8  C   UNL     1       5.689   3.944  16.688  0.00  0.00    +0.000 A 
ATOM      9  C   UNL     1       6.023   3.258  15.516  0.00  0.00    +0.000 A 
BRANCH   4  13
ATOM     10  C   UNL     1       6.244   1.912  11.078  0.00  0.00    +0.000 C 
ATOM     11  C   UNL     1       5.583   2.885  12.024  0.00  0.00    +0.000 C 
ATOM     12  O   UNL     1       4.477   3.352  11.778  0.00  0.00    +0.000 OA
ATOM     13  N   UNL     1       6.354   3.131  13.147  0.00  0.00    +0.000 N 
ATOM     14  H   UNL     1       7.281   2.725  13.152  0.00  0.00    +0.000 HD
ENDBRANCH   4  13
ENDBRANCH   1   7
BRANCH   1  15
ATOM     15  N   UNL     1       3.333   6.214  18.309  0.00  0.00    +0.000 NA
ATOM     16  C   UNL     1       2.552   5.049  17.845  0.00  0.00    +0.000 C 
ATOM     17  C   UNL     1       1.695   4.488  18.964  0.00  0.00    +0.000 C 
ATOM     18  S   UNL     1       1.908   5.533  20.408  0.00  0.00    +0.000 S 
ATOM     19  C   UNL     1       2.761   6.862  19.508  0.00  0.00    +0.000 C 
BRANCH  19  20
ATOM     20  C   UNL     1       1.845   8.054  19.219  0.00  0.00    +0.000 A 
ATOM     21  C   UNL     1       1.617   8.500  17.900  0.00  0.00    +0.000 A 
ATOM     22  C   UNL     1       0.914   9.681  17.637  0.00  0.00    +0.000 A 
ATOM     23  C   UNL     1       0.416  10.447  18.683  0.00  0.00    +0.000 A 
ATOM     24  C   UNL     1       0.568   9.997  19.991  0.00  0.00    +0.000 A 
ATOM     25  C   UNL     1       1.260   8.807  20.259  0.00  0.00    +0.000 A 
ATOM     26 CL   UNL     1       1.371   8.342  21.922  0.00  0.00    +0.000 Cl
ENDBRANCH  19  20
ENDBRANCH   1  15
TORSDOF 4
ENDMDL
MODEL 5
REMARK VINA RESULT:      -7.3      4.190      6.210
REMARK  Name = 
REMARK  5 active torsions:
REMARK  status: ('A' for Active; 'I' for Inactive)
REMARK    1  A    between atoms: C_1  and  C_2
REMARK    2  A    between atoms: N_4  and  C_5
REMARK    3  A    between atoms: C_8  and  S_9
REMARK    4  A    between atoms: S_9  and  N_12
REMARK    5  A    between atoms: C_16  and  C_17
REMARK                            x       y       z     vdW  Elec       q    Type
REMARK                         _______ _______ _______ _____ _____    ______ ____
ROOT
ATOM      1  S   UNL     1       7.188   5.410  18.399  0.00  0.00    +0.000 S 
ATOM      2  O   UNL     1       8.051   4.624  17.536  0.00  0.00    +0.000 OA
ATOM      3  O   UNL     1       7.085   5.104  19.811  0.00  0.00    +0.000 OA
ENDROOT
BRANCH   1   7
ATOM      4  C   UNL     1       8.394   9.844  18.181  0.00  0.00    +0.000 A 
ATOM      5  C   UNL     1       7.464   9.322  17.277  0.00  0.00    +0.000 A 
ATOM      6  C   UNL     1       7.114   7.959  17.311  0.00  0.00    +0.000 A 
ATOM      7  C   UNL     1       7.709   7.108  18.253  0.00  0.00    +0.000 A 
ATOM      8  C   UNL     1       8.615   7.632  19.176  0.00  0.00    +0.000 A 
ATOM      9  C   UNL     1       8.964   8.985  19.131  0.00  0.00    +0.000 A 
BRANCH   4  13
ATOM     10  C   UNL     1      10.167  13.176  18.143  0.00  0.00    +0.000 C 
ATOM     11  C   UNL     1      10.062  11.693  17.882  0.00  0.00    +0.000 C 
ATOM     12  O   UNL     1      11.017  11.059  17.450  0.00  0.00    +0.000 OA
ATOM     13  N   UNL     1       8.814  11.190  18.208  0.00  0.00    +0.000 N 
ATOM     14  H   UNL     1       8.113  11.870  18.475  0.00  0.00    +0.000 HD
ENDBRANCH   4  13
ENDBRANCH   1   7
BRANCH   1  15
ATOM     15  N   UNL     1       5.636   5.364  17.749  0.00  0.00    +0.000 NA
ATOM     16  C   UNL     1       5.443   4.734  16.427  0.00  0.00    +0.000 C 
ATOM     17  C   UNL     1       4.419   3.616  16.502  0.00  0.00    +0.000 C 
ATOM     18  S   UNL     1       3.774   3.562  18.175  0.00  0.00    +0.000 S 
ATOM     19  C   UNL     1       4.499   5.154  18.670  0.00  0.00    +0.000 C 
BRANCH  19  20
ATOM     20  C   UNL     1       3.469   6.286  18.687  0.00  0.00    +0.000 A 
ATOM     21  C   UNL     1       3.476   7.298  17.705  0.00  0.00    +0.000 A 
ATOM     22  C   UNL     1       2.645   8.420  17.802  0.00  0.00    +0.000 A 
ATOM     23  C   UNL     1       1.783   8.560  18.882  0.00  0.00    +0.000 A 
ATOM     24  C   UNL     1       1.706   7.546  19.831  0.00  0.00    +0.000 A 
ATOM     25  C   UNL     1       2.527   6.413  19.730  0.00  0.00    +0.000 A 
ATOM     26 CL   UNL     1       2.332   5.213  20.961  0.00  0.00    +0.000 Cl
ENDBRANCH  19  20
ENDBRANCH   1  15
TORSDOF 4
ENDMDL
MODEL 6
REMARK VINA RESULT:      -7.3      3.708      7.481
REMARK  Name = 
REMARK  5 active torsions:
REMARK  status: ('A' for Active; 'I' for Inactive)
REMARK    1  A    between atoms: C_1  and  C_2
REMARK    2  A    between atoms: N_4  and  C_5
REMARK    3  A    between atoms: C_8  and  S_9
REMARK    4  A    between atoms: S_9  and  N_12
REMARK    5  A    between atoms: C_16  and  C_17
REMARK                            x       y       z     vdW  Elec       q    Type
REMARK                         _______ _______ _______ _____ _____    ______ ____
ROOT
ATOM      1  S   UNL     1       0.625   9.207  21.193  0.00  0.00    +0.000 S 
ATOM      2  O   UNL     1      -0.610   8.526  21.537  0.00  0.00    +0.000 OA
ATOM      3  O   UNL     1       1.504   9.704  22.231  0.00  0.00    +0.000 OA
ENDROOT
BRANCH   1   7
ATOM      4  C   UNL     1       2.886   6.280  18.459  0.00  0.00    +0.000 A 
ATOM      5  C   UNL     1       2.486   5.883  19.737  0.00  0.00    +0.000 A 
ATOM      6  C   UNL     1       1.825   6.780  20.596  0.00  0.00    +0.000 A 
ATOM      7  C   UNL     1       1.572   8.093  20.175  0.00  0.00    +0.000 A 
ATOM      8  C   UNL     1       1.944   8.485  18.888  0.00  0.00    +0.000 A 
ATOM      9  C   UNL     1       2.607   7.589  18.043  0.00  0.00    +0.000 A 
BRANCH   4  13
ATOM     10  C   UNL     1       5.253   4.509  16.111  0.00  0.00    +0.000 C 
ATOM     11  C   UNL     1       4.915   5.469  17.225  0.00  0.00    +0.000 C 
ATOM     12  O   UNL     1       5.778   6.172  17.737  0.00  0.00    +0.000 OA
ATOM     13  N   UNL     1       3.567   5.453  17.540  0.00  0.00    +0.000 N 
ATOM     14  H   UNL     1       3.006   4.750  17.075  0.00  0.00    +0.000 HD
ENDBRANCH   4  13
ENDBRANCH   1   7
BRANCH   1  15
ATOM     15  N   UNL     1       0.233  10.501  20.190  0.00  0.00    +0.000 NA
ATOM     16  C   UNL     1      -0.958  10.385  19.322  0.00  0.00    +0.000 C 
ATOM     17  C   UNL     1      -1.931  11.520  19.579  0.00  0.00    +0.000 C 
ATOM     18  S   UNL     1      -1.198  12.619  20.794  0.00  0.00    +0.000 S 
ATOM     19  C   UNL     1       0.456  11.871  20.697  0.00  0.00    +0.000 C 
BRANCH  19  20
ATOM     20  C   UNL     1       1.431  12.711  19.868  0.00  0.00    +0.000 A 
ATOM     21  C   UNL     1       1.869  12.284  18.597  0.00  0.00    +0.000 A 
ATOM     22  C   UNL     1       2.879  12.962  17.904  0.00  0.00    +0.000 A 
ATOM     23  C   UNL     1       3.476  14.085  18.460  0.00  0.00    +0.000 A 
ATOM     24  C   UNL     1       3.019  14.568  19.682  0.00  0.00    +0.000 A 
ATOM     25  C   UNL     1       1.998  13.900  20.374  0.00  0.00    +0.000 A 
ATOM     26 CL   UNL     1       1.503  14.604  21.875  0.00  0.00    +0.000 Cl
ENDBRANCH  19  20
ENDBRANCH   1  15
TORSDOF 4
ENDMDL
MODEL 7
REMARK VINA RESULT:      -7.3      3.746      6.646
REMARK  Name = 
REMARK  5 active torsions:
REMARK  status: ('A' for Active; 'I' for Inactive)
REMARK    1  A    between atoms: C_1  and  C_2
REMARK    2  A    between atoms: N_4  and  C_5
REMARK    3  A    between atoms: C_8  and  S_9
REMARK    4  A    between atoms: S_9  and  N_12
REMARK    5  A    between atoms: C_16  and  C_17
REMARK                            x       y       z     vdW  Elec       q    Type
REMARK                         _______ _______ _______ _____ _____    ______ ____
ROOT
ATOM      1  S   UNL     1       4.929   4.639  18.959  0.00  0.00    +0.000 S 
ATOM      2  O   UNL     1       4.989   3.241  19.347  0.00  0.00    +0.000 OA
ATOM      3  O   UNL     1       5.604   5.649  19.746  0.00  0.00    +0.000 OA
ENDROOT
BRANCH   1   7
ATOM      4  C   UNL     1       6.339   4.927  14.590  0.00  0.00    +0.000 A 
ATOM      5  C   UNL     1       6.269   3.685  15.227  0.00  0.00    +0.000 A 
ATOM      6  C   UNL     1       5.874   3.588  16.574  0.00  0.00    +0.000 A 
ATOM      7  C   UNL     1       5.554   4.747  17.294  0.00  0.00    +0.000 A 
ATOM      8  C   UNL     1       5.594   5.986  16.653  0.00  0.00    +0.000 A 
ATOM      9  C   UNL     1       5.995   6.076  15.316  0.00  0.00    +0.000 A 
BRANCH   4  13
ATOM     10  C   UNL     1       7.958   5.794  11.292  0.00  0.00    +0.000 C 
ATOM     11  C   UNL     1       7.938   5.639  12.793  0.00  0.00    +0.000 C 
ATOM     12  O   UNL     1       8.899   5.976  13.475  0.00  0.00    +0.000 OA
ATOM     13  N   UNL     1       6.740   5.118  13.251  0.00  0.00    +0.000 N 
ATOM     14  H   UNL     1       6.082   4.817  12.542  0.00  0.00    +0.000 HD
ENDBRANCH   4  13
ENDBRANCH   1   7
BRANCH   1  15
ATOM     15  N   UNL     1       3.305   5.070  18.852  0.00  0.00    +0.000 NA
ATOM     16  C   UNL     1       2.334   4.056  18.391  0.00  0.00    +0.000 C 
ATOM     17  C   UNL     1       1.233   3.853  19.414  0.00  0.00    +0.000 C 
ATOM     18  S   UNL     1       1.503   5.007  20.761  0.00  0.00    +0.000 S 
ATOM     19  C   UNL     1       2.756   5.983  19.877  0.00  0.00    +0.000 C 
BRANCH  19  20
ATOM     20  C   UNL     1       2.196   7.298  19.331  0.00  0.00    +0.000 A 
ATOM     21  C   UNL     1       2.388   7.675  17.985  0.00  0.00    +0.000 A 
ATOM     22  C   UNL     1       2.021   8.942  17.519  0.00  0.00    +0.000 A 
ATOM     23  C   UNL     1       1.450   9.867  18.383  0.00  0.00    +0.000 A 
ATOM     24  C   UNL     1       1.188   9.501  19.700  0.00  0.00    +0.000 A 
ATOM     25  C   UNL     1       1.541   8.227  20.168  0.00  0.00    +0.000 A 
ATOM     26 CL   UNL     1       1.151   7.882  21.818  0.00  0.00    +0.000 Cl
ENDBRANCH  19  20
ENDBRANCH   1  15
TORSDOF 4
ENDMDL
MODEL 8
REMARK VINA RESULT:      -7.2      3.826      7.520
REMARK  Name = 
REMARK  5 active torsions:
REMARK  status: ('A' for Active; 'I' for Inactive)
REMARK    1  A    between atoms: C_1  and  C_2
REMARK    2  A    between atoms: N_4  and  C_5
REMARK    3  A    between atoms: C_8  and  S_9
REMARK    4  A    between atoms: S_9  and  N_12
REMARK    5  A    between atoms: C_16  and  C_17
REMARK                            x       y       z     vdW  Elec       q    Type
REMARK                         _______ _______ _______ _____ _____    ______ ____
ROOT
ATOM      1  S   UNL     1       0.694   9.388  21.213  0.00  0.00    +0.000 S 
ATOM      2  O   UNL     1      -0.535   8.717  21.594  0.00  0.00    +0.000 OA
ATOM      3  O   UNL     1       1.670   9.758  22.217  0.00  0.00    +0.000 OA
ENDROOT
BRANCH   1   7
ATOM      4  C   UNL     1       3.000   6.752  18.231  0.00  0.00    +0.000 A 
ATOM      5  C   UNL     1       2.566   8.026  17.855  0.00  0.00    +0.000 A 
ATOM      6  C   UNL     1       1.829   8.828  18.746  0.00  0.00    +0.000 A 
ATOM      7  C   UNL     1       1.514   8.345  20.024  0.00  0.00    +0.000 A 
ATOM      8  C   UNL     1       1.971   7.085  20.413  0.00  0.00    +0.000 A 
ATOM      9  C   UNL     1       2.697   6.291  19.520  0.00  0.00    +0.000 A 
BRANCH   4  13
ATOM     10  C   UNL     1       5.406   4.951  15.946  0.00  0.00    +0.000 C 
ATOM     11  C   UNL     1       5.006   6.054  16.895  0.00  0.00    +0.000 C 
ATOM     12  O   UNL     1       5.764   6.986  17.136  0.00  0.00    +0.000 OA
ATOM     13  N   UNL     1       3.728   5.877  17.398  0.00  0.00    +0.000 N 
ATOM     14  H   UNL     1       3.270   5.006  17.159  0.00  0.00    +0.000 HD
ENDBRANCH   4  13
ENDBRANCH   1   7
BRANCH   1  15
ATOM     15  N   UNL     1       0.275  10.781  20.366  0.00  0.00    +0.000 NA
ATOM     16  C   UNL     1      -1.047  10.837  19.709  0.00  0.00    +0.000 C 
ATOM     17  C   UNL     1      -1.846  12.033  20.193  0.00  0.00    +0.000 C 
ATOM     18  S   UNL     1      -0.815  12.970  21.325  0.00  0.00    +0.000 S 
ATOM     19  C   UNL     1       0.716  12.085  20.905  0.00  0.00    +0.000 C 
BRANCH  19  20
ATOM     20  C   UNL     1       1.621  12.892  19.971  0.00  0.00    +0.000 A 
ATOM     21  C   UNL     1       1.910  12.446  18.664  0.00  0.00    +0.000 A 
ATOM     22  C   UNL     1       2.860  13.090  17.863  0.00  0.00    +0.000 A 
ATOM     23  C   UNL     1       3.544  14.199  18.344  0.00  0.00    +0.000 A 
ATOM     24  C   UNL     1       3.232  14.702  19.604  0.00  0.00    +0.000 A 
ATOM     25  C   UNL     1       2.271  14.067  20.404  0.00  0.00    +0.000 A 
ATOM     26 CL   UNL     1       1.958  14.793  21.944  0.00  0.00    +0.000 Cl
ENDBRANCH  19  20
ENDBRANCH   1  15
TORSDOF 4
ENDMDL
MODEL 9
REMARK VINA RESULT:      -7.2      1.018      1.070
REMARK  Name = 
REMARK  5 active torsions:
REMARK  status: ('A' for Active; 'I' for Inactive)
REMARK    1  A    between atoms: C_1  and  C_2
REMARK    2  A    between atoms: N_4  and  C_5
REMARK    3  A    between atoms: C_8  and  S_9
REMARK    4  A    between atoms: S_9  and  N_12
REMARK    5  A    between atoms: C_16  and  C_17
REMARK                            x       y       z     vdW  Elec       q    Type
REMARK                         _______ _______ _______ _____ _____    ______ ____
ROOT
ATOM      1  S   UNL     1       1.802   4.344  19.558  0.00  0.00    +0.000 S 
ATOM      2  O   UNL     1       1.307   4.106  20.902  0.00  0.00    +0.000 OA
ATOM      3  O   UNL     1       1.088   3.824  18.410  0.00  0.00    +0.000 OA
ENDROOT
BRANCH   1   7
ATOM      4  C   UNL     1       1.929   8.908  19.004  0.00  0.00    +0.000 A 
ATOM      5  C   UNL     1       2.225   8.061  17.933  0.00  0.00    +0.000 A 
ATOM      6  C   UNL     1       2.225   6.664  18.099  0.00  0.00    +0.000 A 
ATOM      7  C   UNL     1       1.934   6.109  19.354  0.00  0.00    +0.000 A 
ATOM      8  C   UNL     1       1.609   6.951  20.418  0.00  0.00    +0.000 A 
ATOM      9  C   UNL     1       1.619   8.339  20.247  0.00  0.00    +0.000 A 
BRANCH   4  13
ATOM     10  C   UNL     1       1.225  12.600  18.643  0.00  0.00    +0.000 C 
ATOM     11  C   UNL     1       0.826  11.153  18.803  0.00  0.00    +0.000 C 
ATOM     12  O   UNL     1      -0.353  10.818  18.790  0.00  0.00    +0.000 OA
ATOM     13  N   UNL     1       1.922  10.318  18.931  0.00  0.00    +0.000 N 
ATOM     14  H   UNL     1       2.825  10.771  19.004  0.00  0.00    +0.000 HD
ENDBRANCH   4  13
ENDBRANCH   1   7
BRANCH   1  15
ATOM     15  N   UNL     1       3.382   3.769  19.485  0.00  0.00    +0.000 NA
ATOM     16  C   UNL     1       3.782   2.687  20.408  0.00  0.00    +0.000 C 
ATOM     17  C   UNL     1       4.319   1.491  19.644  0.00  0.00    +0.000 C 
ATOM     18  S   UNL     1       4.337   1.906  17.898  0.00  0.00    +0.000 S 
ATOM     19  C   UNL     1       4.032   3.679  18.160  0.00  0.00    +0.000 C 
BRANCH  19  20
ATOM     20  C   UNL     1       5.303   4.519  18.011  0.00  0.00    +0.000 A 
ATOM     21  C   UNL     1       5.998   5.005  19.139  0.00  0.00    +0.000 A 
ATOM     22  C   UNL     1       7.063   5.903  19.013  0.00  0.00    +0.000 A 
ATOM     23  C   UNL     1       7.465   6.339  17.758  0.00  0.00    +0.000 A 
ATOM     24  C   UNL     1       6.842   5.827  16.624  0.00  0.00    +0.000 A 
ATOM     25  C   UNL     1       5.783   4.916  16.745  0.00  0.00    +0.000 A 
ATOM     26 CL   UNL     1       5.098   4.336  15.265  0.00  0.00    +0.000 Cl
ENDBRANCH  19  20
ENDBRANCH   1  15
TORSDOF 4
ENDMDL
