MODEL 1
REMARK VINA RESULT:      -8.4      0.000      0.000
REMARK  Name = 
REMARK  4 active torsions:
REMARK  status: ('A' for Active; 'I' for Inactive)
REMARK    1  A    between atoms: C_1  and  C_2
REMARK    2  A    between atoms: C_7  and  C_8
REMARK    3  A    between atoms: C_8  and  C_10
REMARK    4  A    between atoms: C_16  and  C_18
REMARK                            x       y       z     vdW  Elec       q    Type
REMARK                         _______ _______ _______ _____ _____    ______ ____
ROOT
ATOM      1  C   UNL     1       0.953  11.132  19.115  0.00  0.00    +0.000 C 
ATOM      2  O   UNL     1       1.387  12.008  18.373  0.00  0.00    +0.000 OA
ATOM      3  N   UNL     1       1.071   9.769  18.842  0.00  0.00    +0.000 N 
ATOM      4  C   UNL     1       1.859   9.327  17.677  0.00  0.00    +0.000 C 
ATOM      5  C   UNL     1       3.011   8.379  18.079  0.00  0.00    +0.000 C 
ATOM      6  N   UNL     1       2.540   7.324  18.992  0.00  0.00    +0.000 N 
ATOM      7  C   UNL     1       2.763   5.988  18.653  0.00  0.00    +0.000 C 
ATOM      8  O   UNL     1       3.416   5.662  17.662  0.00  0.00    +0.000 OA
ATOM      9  C   UNL     1       1.868   7.865  20.186  0.00  0.00    +0.000 C 
ATOM     10  C   UNL     1       0.643   8.682  19.736  0.00  0.00    +0.000 C 
ENDROOT
BRANCH   7  11
ATOM     11  C   UNL     1       2.215   4.879  19.494  0.00  0.00    +0.000 A 
ATOM     12  C   UNL     1       2.521   4.737  20.851  0.00  0.00    +0.000 A 
ATOM     13  C   UNL     1       2.054   3.637  21.573  0.00  0.00    +0.000 A 
ATOM     14  C   UNL     1       1.195   2.721  20.969  0.00  0.00    +0.000 A 
ATOM     15  C   UNL     1       0.794   2.912  19.648  0.00  0.00    +0.000 A 
ATOM     16  C   UNL     1       1.306   3.983  18.910  0.00  0.00    +0.000 A 
ENDBRANCH   7  11
BRANCH   1  17
ATOM     17  C   UNL     1       0.300  11.569  20.434  0.00  0.00    +0.000 C 
ATOM     18  O   UNL     1       1.014  11.499  21.438  0.00  0.00    +0.000 OA
BRANCH  17  25
ATOM     19  C   UNL     1      -5.654  13.415  21.303  0.00  0.00    +0.000 C 
ATOM     20  C   UNL     1      -4.348  12.954  21.884  0.00  0.00    +0.000 A 
ATOM     21  C   UNL     1      -4.228  12.714  23.261  0.00  0.00    +0.000 A 
ATOM     22  C   UNL     1      -3.030  12.277  23.819  0.00  0.00    +0.000 A 
ATOM     23  C   UNL     1      -1.906  12.047  23.015  0.00  0.00    +0.000 A 
ATOM     24  C   UNL     1      -1.979  12.258  21.622  0.00  0.00    +0.000 A 
ATOM     25  C   UNL     1      -1.071  12.089  20.515  0.00  0.00    +0.000 A 
ATOM     26  C   UNL     1      -1.758  12.517  19.388  0.00  0.00    +0.000 A 
ATOM     27  N   UNL     1      -3.022  12.881  19.748  0.00  0.00    +0.000 N 
ATOM     28  C   UNL     1      -3.197  12.723  21.104  0.00  0.00    +0.000 A 
ATOM     29  H   UNL     1      -3.738  13.207  19.114  0.00  0.00    +0.000 HD
ENDBRANCH  17  25
ENDBRANCH   1  17
TORSDOF 3
ENDMDL
MODEL 2
REMARK VINA RESULT:      -8.4      2.769      4.341
REMARK  Name = 
REMARK  4 active torsions:
REMARK  status: ('A' for Active; 'I' for Inactive)
REMARK    1  A    between atoms: C_1  and  C_2
REMARK    2  A    between atoms: C_7  and  C_8
REMARK    3  A    between atoms: C_8  and  C_10
REMARK    4  A    between atoms: C_16  and  C_18
REMARK                            x       y       z     vdW  Elec       q    Type
REMARK                         _______ _______ _______ _____ _____    ______ ____
ROOT
ATOM      1  C   UNL     1       0.432   9.479  20.313  0.00  0.00    +0.000 C 
ATOM      2  O   UNL     1      -0.315   9.426  21.285  0.00  0.00    +0.000 OA
ATOM      3  N   UNL     1       1.488   8.590  20.109  0.00  0.00    +0.000 N 
ATOM      4  C   UNL     1       1.661   7.446  21.023  0.00  0.00    +0.000 C 
ATOM      5  C   UNL     1       1.626   6.093  20.276  0.00  0.00    +0.000 C 
ATOM      6  N   UNL     1       2.491   6.119  19.086  0.00  0.00    +0.000 N 
ATOM      7  C   UNL     1       3.482   5.145  18.948  0.00  0.00    +0.000 C 
ATOM      8  O   UNL     1       3.600   4.212  19.743  0.00  0.00    +0.000 OA
ATOM      9  C   UNL     1       2.167   7.228  18.172  0.00  0.00    +0.000 C 
ATOM     10  C   UNL     1       2.357   8.559  18.923  0.00  0.00    +0.000 C 
ENDROOT
BRANCH   7  11
ATOM     11  C   UNL     1       4.451   5.188  17.810  0.00  0.00    +0.000 A 
ATOM     12  C   UNL     1       5.524   6.084  17.763  0.00  0.00    +0.000 A 
ATOM     13  C   UNL     1       6.350   6.144  16.640  0.00  0.00    +0.000 A 
ATOM     14  C   UNL     1       6.172   5.240  15.595  0.00  0.00    +0.000 A 
ATOM     15  C   UNL     1       5.176   4.269  15.679  0.00  0.00    +0.000 A 
ATOM     16  C   UNL     1       4.313   4.246  16.779  0.00  0.00    +0.000 A 
ENDBRANCH   7  11
BRANCH   1  17
ATOM     17  C   UNL     1       0.146  10.545  19.246  0.00  0.00    +0.000 C 
ATOM     18  O   UNL     1       1.134  11.006  18.667  0.00  0.00    +0.000 OA
BRANCH  17  25
ATOM     19  C   UNL     1      -5.499  12.277  17.067  0.00  0.00    +0.000 C 
ATOM     20  C   UNL     1      -4.268  11.428  16.931  0.00  0.00    +0.000 A 
ATOM     21  C   UNL     1      -4.097  10.598  15.812  0.00  0.00    +0.000 A 
ATOM     22  C   UNL     1      -2.960   9.810  15.661  0.00  0.00    +0.000 A 
ATOM     23  C   UNL     1      -1.938   9.835  16.618  0.00  0.00    +0.000 A 
ATOM     24  C   UNL     1      -2.052  10.664  17.754  0.00  0.00    +0.000 A 
ATOM     25  C   UNL     1      -1.212  10.971  18.883  0.00  0.00    +0.000 A 
ATOM     26  C   UNL     1      -1.937  11.850  19.673  0.00  0.00    +0.000 A 
ATOM     27  N   UNL     1      -3.127  12.119  19.063  0.00  0.00    +0.000 N 
ATOM     28  C   UNL     1      -3.226  11.422  17.881  0.00  0.00    +0.000 A 
ATOM     29  H   UNL     1      -3.834  12.750  19.415  0.00  0.00    +0.000 HD
ENDBRANCH  17  25
ENDBRANCH   1  17
TORSDOF 3
ENDMDL
MODEL 3
REMARK VINA RESULT:      -8.2      0.968      1.748
REMARK  Name = 
REMARK  4 active torsions:
REMARK  status: ('A' for Active; 'I' for Inactive)
REMARK    1  A    between atoms: C_1  and  C_2
REMARK    2  A    between atoms: C_7  and  C_8
REMARK    3  A    between atoms: C_8  and  C_10
REMARK    4  A    between atoms: C_16  and  C_18
REMARK                            x       y       z     vdW  Elec       q    Type
REMARK                         _______ _______ _______ _____ _____    ______ ____
ROOT
ATOM      1  C   UNL     1       1.004  11.139  19.244  0.00  0.00    +0.000 C 
ATOM      2  O   UNL     1       1.377  12.004  18.457  0.00  0.00    +0.000 OA
ATOM      3  N   UNL     1       1.057   9.774  18.962  0.00  0.00    +0.000 N 
ATOM      4  C   UNL     1       1.699   9.312  17.718  0.00  0.00    +0.000 C 
ATOM      5  C   UNL     1       2.864   8.335  17.993  0.00  0.00    +0.000 C 
ATOM      6  N   UNL     1       2.470   7.292  18.954  0.00  0.00    +0.000 N 
ATOM      7  C   UNL     1       2.619   5.950  18.596  0.00  0.00    +0.000 C 
ATOM      8  O   UNL     1       3.150   5.609  17.539  0.00  0.00    +0.000 OA
ATOM      9  C   UNL     1       1.948   7.849  20.214  0.00  0.00    +0.000 C 
ATOM     10  C   UNL     1       0.702   8.698  19.900  0.00  0.00    +0.000 C 
ENDROOT
BRANCH   7  11
ATOM     11  C   UNL     1       2.139   4.856  19.494  0.00  0.00    +0.000 A 
ATOM     12  C   UNL     1       2.505   4.767  20.841  0.00  0.00    +0.000 A 
ATOM     13  C   UNL     1       2.100   3.679  21.617  0.00  0.00    +0.000 A 
ATOM     14  C   UNL     1       1.244   2.721  21.079  0.00  0.00    +0.000 A 
ATOM     15  C   UNL     1       0.783   2.857  19.771  0.00  0.00    +0.000 A 
ATOM     16  C   UNL     1       1.233   3.916  18.978  0.00  0.00    +0.000 A 
ENDBRANCH   7  11
BRANCH   1  17
ATOM     17  C   UNL     1       0.513  11.592  20.626  0.00  0.00    +0.000 C 
ATOM     18  O   UNL     1       1.356  11.587  21.526  0.00  0.00    +0.000 OA
BRANCH  17  25
ATOM     19  C   UNL     1      -5.429  13.623  21.050  0.00  0.00    +0.000 C 
ATOM     20  C   UNL     1      -4.380  12.849  20.305  0.00  0.00    +0.000 A 
ATOM     21  C   UNL     1      -4.671  12.278  19.057  0.00  0.00    +0.000 A 
ATOM     22  C   UNL     1      -3.711  11.565  18.345  0.00  0.00    +0.000 A 
ATOM     23  C   UNL     1      -2.414  11.408  18.848  0.00  0.00    +0.000 A 
ATOM     24  C   UNL     1      -2.065  11.976  20.092  0.00  0.00    +0.000 A 
ATOM     25  C   UNL     1      -0.858  12.055  20.876  0.00  0.00    +0.000 A 
ATOM     26  C   UNL     1      -1.200  12.732  22.038  0.00  0.00    +0.000 A 
ATOM     27  N   UNL     1      -2.512  13.098  21.970  0.00  0.00    +0.000 N 
ATOM     28  C   UNL     1      -3.069  12.665  20.790  0.00  0.00    +0.000 A 
ATOM     29  H   UNL     1      -3.008  13.625  22.676  0.00  0.00    +0.000 HD
ENDBRANCH  17  25
ENDBRANCH   1  17
TORSDOF 3
ENDMDL
MODEL 4
REMARK VINA RESULT:      -8.2      2.863      4.707
REMARK  Name = 
REMARK  4 active torsions:
REMARK  status: ('A' for Active; 'I' for Inactive)
REMARK    1  A    between atoms: C_1  and  C_2
REMARK    2  A    between atoms: C_7  and  C_8
REMARK    3  A    between atoms: C_8  and  C_10
REMARK    4  A    between atoms: C_16  and  C_18
REMARK                            x       y       z     vdW  Elec       q    Type
REMARK                         _______ _______ _______ _____ _____    ______ ____
ROOT
ATOM      1  C   UNL     1       0.252   9.652  19.913  0.00  0.00    +0.000 C 
ATOM      2  O   UNL     1      -0.434   9.684  20.930  0.00  0.00    +0.000 OA
ATOM      3  N   UNL     1       1.371   8.831  19.770  0.00  0.00    +0.000 N 
ATOM      4  C   UNL     1       1.697   7.856  20.826  0.00  0.00    +0.000 C 
ATOM      5  C   UNL     1       1.745   6.408  20.287  0.00  0.00    +0.000 C 
ATOM      6  N   UNL     1       2.539   6.326  19.050  0.00  0.00    +0.000 N 
ATOM      7  C   UNL     1       3.605   5.426  18.989  0.00  0.00    +0.000 C 
ATOM      8  O   UNL     1       3.850   4.637  19.901  0.00  0.00    +0.000 OA
ATOM      9  C   UNL     1       2.066   7.255  18.010  0.00  0.00    +0.000 C 
ATOM     10  C   UNL     1       2.175   8.695  18.546  0.00  0.00    +0.000 C 
ENDROOT
BRANCH   7  11
ATOM     11  C   UNL     1       4.503   5.378  17.795  0.00  0.00    +0.000 A 
ATOM     12  C   UNL     1       5.496   6.333  17.555  0.00  0.00    +0.000 A 
ATOM     13  C   UNL     1       6.252   6.293  16.382  0.00  0.00    +0.000 A 
ATOM     14  C   UNL     1       6.090   5.240  15.485  0.00  0.00    +0.000 A 
ATOM     15  C   UNL     1       5.182   4.221  15.766  0.00  0.00    +0.000 A 
ATOM     16  C   UNL     1       4.386   4.291  16.914  0.00  0.00    +0.000 A 
ENDBRANCH   7  11
BRANCH   1  17
ATOM     17  C   UNL     1      -0.187  10.519  18.725  0.00  0.00    +0.000 C 
ATOM     18  O   UNL     1      -0.660   9.912  17.760  0.00  0.00    +0.000 OA
BRANCH  17  25
ATOM     19  C   UNL     1       0.767  16.735  18.973  0.00  0.00    +0.000 C 
ATOM     20  C   UNL     1       1.313  15.353  18.753  0.00  0.00    +0.000 A 
ATOM     21  C   UNL     1       2.686  15.157  18.538  0.00  0.00    +0.000 A 
ATOM     22  C   UNL     1       3.214  13.885  18.341  0.00  0.00    +0.000 A 
ATOM     23  C   UNL     1       2.389  12.754  18.368  0.00  0.00    +0.000 A 
ATOM     24  C   UNL     1       1.004  12.894  18.596  0.00  0.00    +0.000 A 
ATOM     25  C   UNL     1      -0.106  11.985  18.731  0.00  0.00    +0.000 A 
ATOM     26  C   UNL     1      -1.231  12.778  18.911  0.00  0.00    +0.000 A 
ATOM     27  N   UNL     1      -0.852  14.088  18.940  0.00  0.00    +0.000 N 
ATOM     28  C   UNL     1       0.508  14.196  18.764  0.00  0.00    +0.000 A 
ATOM     29  H   UNL     1      -1.474  14.872  19.083  0.00  0.00    +0.000 HD
ENDBRANCH  17  25
ENDBRANCH   1  17
TORSDOF 3
ENDMDL
MODEL 5
REMARK VINA RESULT:      -7.9      2.620      3.916
REMARK  Name = 
REMARK  4 active torsions:
REMARK  status: ('A' for Active; 'I' for Inactive)
REMARK    1  A    between atoms: C_1  and  C_2
REMARK    2  A    between atoms: C_7  and  C_8
REMARK    3  A    between atoms: C_8  and  C_10
REMARK    4  A    between atoms: C_16  and  C_18
REMARK                            x       y       z     vdW  Elec       q    Type
REMARK                         _______ _______ _______ _____ _____    ______ ____
ROOT
ATOM      1  C   UNL     1       0.597   9.250  19.933  0.00  0.00    +0.000 C 
ATOM      2  O   UNL     1      -0.134   9.231  20.919  0.00  0.00    +0.000 OA
ATOM      3  N   UNL     1       1.686   8.392  19.771  0.00  0.00    +0.000 N 
ATOM      4  C   UNL     1       1.920   7.320  20.755  0.00  0.00    +0.000 C 
ATOM      5  C   UNL     1       1.931   5.920  20.100  0.00  0.00    +0.000 C 
ATOM      6  N   UNL     1       2.778   5.903  18.896  0.00  0.00    +0.000 N 
ATOM      7  C   UNL     1       3.806   4.962  18.806  0.00  0.00    +0.000 C 
ATOM      8  O   UNL     1       3.975   4.091  19.659  0.00  0.00    +0.000 OA
ATOM      9  C   UNL     1       2.394   6.934  17.917  0.00  0.00    +0.000 C 
ATOM     10  C   UNL     1       2.539   8.319  18.575  0.00  0.00    +0.000 C 
ENDROOT
BRANCH   7  11
ATOM     11  C   UNL     1       4.757   4.969  17.652  0.00  0.00    +0.000 A 
ATOM     12  C   UNL     1       4.578   4.169  16.519  0.00  0.00    +0.000 A 
ATOM     13  C   UNL     1       5.538   4.146  15.506  0.00  0.00    +0.000 A 
ATOM     14  C   UNL     1       6.638   4.999  15.570  0.00  0.00    +0.000 A 
ATOM     15  C   UNL     1       6.771   5.881  16.640  0.00  0.00    +0.000 A 
ATOM     16  C   UNL     1       5.838   5.864  17.681  0.00  0.00    +0.000 A 
ENDBRANCH   7  11
BRANCH   1  17
ATOM     17  C   UNL     1       0.252  10.230  18.803  0.00  0.00    +0.000 C 
ATOM     18  O   UNL     1       1.212  10.752  18.231  0.00  0.00    +0.000 OA
BRANCH  17  25
ATOM     19  C   UNL     1      -5.789  11.525  17.603  0.00  0.00    +0.000 C 
ATOM     20  C   UNL     1      -4.559  11.761  18.430  0.00  0.00    +0.000 A 
ATOM     21  C   UNL     1      -4.606  12.607  19.550  0.00  0.00    +0.000 A 
ATOM     22  C   UNL     1      -3.480  12.831  20.336  0.00  0.00    +0.000 A 
ATOM     23  C   UNL     1      -2.263  12.204  20.042  0.00  0.00    +0.000 A 
ATOM     24  C   UNL     1      -2.165  11.333  18.937  0.00  0.00    +0.000 A 
ATOM     25  C   UNL     1      -1.126  10.507  18.376  0.00  0.00    +0.000 A 
ATOM     26  C   UNL     1      -1.674   9.915  17.248  0.00  0.00    +0.000 A 
ATOM     27  N   UNL     1      -2.978  10.298  17.132  0.00  0.00    +0.000 N 
ATOM     28  C   UNL     1      -3.316  11.154  18.155  0.00  0.00    +0.000 A 
ATOM     29  H   UNL     1      -3.615   9.990  16.410  0.00  0.00    +0.000 HD
ENDBRANCH  17  25
ENDBRANCH   1  17
TORSDOF 3
ENDMDL
MODEL 6
REMARK VINA RESULT:      -7.9      3.051      4.797
REMARK  Name = 
REMARK  4 active torsions:
REMARK  status: ('A' for Active; 'I' for Inactive)
REMARK    1  A    between atoms: C_1  and  C_2
REMARK    2  A    between atoms: C_7  and  C_8
REMARK    3  A    between atoms: C_8  and  C_10
REMARK    4  A    between atoms: C_16  and  C_18
REMARK                            x       y       z     vdW  Elec       q    Type
REMARK                         _______ _______ _______ _____ _____    ______ ____
ROOT
ATOM      1  C   UNL     1       0.702   9.243  19.808  0.00  0.00    +0.000 C 
ATOM      2  O   UNL     1      -0.103   9.318  20.732  0.00  0.00    +0.000 OA
ATOM      3  N   UNL     1       1.737   8.309  19.768  0.00  0.00    +0.000 N 
ATOM      4  C   UNL     1       1.819   7.269  20.811  0.00  0.00    +0.000 C 
ATOM      5  C   UNL     1       1.782   5.844  20.214  0.00  0.00    +0.000 C 
ATOM      6  N   UNL     1       2.717   5.715  19.084  0.00  0.00    +0.000 N 
ATOM      7  C   UNL     1       3.681   4.705  19.115  0.00  0.00    +0.000 C 
ATOM      8  O   UNL     1       3.721   3.864  20.013  0.00  0.00    +0.000 OA
ATOM      9  C   UNL     1       2.483   6.724  18.037  0.00  0.00    +0.000 C 
ATOM     10  C   UNL     1       2.674   8.124  18.649  0.00  0.00    +0.000 C 
ENDROOT
BRANCH   7  11
ATOM     11  C   UNL     1       4.716   4.596  18.042  0.00  0.00    +0.000 A 
ATOM     12  C   UNL     1       4.431   4.111  16.762  0.00  0.00    +0.000 A 
ATOM     13  C   UNL     1       5.449   3.947  15.821  0.00  0.00    +0.000 A 
ATOM     14  C   UNL     1       6.745   4.360  16.119  0.00  0.00    +0.000 A 
ATOM     15  C   UNL     1       7.021   4.948  17.352  0.00  0.00    +0.000 A 
ATOM     16  C   UNL     1       6.012   5.060  18.314  0.00  0.00    +0.000 A 
ENDBRANCH   7  11
BRANCH   1  17
ATOM     17  C   UNL     1       0.515  10.192  18.616  0.00  0.00    +0.000 C 
ATOM     18  O   UNL     1      -0.257   9.804  17.734  0.00  0.00    +0.000 OA
BRANCH  17  25
ATOM     19  C   UNL     1       2.692  16.082  18.196  0.00  0.00    +0.000 C 
ATOM     20  C   UNL     1       1.620  15.132  18.644  0.00  0.00    +0.000 A 
ATOM     21  C   UNL     1       0.436  15.617  19.221  0.00  0.00    +0.000 A 
ATOM     22  C   UNL     1      -0.575  14.755  19.634  0.00  0.00    +0.000 A 
ATOM     23  C   UNL     1      -0.447  13.370  19.473  0.00  0.00    +0.000 A 
ATOM     24  C   UNL     1       0.717  12.831  18.885  0.00  0.00    +0.000 A 
ATOM     25  C   UNL     1       1.162  11.507  18.530  0.00  0.00    +0.000 A 
ATOM     26  C   UNL     1       2.440  11.660  18.010  0.00  0.00    +0.000 A 
ATOM     27  N   UNL     1       2.757  12.986  17.991  0.00  0.00    +0.000 N 
ATOM     28  C   UNL     1       1.722  13.732  18.505  0.00  0.00    +0.000 A 
ATOM     29  H   UNL     1       3.621  13.375  17.638  0.00  0.00    +0.000 HD
ENDBRANCH  17  25
ENDBRANCH   1  17
TORSDOF 3
ENDMDL
MODEL 7
REMARK VINA RESULT:      -7.9      1.744      2.810
REMARK  Name = 
REMARK  4 active torsions:
REMARK  status: ('A' for Active; 'I' for Inactive)
REMARK    1  A    between atoms: C_1  and  C_2
REMARK    2  A    between atoms: C_7  and  C_8
REMARK    3  A    between atoms: C_8  and  C_10
REMARK    4  A    between atoms: C_16  and  C_18
REMARK                            x       y       z     vdW  Elec       q    Type
REMARK                         _______ _______ _______ _____ _____    ______ ____
ROOT
ATOM      1  C   UNL     1       1.623  10.522  18.455  0.00  0.00    +0.000 C 
ATOM      2  O   UNL     1       2.211  11.306  17.717  0.00  0.00    +0.000 OA
ATOM      3  N   UNL     1       1.732   9.135  18.341  0.00  0.00    +0.000 N 
ATOM      4  C   UNL     1       2.687   8.557  17.379  0.00  0.00    +0.000 C 
ATOM      5  C   UNL     1       3.717   7.631  18.066  0.00  0.00    +0.000 C 
ATOM      6  N   UNL     1       3.056   6.687  18.982  0.00  0.00    +0.000 N 
ATOM      7  C   UNL     1       3.280   5.318  18.820  0.00  0.00    +0.000 C 
ATOM      8  O   UNL     1       4.078   4.877  17.994  0.00  0.00    +0.000 OA
ATOM      9  C   UNL     1       2.214   7.364  19.983  0.00  0.00    +0.000 C 
ATOM     10  C   UNL     1       1.116   8.157  19.251  0.00  0.00    +0.000 C 
ENDROOT
BRANCH   7  11
ATOM     11  C   UNL     1       2.554   4.315  19.658  0.00  0.00    +0.000 A 
ATOM     12  C   UNL     1       1.242   3.911  19.390  0.00  0.00    +0.000 A 
ATOM     13  C   UNL     1       0.578   3.037  20.251  0.00  0.00    +0.000 A 
ATOM     14  C   UNL     1       1.252   2.482  21.336  0.00  0.00    +0.000 A 
ATOM     15  C   UNL     1       2.594   2.791  21.552  0.00  0.00    +0.000 A 
ATOM     16  C   UNL     1       3.242   3.709  20.721  0.00  0.00    +0.000 A 
ENDBRANCH   7  11
BRANCH   1  17
ATOM     17  C   UNL     1       0.774  11.107  19.592  0.00  0.00    +0.000 C 
ATOM     18  O   UNL     1       1.377  11.366  20.637  0.00  0.00    +0.000 OA
BRANCH  17  25
ATOM     19  C   UNL     1      -5.294  12.237  18.361  0.00  0.00    +0.000 C 
ATOM     20  C   UNL     1      -4.032  11.487  18.047  0.00  0.00    +0.000 A 
ATOM     21  C   UNL     1      -3.979  10.611  16.952  0.00  0.00    +0.000 A 
ATOM     22  C   UNL     1      -2.816   9.913  16.638  0.00  0.00    +0.000 A 
ATOM     23  C   UNL     1      -1.653  10.077  17.400  0.00  0.00    +0.000 A 
ATOM     24  C   UNL     1      -1.648  10.958  18.502  0.00  0.00    +0.000 A 
ATOM     25  C   UNL     1      -0.659  11.397  19.454  0.00  0.00    +0.000 A 
ATOM     26  C   UNL     1      -1.318  12.257  20.321  0.00  0.00    +0.000 A 
ATOM     27  N   UNL     1      -2.613  12.391  19.917  0.00  0.00    +0.000 N 
ATOM     28  C   UNL     1      -2.847  11.622  18.801  0.00  0.00    +0.000 A 
ATOM     29  H   UNL     1      -3.305  12.980  20.360  0.00  0.00    +0.000 HD
ENDBRANCH  17  25
ENDBRANCH   1  17
TORSDOF 3
ENDMDL
MODEL 8
REMARK VINA RESULT:      -7.7      4.034      8.606
REMARK  Name = 
REMARK  4 active torsions:
REMARK  status: ('A' for Active; 'I' for Inactive)
REMARK    1  A    between atoms: C_1  and  C_2
REMARK    2  A    between atoms: C_7  and  C_8
REMARK    3  A    between atoms: C_8  and  C_10
REMARK    4  A    between atoms: C_16  and  C_18
REMARK                            x       y       z     vdW  Elec       q    Type
REMARK                         _______ _______ _______ _____ _____    ______ ____
ROOT
ATOM      1  C   UNL     1      -0.486  12.102  20.291  0.00  0.00    +0.000 C 
ATOM      2  O   UNL     1      -1.699  12.127  20.107  0.00  0.00    +0.000 OA
ATOM      3  N   UNL     1       0.416  12.875  19.559  0.00  0.00    +0.000 N 
ATOM      4  C   UNL     1      -0.092  13.869  18.596  0.00  0.00    +0.000 C 
ATOM      5  C   UNL     1       0.406  15.297  18.916  0.00  0.00    +0.000 C 
ATOM      6  N   UNL     1       1.856  15.311  19.170  0.00  0.00    +0.000 N 
ATOM      7  C   UNL     1       2.666  16.167  18.420  0.00  0.00    +0.000 C 
ATOM      8  O   UNL     1       2.200  16.974  17.616  0.00  0.00    +0.000 OA
ATOM      9  C   UNL     1       2.256  14.369  20.229  0.00  0.00    +0.000 C 
ATOM     10  C   UNL     1       1.866  12.943  19.797  0.00  0.00    +0.000 C 
ENDROOT
BRANCH   7  11
ATOM     11  C   UNL     1       4.153  16.145  18.569  0.00  0.00    +0.000 A 
ATOM     12  C   UNL     1       4.847  17.054  19.374  0.00  0.00    +0.000 A 
ATOM     13  C   UNL     1       6.242  17.048  19.413  0.00  0.00    +0.000 A 
ATOM     14  C   UNL     1       6.954  16.069  18.723  0.00  0.00    +0.000 A 
ATOM     15  C   UNL     1       6.270  15.090  18.005  0.00  0.00    +0.000 A 
ATOM     16  C   UNL     1       4.875  15.130  17.922  0.00  0.00    +0.000 A 
ENDBRANCH   7  11
BRANCH   1  17
ATOM     17  C   UNL     1       0.049  11.217  21.426  0.00  0.00    +0.000 C 
ATOM     18  O   UNL     1      -0.188  11.608  22.572  0.00  0.00    +0.000 OA
BRANCH  17  25
ATOM     19  C   UNL     1       2.803   5.790  19.821  0.00  0.00    +0.000 C 
ATOM     20  C   UNL     1       2.270   7.135  19.419  0.00  0.00    +0.000 A 
ATOM     21  C   UNL     1       2.243   7.514  18.068  0.00  0.00    +0.000 A 
ATOM     22  C   UNL     1       1.745   8.752  17.672  0.00  0.00    +0.000 A 
ATOM     23  C   UNL     1       1.236   9.655  18.614  0.00  0.00    +0.000 A 
ATOM     24  C   UNL     1       1.225   9.316  19.984  0.00  0.00    +0.000 A 
ATOM     25  C   UNL     1       0.757   9.952  21.189  0.00  0.00    +0.000 A 
ATOM     26  C   UNL     1       1.085   9.093  22.228  0.00  0.00    +0.000 A 
ATOM     27  N   UNL     1       1.671   7.974  21.712  0.00  0.00    +0.000 N 
ATOM     28  C   UNL     1       1.761   8.070  20.343  0.00  0.00    +0.000 A 
ATOM     29  H   UNL     1       1.984   7.178  22.251  0.00  0.00    +0.000 HD
ENDBRANCH  17  25
ENDBRANCH   1  17
TORSDOF 3
ENDMDL
MODEL 9
REMARK VINA RESULT:      -7.6      2.062      8.885
REMARK  Name = 
REMARK  4 active torsions:
REMARK  status: ('A' for Active; 'I' for Inactive)
REMARK    1  A    between atoms: C_1  and  C_2
REMARK    2  A    between atoms: C_7  and  C_8
REMARK    3  A    between atoms: C_8  and  C_10
REMARK    4  A    between atoms: C_16  and  C_18
REMARK                            x       y       z     vdW  Elec       q    Type
REMARK                         _______ _______ _______ _____ _____    ______ ____
ROOT
ATOM      1  C   UNL     1       1.018  11.817  20.030  0.00  0.00    +0.000 C 
ATOM      2  O   UNL     1       2.031  12.388  19.639  0.00  0.00    +0.000 OA
ATOM      3  N   UNL     1       0.185  12.328  21.025  0.00  0.00    +0.000 N 
ATOM      4  C   UNL     1       0.441  13.676  21.565  0.00  0.00    +0.000 C 
ATOM      5  C   UNL     1      -0.775  14.614  21.390  0.00  0.00    +0.000 C 
ATOM      6  N   UNL     1      -2.020  13.959  21.823  0.00  0.00    +0.000 N 
ATOM      7  C   UNL     1      -2.815  14.586  22.785  0.00  0.00    +0.000 C 
ATOM      8  O   UNL     1      -2.557  15.708  23.219  0.00  0.00    +0.000 OA
ATOM      9  C   UNL     1      -2.251  12.672  21.144  0.00  0.00    +0.000 C 
ATOM     10  C   UNL     1      -1.081  11.725  21.469  0.00  0.00    +0.000 C 
ENDROOT
BRANCH   7  11
ATOM     11  C   UNL     1      -4.034  13.915  23.332  0.00  0.00    +0.000 A 
ATOM     12  C   UNL     1      -3.972  12.897  24.289  0.00  0.00    +0.000 A 
ATOM     13  C   UNL     1      -5.133  12.242  24.706  0.00  0.00    +0.000 A 
ATOM     14  C   UNL     1      -6.376  12.666  24.242  0.00  0.00    +0.000 A 
ATOM     15  C   UNL     1      -6.460  13.752  23.373  0.00  0.00    +0.000 A 
ATOM     16  C   UNL     1      -5.293  14.372  22.914  0.00  0.00    +0.000 A 
ENDBRANCH   7  11
BRANCH   1  17
ATOM     17  C   UNL     1       0.626  10.502  19.341  0.00  0.00    +0.000 C 
ATOM     18  O   UNL     1      -0.165  10.602  18.399  0.00  0.00    +0.000 OA
BRANCH  17  25
ATOM     19  C   UNL     1       3.024   4.772  20.356  0.00  0.00    +0.000 C 
ATOM     20  C   UNL     1       2.912   5.988  19.482  0.00  0.00    +0.000 A 
ATOM     21  C   UNL     1       3.532   6.018  18.223  0.00  0.00    +0.000 A 
ATOM     22  C   UNL     1       3.433   7.130  17.393  0.00  0.00    +0.000 A 
ATOM     23  C   UNL     1       2.695   8.254  17.784  0.00  0.00    +0.000 A 
ATOM     24  C   UNL     1       2.039   8.269  19.033  0.00  0.00    +0.000 A 
ATOM     25  C   UNL     1       1.183   9.199  19.726  0.00  0.00    +0.000 A 
ATOM     26  C   UNL     1       0.902   8.618  20.954  0.00  0.00    +0.000 A 
ATOM     27  N   UNL     1       1.493   7.390  21.012  0.00  0.00    +0.000 N 
ATOM     28  C   UNL     1       2.185   7.138  19.851  0.00  0.00    +0.000 A 
ATOM     29  H   UNL     1       1.425   6.746  21.788  0.00  0.00    +0.000 HD
ENDBRANCH  17  25
ENDBRANCH   1  17
TORSDOF 3
ENDMDL
