MODEL 1
REMARK VINA RESULT:      -8.3      0.000      0.000
REMARK  Name = 
REMARK  4 active torsions:
REMARK  status: ('A' for Active; 'I' for Inactive)
REMARK    1  A    between atoms: C_5  and  C_6
REMARK    2  A    between atoms: C_6  and  N_7
REMARK    3  A    between atoms: C_12  and  C_13
REMARK    4  A    between atoms: C_13  and  N_14
REMARK                            x       y       z     vdW  Elec       q    Type
REMARK                         _______ _______ _______ _____ _____    ______ ____
ROOT
ATOM      1  N   UNL     1       3.090   3.556  17.980  0.00  0.00    +0.000 NA
ATOM      2  C   UNL     1       2.294   2.334  18.077  0.00  0.00    +0.000 C 
ATOM      3  C   UNL     1       0.911   2.459  18.715  0.00  0.00    +0.000 C 
ATOM      4  C   UNL     1       1.014   2.808  20.189  0.00  0.00    +0.000 C 
ATOM      5  O   UNL     1       0.999   4.200  20.456  0.00  0.00    +0.000 OA
ATOM      6  C   UNL     1       1.837   5.046  19.644  0.00  0.00    +0.000 C 
ATOM      7  C   UNL     1       3.170   4.408  19.184  0.00  0.00    +0.000 C 
ENDROOT
BRANCH   1   8
ATOM      8  C   UNL     1       4.435   3.319  17.407  0.00  0.00    +0.000 C 
BRANCH   8  13
ATOM      9  C   UNL     1       8.145   7.017  18.596  0.00  0.00    +0.000 A 
ATOM     10  C   UNL     1       7.741   5.772  19.309  0.00  0.00    +0.000 A 
ATOM     11  N   UNL     1       6.830   4.924  18.932  0.00  0.00    +0.000 NA
ATOM     12  C   UNL     1       6.197   5.209  17.751  0.00  0.00    +0.000 A 
ATOM     13  C   UNL     1       5.192   4.560  17.052  0.00  0.00    +0.000 A 
ATOM     14  C   UNL     1       4.974   5.386  15.925  0.00  0.00    +0.000 A 
ATOM     15  N   UNL     1       5.778   6.445  15.876  0.00  0.00    +0.000 NA
ATOM     16  N   UNL     1       6.524   6.348  17.002  0.00  0.00    +0.000 N 
ATOM     17  C   UNL     1       7.500   7.238  17.443  0.00  0.00    +0.000 A 
ENDBRANCH   8  13
ENDBRANCH   1   8
BRANCH   6  18
ATOM     18  C   UNL     1       2.107   6.294  20.538  0.00  0.00    +0.000 C 
BRANCH  18  19
ATOM     19  N   UNL     1       2.123   7.621  19.887  0.00  0.00    +0.000 NA
ATOM     20  C   UNL     1       2.076   7.526  18.422  0.00  0.00    +0.000 C 
ATOM     21  C   UNL     1       2.143   8.915  17.777  0.00  0.00    +0.000 C 
ATOM     22  C   UNL     1       1.037   9.828  18.293  0.00  0.00    +0.000 C 
ATOM     23  C   UNL     1       1.043   9.855  19.816  0.00  0.00    +0.000 C 
ATOM     24  C   UNL     1       1.011   8.442  20.398  0.00  0.00    +0.000 C 
ENDBRANCH  18  19
ENDBRANCH   6  18
TORSDOF 4
ENDMDL
MODEL 2
REMARK VINA RESULT:      -8.1      0.387      1.071
REMARK  Name = 
REMARK  4 active torsions:
REMARK  status: ('A' for Active; 'I' for Inactive)
REMARK    1  A    between atoms: C_5  and  C_6
REMARK    2  A    between atoms: C_6  and  N_7
REMARK    3  A    between atoms: C_12  and  C_13
REMARK    4  A    between atoms: C_13  and  N_14
REMARK                            x       y       z     vdW  Elec       q    Type
REMARK                         _______ _______ _______ _____ _____    ______ ____
ROOT
ATOM      1  N   UNL     1       3.076   3.518  18.042  0.00  0.00    +0.000 NA
ATOM      2  C   UNL     1       2.326   2.291  18.304  0.00  0.00    +0.000 C 
ATOM      3  C   UNL     1       0.961   2.446  18.973  0.00  0.00    +0.000 C 
ATOM      4  C   UNL     1       1.100   2.963  20.394  0.00  0.00    +0.000 C 
ATOM      5  O   UNL     1       1.046   4.376  20.503  0.00  0.00    +0.000 OA
ATOM      6  C   UNL     1       1.827   5.149  19.571  0.00  0.00    +0.000 C 
ATOM      7  C   UNL     1       3.166   4.504  19.138  0.00  0.00    +0.000 C 
ENDROOT
BRANCH   1   8
ATOM      8  C   UNL     1       4.410   3.259  17.451  0.00  0.00    +0.000 C 
BRANCH   8  13
ATOM      9  C   UNL     1       8.089   7.009  18.569  0.00  0.00    +0.000 A 
ATOM     10  C   UNL     1       7.671   5.793  19.322  0.00  0.00    +0.000 A 
ATOM     11  N   UNL     1       6.770   4.929  18.961  0.00  0.00    +0.000 NA
ATOM     12  C   UNL     1       6.162   5.165  17.755  0.00  0.00    +0.000 A 
ATOM     13  C   UNL     1       5.172   4.487  17.062  0.00  0.00    +0.000 A 
ATOM     14  C   UNL     1       4.977   5.266  15.899  0.00  0.00    +0.000 A 
ATOM     15  N   UNL     1       5.780   6.325  15.825  0.00  0.00    +0.000 NA
ATOM     16  N   UNL     1       6.503   6.274  16.969  0.00  0.00    +0.000 N 
ATOM     17  C   UNL     1       7.467   7.183  17.395  0.00  0.00    +0.000 A 
ENDBRANCH   8  13
ENDBRANCH   1   8
BRANCH   6  18
ATOM     18  C   UNL     1       2.083   6.499  20.309  0.00  0.00    +0.000 C 
BRANCH  18  19
ATOM     19  N   UNL     1       1.458   7.718  19.756  0.00  0.00    +0.000 NA
ATOM     20  C   UNL     1       1.345   8.791  20.754  0.00  0.00    +0.000 C 
ATOM     21  C   UNL     1       0.649  10.022  20.164  0.00  0.00    +0.000 C 
ATOM     22  C   UNL     1       1.361  10.523  18.913  0.00  0.00    +0.000 C 
ATOM     23  C   UNL     1       1.546   9.385  17.919  0.00  0.00    +0.000 C 
ATOM     24  C   UNL     1       2.210   8.175  18.575  0.00  0.00    +0.000 C 
ENDBRANCH  18  19
ENDBRANCH   6  18
TORSDOF 4
ENDMDL
MODEL 3
REMARK VINA RESULT:      -7.7      0.885      1.521
REMARK  Name = 
REMARK  4 active torsions:
REMARK  status: ('A' for Active; 'I' for Inactive)
REMARK    1  A    between atoms: C_5  and  C_6
REMARK    2  A    between atoms: C_6  and  N_7
REMARK    3  A    between atoms: C_12  and  C_13
REMARK    4  A    between atoms: C_13  and  N_14
REMARK                            x       y       z     vdW  Elec       q    Type
REMARK                         _______ _______ _______ _____ _____    ______ ____
ROOT
ATOM      1  N   UNL     1       2.988   3.832  18.253  0.00  0.00    +0.000 NA
ATOM      2  C   UNL     1       2.247   2.680  18.764  0.00  0.00    +0.000 C 
ATOM      3  C   UNL     1       0.960   2.972  19.533  0.00  0.00    +0.000 C 
ATOM      4  C   UNL     1       1.251   3.683  20.843  0.00  0.00    +0.000 C 
ATOM      5  O   UNL     1       1.232   5.098  20.749  0.00  0.00    +0.000 OA
ATOM      6  C   UNL     1       1.928   5.704  19.642  0.00  0.00    +0.000 C 
ATOM      7  C   UNL     1       3.205   4.962  19.180  0.00  0.00    +0.000 C 
ENDROOT
BRANCH   1   8
ATOM      8  C   UNL     1       4.251   3.448  17.579  0.00  0.00    +0.000 C 
BRANCH   8  13
ATOM      9  C   UNL     1       8.181   6.960  18.614  0.00  0.00    +0.000 A 
ATOM     10  C   UNL     1       7.662   5.811  19.409  0.00  0.00    +0.000 A 
ATOM     11  N   UNL     1       6.704   5.001  19.066  0.00  0.00    +0.000 NA
ATOM     12  C   UNL     1       6.135   5.231  17.840  0.00  0.00    +0.000 A 
ATOM     13  C   UNL     1       5.110   4.599  17.156  0.00  0.00    +0.000 A 
ATOM     14  C   UNL     1       4.992   5.340  15.958  0.00  0.00    +0.000 A 
ATOM     15  N   UNL     1       5.873   6.332  15.856  0.00  0.00    +0.000 NA
ATOM     16  N   UNL     1       6.571   6.277  17.015  0.00  0.00    +0.000 N 
ATOM     17  C   UNL     1       7.594   7.129  17.423  0.00  0.00    +0.000 A 
ENDBRANCH   8  13
ENDBRANCH   1   8
BRANCH   6  18
ATOM     18  C   UNL     1       2.280   7.137  20.146  0.00  0.00    +0.000 C 
BRANCH  18  19
ATOM     19  N   UNL     1       1.166   8.068  20.418  0.00  0.00    +0.000 NA
ATOM     20  C   UNL     1       1.213   8.616  21.781  0.00  0.00    +0.000 C 
ATOM     21  C   UNL     1       0.018   9.538  22.046  0.00  0.00    +0.000 C 
ATOM     22  C   UNL     1      -0.064  10.660  21.018  0.00  0.00    +0.000 C 
ATOM     23  C   UNL     1      -0.030  10.086  19.607  0.00  0.00    +0.000 C 
ATOM     24  C   UNL     1       1.161   9.148  19.417  0.00  0.00    +0.000 C 
ENDBRANCH  18  19
ENDBRANCH   6  18
TORSDOF 4
ENDMDL
MODEL 4
REMARK VINA RESULT:      -7.2      1.355      2.171
REMARK  Name = 
REMARK  4 active torsions:
REMARK  status: ('A' for Active; 'I' for Inactive)
REMARK    1  A    between atoms: C_5  and  C_6
REMARK    2  A    between atoms: C_6  and  N_7
REMARK    3  A    between atoms: C_12  and  C_13
REMARK    4  A    between atoms: C_13  and  N_14
REMARK                            x       y       z     vdW  Elec       q    Type
REMARK                         _______ _______ _______ _____ _____    ______ ____
ROOT
ATOM      1  N   UNL     1       3.798   3.956  19.092  0.00  0.00    +0.000 NA
ATOM      2  C   UNL     1       3.085   2.692  18.915  0.00  0.00    +0.000 C 
ATOM      3  C   UNL     1       1.559   2.759  18.881  0.00  0.00    +0.000 C 
ATOM      4  C   UNL     1       0.996   3.178  20.227  0.00  0.00    +0.000 C 
ATOM      5  O   UNL     1       0.815   4.577  20.367  0.00  0.00    +0.000 OA
ATOM      6  C   UNL     1       1.891   5.437  19.944  0.00  0.00    +0.000 C 
ATOM      7  C   UNL     1       3.313   4.864  20.151  0.00  0.00    +0.000 C 
ENDROOT
BRANCH   1   8
ATOM      8  C   UNL     1       5.267   3.778  19.175  0.00  0.00    +0.000 C 
BRANCH   8  13
ATOM      9  C   UNL     1       6.702   4.631  14.070  0.00  0.00    +0.000 A 
ATOM     10  C   UNL     1       5.718   3.682  14.664  0.00  0.00    +0.000 A 
ATOM     11  N   UNL     1       5.427   3.556  15.925  0.00  0.00    +0.000 NA
ATOM     12  C   UNL     1       6.089   4.398  16.780  0.00  0.00    +0.000 A 
ATOM     13  C   UNL     1       6.049   4.547  18.157  0.00  0.00    +0.000 A 
ATOM     14  C   UNL     1       6.992   5.569  18.416  0.00  0.00    +0.000 A 
ATOM     15  N   UNL     1       7.561   6.060  17.318  0.00  0.00    +0.000 NA
ATOM     16  N   UNL     1       7.019   5.336  16.310  0.00  0.00    +0.000 N 
ATOM     17  C   UNL     1       7.310   5.434  14.952  0.00  0.00    +0.000 A 
ENDBRANCH   8  13
ENDBRANCH   1   8
BRANCH   6  18
ATOM     18  C   UNL     1       1.697   6.738  20.781  0.00  0.00    +0.000 C 
BRANCH  18  19
ATOM     19  N   UNL     1       1.842   8.035  20.088  0.00  0.00    +0.000 NA
ATOM     20  C   UNL     1       1.920   7.884  18.628  0.00  0.00    +0.000 C 
ATOM     21  C   UNL     1       2.119   9.240  17.943  0.00  0.00    +0.000 C 
ATOM     22  C   UNL     1       1.023  10.228  18.324  0.00  0.00    +0.000 C 
ATOM     23  C   UNL     1       0.894  10.316  19.839  0.00  0.00    +0.000 C 
ATOM     24  C   UNL     1       0.736   8.931  20.465  0.00  0.00    +0.000 C 
ENDBRANCH  18  19
ENDBRANCH   6  18
TORSDOF 4
ENDMDL
MODEL 5
REMARK VINA RESULT:      -7.1      1.501      2.528
REMARK  Name = 
REMARK  4 active torsions:
REMARK  status: ('A' for Active; 'I' for Inactive)
REMARK    1  A    between atoms: C_5  and  C_6
REMARK    2  A    between atoms: C_6  and  N_7
REMARK    3  A    between atoms: C_12  and  C_13
REMARK    4  A    between atoms: C_13  and  N_14
REMARK                            x       y       z     vdW  Elec       q    Type
REMARK                         _______ _______ _______ _____ _____    ______ ____
ROOT
ATOM      1  N   UNL     1       4.103   4.347  18.994  0.00  0.00    +0.000 NA
ATOM      2  C   UNL     1       3.547   2.998  18.909  0.00  0.00    +0.000 C 
ATOM      3  C   UNL     1       2.024   2.875  18.943  0.00  0.00    +0.000 C 
ATOM      4  C   UNL     1       1.469   3.289  20.294  0.00  0.00    +0.000 C 
ATOM      5  O   UNL     1       1.120   4.661  20.380  0.00  0.00    +0.000 OA
ATOM      6  C   UNL     1       2.062   5.624  19.868  0.00  0.00    +0.000 C 
ATOM      7  C   UNL     1       3.552   5.241  20.034  0.00  0.00    +0.000 C 
ENDROOT
BRANCH   1   8
ATOM      8  C   UNL     1       5.585   4.356  19.017  0.00  0.00    +0.000 C 
BRANCH   8  13
ATOM      9  C   UNL     1       6.616   4.334  13.745  0.00  0.00    +0.000 A 
ATOM     10  C   UNL     1       5.766   3.438  14.580  0.00  0.00    +0.000 A 
ATOM     11  N   UNL     1       5.567   3.531  15.861  0.00  0.00    +0.000 NA
ATOM     12  C   UNL     1       6.195   4.573  16.491  0.00  0.00    +0.000 A 
ATOM     13  C   UNL     1       6.225   4.979  17.816  0.00  0.00    +0.000 A 
ATOM     14  C   UNL     1       7.078   6.106  17.807  0.00  0.00    +0.000 A 
ATOM     15  N   UNL     1       7.529   6.424  16.596  0.00  0.00    +0.000 NA
ATOM     16  N   UNL     1       6.999   5.479  15.785  0.00  0.00    +0.000 N 
ATOM     17  C   UNL     1       7.195   5.339  14.414  0.00  0.00    +0.000 A 
ENDBRANCH   8  13
ENDBRANCH   1   8
BRANCH   6  18
ATOM     18  C   UNL     1       1.742   6.932  20.654  0.00  0.00    +0.000 C 
BRANCH  18  19
ATOM     19  N   UNL     1       1.227   8.088  19.892  0.00  0.00    +0.000 NA
ATOM     20  C   UNL     1       1.081   9.289  20.726  0.00  0.00    +0.000 C 
ATOM     21  C   UNL     1       0.500  10.454  19.918  0.00  0.00    +0.000 C 
ATOM     22  C   UNL     1       1.341  10.756  18.684  0.00  0.00    +0.000 C 
ATOM     23  C   UNL     1       1.555   9.488  17.868  0.00  0.00    +0.000 C 
ATOM     24  C   UNL     1       2.100   8.354  18.735  0.00  0.00    +0.000 C 
ENDBRANCH  18  19
ENDBRANCH   6  18
TORSDOF 4
ENDMDL
MODEL 6
REMARK VINA RESULT:      -6.9      2.871      5.245
REMARK  Name = 
REMARK  4 active torsions:
REMARK  status: ('A' for Active; 'I' for Inactive)
REMARK    1  A    between atoms: C_5  and  C_6
REMARK    2  A    between atoms: C_6  and  N_7
REMARK    3  A    between atoms: C_12  and  C_13
REMARK    4  A    between atoms: C_13  and  N_14
REMARK                            x       y       z     vdW  Elec       q    Type
REMARK                         _______ _______ _______ _____ _____    ______ ____
ROOT
ATOM      1  N   UNL     1       1.960   7.925  18.813  0.00  0.00    +0.000 NA
ATOM      2  C   UNL     1       2.136   7.412  20.170  0.00  0.00    +0.000 C 
ATOM      3  C   UNL     1       1.103   7.842  21.210  0.00  0.00    +0.000 C 
ATOM      4  C   UNL     1       1.193   9.331  21.492  0.00  0.00    +0.000 C 
ATOM      5  O   UNL     1       0.349  10.126  20.677  0.00  0.00    +0.000 OA
ATOM      6  C   UNL     1       0.329   9.847  19.263  0.00  0.00    +0.000 C 
ATOM      7  C   UNL     1       1.674   9.367  18.666  0.00  0.00    +0.000 C 
ENDROOT
BRANCH   1   8
ATOM      8  C   UNL     1       3.045   7.503  17.895  0.00  0.00    +0.000 C 
BRANCH   8  13
ATOM      9  C   UNL     1       2.301   2.212  18.444  0.00  0.00    +0.000 A 
ATOM     10  C   UNL     1       1.355   3.298  18.061  0.00  0.00    +0.000 A 
ATOM     11  N   UNL     1       1.634   4.563  17.942  0.00  0.00    +0.000 NA
ATOM     12  C   UNL     1       2.937   4.914  18.181  0.00  0.00    +0.000 A 
ATOM     13  C   UNL     1       3.591   6.135  18.160  0.00  0.00    +0.000 A 
ATOM     14  C   UNL     1       4.919   5.815  18.525  0.00  0.00    +0.000 A 
ATOM     15  N   UNL     1       5.119   4.515  18.728  0.00  0.00    +0.000 NA
ATOM     16  N   UNL     1       3.901   3.957  18.529  0.00  0.00    +0.000 N 
ATOM     17  C   UNL     1       3.561   2.614  18.656  0.00  0.00    +0.000 A 
ENDBRANCH   8  13
ENDBRANCH   1   8
BRANCH   6  18
ATOM     18  C   UNL     1      -0.110  11.194  18.610  0.00  0.00    +0.000 C 
BRANCH  18  19
ATOM     19  N   UNL     1      -1.441  11.252  17.973  0.00  0.00    +0.000 NA
ATOM     20  C   UNL     1      -1.789  10.001  17.285  0.00  0.00    +0.000 C 
ATOM     21  C   UNL     1      -3.152  10.111  16.595  0.00  0.00    +0.000 C 
ATOM     22  C   UNL     1      -4.248  10.507  17.577  0.00  0.00    +0.000 C 
ATOM     23  C   UNL     1      -3.843  11.759  18.344  0.00  0.00    +0.000 C 
ATOM     24  C   UNL     1      -2.461  11.600  18.977  0.00  0.00    +0.000 C 
ENDBRANCH  18  19
ENDBRANCH   6  18
TORSDOF 4
ENDMDL
MODEL 7
REMARK VINA RESULT:      -6.9      1.734      2.817
REMARK  Name = 
REMARK  4 active torsions:
REMARK  status: ('A' for Active; 'I' for Inactive)
REMARK    1  A    between atoms: C_5  and  C_6
REMARK    2  A    between atoms: C_6  and  N_7
REMARK    3  A    between atoms: C_12  and  C_13
REMARK    4  A    between atoms: C_13  and  N_14
REMARK                            x       y       z     vdW  Elec       q    Type
REMARK                         _______ _______ _______ _____ _____    ______ ____
ROOT
ATOM      1  N   UNL     1       3.881   4.246  19.094  0.00  0.00    +0.000 NA
ATOM      2  C   UNL     1       3.062   3.116  19.528  0.00  0.00    +0.000 C 
ATOM      3  C   UNL     1       1.561   3.366  19.671  0.00  0.00    +0.000 C 
ATOM      4  C   UNL     1       1.270   4.336  20.803  0.00  0.00    +0.000 C 
ATOM      5  O   UNL     1       1.214   5.694  20.400  0.00  0.00    +0.000 OA
ATOM      6  C   UNL     1       2.259   6.178  19.533  0.00  0.00    +0.000 C 
ATOM      7  C   UNL     1       3.652   5.544  19.761  0.00  0.00    +0.000 C 
ENDROOT
BRANCH   1   8
ATOM      8  C   UNL     1       5.326   3.921  19.048  0.00  0.00    +0.000 C 
BRANCH   8  13
ATOM      9  C   UNL     1       6.673   4.522  13.883  0.00  0.00    +0.000 A 
ATOM     10  C   UNL     1       5.695   3.609  14.539  0.00  0.00    +0.000 A 
ATOM     11  N   UNL     1       5.426   3.544  15.809  0.00  0.00    +0.000 NA
ATOM     12  C   UNL     1       6.108   4.422  16.611  0.00  0.00    +0.000 A 
ATOM     13  C   UNL     1       6.095   4.636  17.980  0.00  0.00    +0.000 A 
ATOM     14  C   UNL     1       7.047   5.663  18.173  0.00  0.00    +0.000 A 
ATOM     15  N   UNL     1       7.599   6.098  17.043  0.00  0.00    +0.000 NA
ATOM     16  N   UNL     1       7.035   5.331  16.081  0.00  0.00    +0.000 N 
ATOM     17  C   UNL     1       7.302   5.363  14.715  0.00  0.00    +0.000 A 
ENDBRANCH   8  13
ENDBRANCH   1   8
BRANCH   6  18
ATOM     18  C   UNL     1       2.305   7.713  19.804  0.00  0.00    +0.000 C 
BRANCH  18  19
ATOM     19  N   UNL     1       1.129   8.338  20.444  0.00  0.00    +0.000 NA
ATOM     20  C   UNL     1       1.367   8.663  21.857  0.00  0.00    +0.000 C 
ATOM     21  C   UNL     1       0.114   9.264  22.504  0.00  0.00    +0.000 C 
ATOM     22  C   UNL     1      -0.376  10.491  21.745  0.00  0.00    +0.000 C 
ATOM     23  C   UNL     1      -0.542  10.165  20.266  0.00  0.00    +0.000 C 
ATOM     24  C   UNL     1       0.726   9.537  19.689  0.00  0.00    +0.000 C 
ENDBRANCH  18  19
ENDBRANCH   6  18
TORSDOF 4
ENDMDL
MODEL 8
REMARK VINA RESULT:      -6.8      3.108      5.441
REMARK  Name = 
REMARK  4 active torsions:
REMARK  status: ('A' for Active; 'I' for Inactive)
REMARK    1  A    between atoms: C_5  and  C_6
REMARK    2  A    between atoms: C_6  and  N_7
REMARK    3  A    between atoms: C_12  and  C_13
REMARK    4  A    between atoms: C_13  and  N_14
REMARK                            x       y       z     vdW  Elec       q    Type
REMARK                         _______ _______ _______ _____ _____    ______ ____
ROOT
ATOM      1  N   UNL     1       1.894   8.044  18.686  0.00  0.00    +0.000 NA
ATOM      2  C   UNL     1       2.208   7.604  20.044  0.00  0.00    +0.000 C 
ATOM      3  C   UNL     1       1.161   7.887  21.120  0.00  0.00    +0.000 C 
ATOM      4  C   UNL     1       1.014   9.378  21.368  0.00  0.00    +0.000 C 
ATOM      5  O   UNL     1       0.017  10.000  20.575  0.00  0.00    +0.000 OA
ATOM      6  C   UNL     1      -0.014   9.683  19.169  0.00  0.00    +0.000 C 
ATOM      7  C   UNL     1       1.367   9.415  18.523  0.00  0.00    +0.000 C 
ENDROOT
BRANCH   1   8
ATOM      8  C   UNL     1       2.996   7.782  17.730  0.00  0.00    +0.000 C 
BRANCH   8  13
ATOM      9  C   UNL     1       2.449   2.449  18.062  0.00  0.00    +0.000 A 
ATOM     10  C   UNL     1       1.435   3.527  17.881  0.00  0.00    +0.000 A 
ATOM     11  N   UNL     1       1.668   4.804  17.799  0.00  0.00    +0.000 NA
ATOM     12  C   UNL     1       2.984   5.179  17.873  0.00  0.00    +0.000 A 
ATOM     13  C   UNL     1       3.603   6.418  17.834  0.00  0.00    +0.000 A 
ATOM     14  C   UNL     1       4.976   6.118  17.989  0.00  0.00    +0.000 A 
ATOM     15  N   UNL     1       5.229   4.815  18.084  0.00  0.00    +0.000 NA
ATOM     16  N   UNL     1       4.008   4.233  18.025  0.00  0.00    +0.000 N 
ATOM     17  C   UNL     1       3.717   2.875  18.118  0.00  0.00    +0.000 A 
ENDBRANCH   8  13
ENDBRANCH   1   8
BRANCH   6  18
ATOM     18  C   UNL     1      -0.696  10.920  18.509  0.00  0.00    +0.000 C 
BRANCH  18  19
ATOM     19  N   UNL     1      -2.109  10.792  18.097  0.00  0.00    +0.000 NA
ATOM     20  C   UNL     1      -2.966  11.817  18.710  0.00  0.00    +0.000 C 
ATOM     21  C   UNL     1      -4.431  11.628  18.302  0.00  0.00    +0.000 C 
ATOM     22  C   UNL     1      -4.595  11.625  16.787  0.00  0.00    +0.000 C 
ATOM     23  C   UNL     1      -3.644  10.617  16.154  0.00  0.00    +0.000 C 
ATOM     24  C   UNL     1      -2.208  10.834  16.628  0.00  0.00    +0.000 C 
ENDBRANCH  18  19
ENDBRANCH   6  18
TORSDOF 4
ENDMDL
MODEL 9
REMARK VINA RESULT:      -6.8      2.008      6.720
REMARK  Name = 
REMARK  4 active torsions:
REMARK  status: ('A' for Active; 'I' for Inactive)
REMARK    1  A    between atoms: C_5  and  C_6
REMARK    2  A    between atoms: C_6  and  N_7
REMARK    3  A    between atoms: C_12  and  C_13
REMARK    4  A    between atoms: C_13  and  N_14
REMARK                            x       y       z     vdW  Elec       q    Type
REMARK                         _______ _______ _______ _____ _____    ______ ____
ROOT
ATOM      1  N   UNL     1       2.270   6.280  19.987  0.00  0.00    +0.000 NA
ATOM      2  C   UNL     1       1.020   5.586  20.289  0.00  0.00    +0.000 C 
ATOM      3  C   UNL     1       1.128   4.122  20.712  0.00  0.00    +0.000 C 
ATOM      4  C   UNL     1       1.627   3.254  19.570  0.00  0.00    +0.000 C 
ATOM      5  O   UNL     1       3.035   3.098  19.535  0.00  0.00    +0.000 OA
ATOM      6  C   UNL     1       3.843   4.280  19.705  0.00  0.00    +0.000 C 
ATOM      7  C   UNL     1       3.241   5.580  19.121  0.00  0.00    +0.000 C 
ENDROOT
BRANCH   1   8
ATOM      8  C   UNL     1       2.055   7.672  19.526  0.00  0.00    +0.000 C 
BRANCH   8  13
ATOM      9  C   UNL     1      -1.290  11.720  20.657  0.00  0.00    +0.000 A 
ATOM     10  C   UNL     1      -0.962  11.054  19.365  0.00  0.00    +0.000 A 
ATOM     11  N   UNL     1      -0.139  10.063  19.191  0.00  0.00    +0.000 NA
ATOM     12  C   UNL     1       0.469   9.582  20.322  0.00  0.00    +0.000 A 
ATOM     13  C   UNL     1       1.389   8.566  20.525  0.00  0.00    +0.000 A 
ATOM     14  C   UNL     1       1.630   8.600  21.917  0.00  0.00    +0.000 A 
ATOM     15  N   UNL     1       0.914   9.518  22.561  0.00  0.00    +0.000 NA
ATOM     16  N   UNL     1       0.207  10.133  21.584  0.00  0.00    +0.000 N 
ATOM     17  C   UNL     1      -0.674  11.201  21.728  0.00  0.00    +0.000 A 
ENDBRANCH   8  13
ENDBRANCH   1   8
BRANCH   6  18
ATOM     18  C   UNL     1       5.188   3.933  18.996  0.00  0.00    +0.000 C 
BRANCH  18  19
ATOM     19  N   UNL     1       5.492   4.613  17.720  0.00  0.00    +0.000 NA
ATOM     20  C   UNL     1       6.899   5.026  17.627  0.00  0.00    +0.000 C 
ATOM     21  C   UNL     1       7.171   5.770  16.316  0.00  0.00    +0.000 C 
ATOM     22  C   UNL     1       6.775   4.935  15.104  0.00  0.00    +0.000 C 
ATOM     23  C   UNL     1       5.340   4.443  15.248  0.00  0.00    +0.000 C 
ATOM     24  C   UNL     1       5.124   3.743  16.589  0.00  0.00    +0.000 C 
ENDBRANCH  18  19
ENDBRANCH   6  18
TORSDOF 4
ENDMDL
