MODEL 1
REMARK VINA RESULT:      -8.3      0.000      0.000
REMARK  Name = 
REMARK  8 active torsions:
REMARK  status: ('A' for Active; 'I' for Inactive)
REMARK    1  A    between atoms: N_1  and  C_2
REMARK    2  A    between atoms: C_2  and  C_3
REMARK    3  A    between atoms: C_2  and  C_14
REMARK    4  A    between atoms: C_3  and  O_4
REMARK    5  A    between atoms: O_4  and  C_5
REMARK    6  A    between atoms: C_5  and  C_6
REMARK    7  A    between atoms: C_14  and  C_15
REMARK    8  A    between atoms: C_14  and  C_21
REMARK                            x       y       z     vdW  Elec       q    Type
REMARK                         _______ _______ _______ _____ _____    ______ ____
ROOT
ATOM      1  C   UNL     1       2.213   7.156  18.725  0.00  0.00    +0.000 C 
ENDROOT
BRANCH   1   2
ATOM      2  N   UNL     1       2.497   7.333  20.172  0.00  0.00    +0.000 NA
ATOM      3  H   UNL     1       1.976   6.636  20.701  0.00  0.00    +0.000 HD
ATOM      4  H   UNL     1       2.062   8.224  20.436  0.00  0.00    +0.000 HD
ENDBRANCH   1   2
BRANCH   1   5
ATOM      5  C   UNL     1       2.419   8.532  18.031  0.00  0.00    +0.000 C 
BRANCH   5   6
ATOM      6  O   UNL     1       1.157   9.130  17.720  0.00  0.00    +0.000 OA
BRANCH   6   7
ATOM      7  C   UNL     1       0.615   9.855  18.818  0.00  0.00    +0.000 C 
BRANCH   7   8
ATOM      8  C   UNL     1      -0.753  10.372  18.445  0.00  0.00    +0.000 A 
ATOM      9  C   UNL     1      -1.350   9.980  17.238  0.00  0.00    +0.000 A 
ATOM     10  C   UNL     1      -2.614  10.451  16.880  0.00  0.00    +0.000 A 
ATOM     11 CL   UNL     1      -3.339   9.942  15.404  0.00  0.00    +0.000 Cl
ATOM     12  C   UNL     1      -3.310  11.314  17.719  0.00  0.00    +0.000 A 
ATOM     13  C   UNL     1      -2.731  11.695  18.925  0.00  0.00    +0.000 A 
ATOM     14 CL   UNL     1      -3.602  12.727  19.991  0.00  0.00    +0.000 Cl
ATOM     15  C   UNL     1      -1.460  11.237  19.288  0.00  0.00    +0.000 A 
ENDBRANCH   7   8
ENDBRANCH   6   7
ENDBRANCH   5   6
ENDBRANCH   1   5
BRANCH   1  16
ATOM     16  C   UNL     1       3.002   5.987  17.993  0.00  0.00    +0.000 C 
BRANCH  16  17
ATOM     17  C   UNL     1       4.524   6.050  18.118  0.00  0.00    +0.000 A 
ATOM     18  C   UNL     1       5.301   6.752  17.184  0.00  0.00    +0.000 A 
ATOM     19  C   UNL     1       6.692   6.727  17.249  0.00  0.00    +0.000 A 
ATOM     20  C   UNL     1       7.328   6.052  18.286  0.00  0.00    +0.000 A 
ATOM     21  C   UNL     1       6.572   5.408  19.263  0.00  0.00    +0.000 A 
ATOM     22  C   UNL     1       5.177   5.397  19.176  0.00  0.00    +0.000 A 
ENDBRANCH  16  17
BRANCH  16  23
ATOM     23  C   UNL     1       2.474   4.568  18.256  0.00  0.00    +0.000 A 
ATOM     24  C   UNL     1       1.540   4.356  19.284  0.00  0.00    +0.000 A 
ATOM     25  C   UNL     1       1.021   3.081  19.534  0.00  0.00    +0.000 A 
ATOM     26  C   UNL     1       1.420   1.997  18.756  0.00  0.00    +0.000 A 
ATOM     27  C   UNL     1       2.333   2.191  17.724  0.00  0.00    +0.000 A 
ATOM     28  C   UNL     1       2.852   3.460  17.474  0.00  0.00    +0.000 A 
ENDBRANCH  16  23
ENDBRANCH   1  16
TORSDOF 8
ENDMDL
MODEL 2
REMARK VINA RESULT:      -8.3      0.112      1.339
REMARK  Name = 
REMARK  8 active torsions:
REMARK  status: ('A' for Active; 'I' for Inactive)
REMARK    1  A    between atoms: N_1  and  C_2
REMARK    2  A    between atoms: C_2  and  C_3
REMARK    3  A    between atoms: C_2  and  C_14
REMARK    4  A    between atoms: C_3  and  O_4
REMARK    5  A    between atoms: O_4  and  C_5
REMARK    6  A    between atoms: C_5  and  C_6
REMARK    7  A    between atoms: C_14  and  C_15
REMARK    8  A    between atoms: C_14  and  C_21
REMARK                            x       y       z     vdW  Elec       q    Type
REMARK                         _______ _______ _______ _____ _____    ______ ____
ROOT
ATOM      1  C   UNL     1       2.273   7.132  18.672  0.00  0.00    +0.000 C 
ENDROOT
BRANCH   1   2
ATOM      2  N   UNL     1       2.594   7.312  20.111  0.00  0.00    +0.000 NA
ATOM      3  H   UNL     1       3.451   7.858  20.195  0.00  0.00    +0.000 HD
ATOM      4  H   UNL     1       2.855   6.383  20.459  0.00  0.00    +0.000 HD
ENDBRANCH   1   2
BRANCH   1   5
ATOM      5  C   UNL     1       2.493   8.499  17.965  0.00  0.00    +0.000 C 
BRANCH   5   6
ATOM      6  O   UNL     1       1.237   9.111  17.656  0.00  0.00    +0.000 OA
BRANCH   6   7
ATOM      7  C   UNL     1       0.696   9.827  18.761  0.00  0.00    +0.000 C 
BRANCH   7   8
ATOM      8  C   UNL     1      -0.678  10.334  18.399  0.00  0.00    +0.000 A 
ATOM      9  C   UNL     1      -1.292   9.919  17.209  0.00  0.00    +0.000 A 
ATOM     10  C   UNL     1      -2.563  10.380  16.862  0.00  0.00    +0.000 A 
ATOM     11 CL   UNL     1      -3.310   9.843  15.406  0.00  0.00    +0.000 Cl
ATOM     12  C   UNL     1      -3.248  11.256  17.696  0.00  0.00    +0.000 A 
ATOM     13  C   UNL     1      -2.652  11.661  18.886  0.00  0.00    +0.000 A 
ATOM     14 CL   UNL     1      -3.509  12.710  19.947  0.00  0.00    +0.000 Cl
ATOM     15  C   UNL     1      -1.375  11.212  19.238  0.00  0.00    +0.000 A 
ENDBRANCH   7   8
ENDBRANCH   6   7
ENDBRANCH   5   6
ENDBRANCH   1   5
BRANCH   1  16
ATOM     16  C   UNL     1       3.019   5.942  17.931  0.00  0.00    +0.000 C 
BRANCH  16  17
ATOM     17  C   UNL     1       4.544   5.956  18.044  0.00  0.00    +0.000 A 
ATOM     18  C   UNL     1       5.194   5.394  19.153  0.00  0.00    +0.000 A 
ATOM     19  C   UNL     1       6.576   5.494  19.297  0.00  0.00    +0.000 A 
ATOM     20  C   UNL     1       7.336   6.099  18.302  0.00  0.00    +0.000 A 
ATOM     21  C   UNL     1       6.716   6.601  17.160  0.00  0.00    +0.000 A 
ATOM     22  C   UNL     1       5.325   6.540  17.035  0.00  0.00    +0.000 A 
ENDBRANCH  16  17
BRANCH  16  23
ATOM     23  C   UNL     1       2.449   4.539  18.192  0.00  0.00    +0.000 A 
ATOM     24  C   UNL     1       2.891   3.455  17.414  0.00  0.00    +0.000 A 
ATOM     25  C   UNL     1       2.410   2.162  17.641  0.00  0.00    +0.000 A 
ATOM     26  C   UNL     1       1.486   1.926  18.655  0.00  0.00    +0.000 A 
ATOM     27  C   UNL     1       1.048   2.984  19.445  0.00  0.00    +0.000 A 
ATOM     28  C   UNL     1       1.524   4.274  19.220  0.00  0.00    +0.000 A 
ENDBRANCH  16  23
ENDBRANCH   1  16
TORSDOF 8
ENDMDL
MODEL 3
REMARK VINA RESULT:      -8.3      0.114      2.215
REMARK  Name = 
REMARK  8 active torsions:
REMARK  status: ('A' for Active; 'I' for Inactive)
REMARK    1  A    between atoms: N_1  and  C_2
REMARK    2  A    between atoms: C_2  and  C_3
REMARK    3  A    between atoms: C_2  and  C_14
REMARK    4  A    between atoms: C_3  and  O_4
REMARK    5  A    between atoms: O_4  and  C_5
REMARK    6  A    between atoms: C_5  and  C_6
REMARK    7  A    between atoms: C_14  and  C_15
REMARK    8  A    between atoms: C_14  and  C_21
REMARK                            x       y       z     vdW  Elec       q    Type
REMARK                         _______ _______ _______ _____ _____    ______ ____
ROOT
ATOM      1  C   UNL     1       2.247   7.136  18.734  0.00  0.00    +0.000 C 
ENDROOT
BRANCH   1   2
ATOM      2  N   UNL     1       2.525   7.279  20.186  0.00  0.00    +0.000 NA
ATOM      3  H   UNL     1       1.685   7.616  20.654  0.00  0.00    +0.000 HD
ATOM      4  H   UNL     1       3.187   8.058  20.270  0.00  0.00    +0.000 HD
ENDBRANCH   1   2
BRANCH   1   5
ATOM      5  C   UNL     1       2.510   8.515  18.066  0.00  0.00    +0.000 C 
BRANCH   5   6
ATOM      6  O   UNL     1       1.273   9.151  17.726  0.00  0.00    +0.000 OA
BRANCH   6   7
ATOM      7  C   UNL     1       0.785   9.982  18.774  0.00  0.00    +0.000 C 
BRANCH   7   8
ATOM      8  C   UNL     1      -0.623  10.415  18.449  0.00  0.00    +0.000 A 
ATOM      9  C   UNL     1      -1.312  11.280  19.310  0.00  0.00    +0.000 A 
ATOM     10  C   UNL     1      -2.615  11.688  19.022  0.00  0.00    +0.000 A 
ATOM     11 CL   UNL     1      -3.438  12.767  20.082  0.00  0.00    +0.000 Cl
ATOM     12  C   UNL     1      -3.253  11.250  17.867  0.00  0.00    +0.000 A 
ATOM     13  C   UNL     1      -2.570  10.405  16.998  0.00  0.00    +0.000 A 
ATOM     14 CL   UNL     1      -3.333   9.892  15.543  0.00  0.00    +0.000 Cl
ATOM     15  C   UNL     1      -1.268   9.982  17.284  0.00  0.00    +0.000 A 
ENDBRANCH   7   8
ENDBRANCH   6   7
ENDBRANCH   5   6
ENDBRANCH   1   5
BRANCH   1  16
ATOM     16  C   UNL     1       2.998   5.952  17.989  0.00  0.00    +0.000 C 
BRANCH  16  17
ATOM     17  C   UNL     1       4.523   5.977  18.094  0.00  0.00    +0.000 A 
ATOM     18  C   UNL     1       5.189   5.332  19.147  0.00  0.00    +0.000 A 
ATOM     19  C   UNL     1       6.570   5.438  19.291  0.00  0.00    +0.000 A 
ATOM     20  C   UNL     1       7.315   6.137  18.348  0.00  0.00    +0.000 A 
ATOM     21  C   UNL     1       6.680   6.726  17.256  0.00  0.00    +0.000 A 
ATOM     22  C   UNL     1       5.290   6.657  17.134  0.00  0.00    +0.000 A 
ENDBRANCH  16  17
BRANCH  16  23
ATOM     23  C   UNL     1       2.440   4.544  18.253  0.00  0.00    +0.000 A 
ATOM     24  C   UNL     1       2.881   3.465  17.468  0.00  0.00    +0.000 A 
ATOM     25  C   UNL     1       2.411   2.168  17.697  0.00  0.00    +0.000 A 
ATOM     26  C   UNL     1       1.499   1.924  18.720  0.00  0.00    +0.000 A 
ATOM     27  C   UNL     1       1.062   2.978  19.517  0.00  0.00    +0.000 A 
ATOM     28  C   UNL     1       1.528   4.272  19.290  0.00  0.00    +0.000 A 
ENDBRANCH  16  23
ENDBRANCH   1  16
TORSDOF 8
ENDMDL
MODEL 4
REMARK VINA RESULT:      -8.1      4.724      8.267
REMARK  Name = 
REMARK  8 active torsions:
REMARK  status: ('A' for Active; 'I' for Inactive)
REMARK    1  A    between atoms: N_1  and  C_2
REMARK    2  A    between atoms: C_2  and  C_3
REMARK    3  A    between atoms: C_2  and  C_14
REMARK    4  A    between atoms: C_3  and  O_4
REMARK    5  A    between atoms: O_4  and  C_5
REMARK    6  A    between atoms: C_5  and  C_6
REMARK    7  A    between atoms: C_14  and  C_15
REMARK    8  A    between atoms: C_14  and  C_21
REMARK                            x       y       z     vdW  Elec       q    Type
REMARK                         _______ _______ _______ _____ _____    ______ ____
ROOT
ATOM      1  C   UNL     1       4.767   5.793  18.852  0.00  0.00    +0.000 C 
ENDROOT
BRANCH   1   2
ATOM      2  N   UNL     1       5.347   4.527  19.370  0.00  0.00    +0.000 NA
ATOM      3  H   UNL     1       6.362   4.572  19.298  0.00  0.00    +0.000 HD
ATOM      4  H   UNL     1       5.081   3.800  18.697  0.00  0.00    +0.000 HD
ENDBRANCH   1   2
BRANCH   1   5
ATOM      5  C   UNL     1       5.552   6.180  17.567  0.00  0.00    +0.000 C 
BRANCH   5   6
ATOM      6  O   UNL     1       6.131   5.018  16.965  0.00  0.00    +0.000 OA
BRANCH   6   7
ATOM      7  C   UNL     1       5.240   4.374  16.060  0.00  0.00    +0.000 C 
BRANCH   7   8
ATOM      8  C   UNL     1       5.890   4.285  14.702  0.00  0.00    +0.000 A 
ATOM      9  C   UNL     1       5.380   3.412  13.731  0.00  0.00    +0.000 A 
ATOM     10  C   UNL     1       5.972   3.319  12.471  0.00  0.00    +0.000 A 
ATOM     11 CL   UNL     1       5.318   2.256  11.285  0.00  0.00    +0.000 Cl
ATOM     12  C   UNL     1       7.077   4.099  12.151  0.00  0.00    +0.000 A 
ATOM     13  C   UNL     1       7.580   4.980  13.103  0.00  0.00    +0.000 A 
ATOM     14 CL   UNL     1       8.920   5.983  12.703  0.00  0.00    +0.000 Cl
ATOM     15  C   UNL     1       6.999   5.073  14.373  0.00  0.00    +0.000 A 
ENDBRANCH   7   8
ENDBRANCH   6   7
ENDBRANCH   5   6
ENDBRANCH   1   5
BRANCH   1  16
ATOM     16  C   UNL     1       3.195   5.803  18.625  0.00  0.00    +0.000 C 
BRANCH  16  17
ATOM     17  C   UNL     1       2.422   4.712  19.366  0.00  0.00    +0.000 A 
ATOM     18  C   UNL     1       2.490   4.595  20.762  0.00  0.00    +0.000 A 
ATOM     19  C   UNL     1       1.860   3.543  21.423  0.00  0.00    +0.000 A 
ATOM     20  C   UNL     1       1.098   2.629  20.705  0.00  0.00    +0.000 A 
ATOM     21  C   UNL     1       0.960   2.769  19.326  0.00  0.00    +0.000 A 
ATOM     22  C   UNL     1       1.626   3.798  18.656  0.00  0.00    +0.000 A 
ENDBRANCH  16  17
BRANCH  16  23
ATOM     23  C   UNL     1       2.514   7.173  18.771  0.00  0.00    +0.000 A 
ATOM     24  C   UNL     1       1.950   7.538  20.006  0.00  0.00    +0.000 A 
ATOM     25  C   UNL     1       1.344   8.787  20.180  0.00  0.00    +0.000 A 
ATOM     26  C   UNL     1       1.299   9.696  19.126  0.00  0.00    +0.000 A 
ATOM     27  C   UNL     1       1.865   9.358  17.901  0.00  0.00    +0.000 A 
ATOM     28  C   UNL     1       2.468   8.114  17.725  0.00  0.00    +0.000 A 
ENDBRANCH  16  23
ENDBRANCH   1  16
TORSDOF 8
ENDMDL
MODEL 5
REMARK VINA RESULT:      -8.1      4.727      8.268
REMARK  Name = 
REMARK  8 active torsions:
REMARK  status: ('A' for Active; 'I' for Inactive)
REMARK    1  A    between atoms: N_1  and  C_2
REMARK    2  A    between atoms: C_2  and  C_3
REMARK    3  A    between atoms: C_2  and  C_14
REMARK    4  A    between atoms: C_3  and  O_4
REMARK    5  A    between atoms: O_4  and  C_5
REMARK    6  A    between atoms: C_5  and  C_6
REMARK    7  A    between atoms: C_14  and  C_15
REMARK    8  A    between atoms: C_14  and  C_21
REMARK                            x       y       z     vdW  Elec       q    Type
REMARK                         _______ _______ _______ _____ _____    ______ ____
ROOT
ATOM      1  C   UNL     1       4.830   5.752  18.901  0.00  0.00    +0.000 C 
ENDROOT
BRANCH   1   2
ATOM      2  N   UNL     1       5.354   4.493  19.491  0.00  0.00    +0.000 NA
ATOM      3  H   UNL     1       5.707   3.897  18.744  0.00  0.00    +0.000 HD
ATOM      4  H   UNL     1       4.534   3.987  19.848  0.00  0.00    +0.000 HD
ENDBRANCH   1   2
BRANCH   1   5
ATOM      5  C   UNL     1       5.705   6.093  17.663  0.00  0.00    +0.000 C 
BRANCH   5   6
ATOM      6  O   UNL     1       6.044   4.901  16.946  0.00  0.00    +0.000 OA
BRANCH   6   7
ATOM      7  C   UNL     1       5.099   4.594  15.927  0.00  0.00    +0.000 C 
BRANCH   7   8
ATOM      8  C   UNL     1       5.823   4.421  14.615  0.00  0.00    +0.000 A 
ATOM      9  C   UNL     1       5.372   3.481  13.678  0.00  0.00    +0.000 A 
ATOM     10  C   UNL     1       6.032   3.311  12.460  0.00  0.00    +0.000 A 
ATOM     11 CL   UNL     1       5.450   2.166  11.314  0.00  0.00    +0.000 Cl
ATOM     12  C   UNL     1       7.149   4.078  12.150  0.00  0.00    +0.000 A 
ATOM     13  C   UNL     1       7.594   5.024  13.067  0.00  0.00    +0.000 A 
ATOM     14 CL   UNL     1       8.949   6.010  12.675  0.00  0.00    +0.000 Cl
ATOM     15  C   UNL     1       6.945   5.195  14.295  0.00  0.00    +0.000 A 
ENDBRANCH   7   8
ENDBRANCH   6   7
ENDBRANCH   5   6
ENDBRANCH   1   5
BRANCH   1  16
ATOM     16  C   UNL     1       3.277   5.777  18.568  0.00  0.00    +0.000 C 
BRANCH  16  17
ATOM     17  C   UNL     1       2.470   4.606  19.130  0.00  0.00    +0.000 A 
ATOM     18  C   UNL     1       1.873   3.662  18.281  0.00  0.00    +0.000 A 
ATOM     19  C   UNL     1       1.061   2.653  18.793  0.00  0.00    +0.000 A 
ATOM     20  C   UNL     1       0.886   2.532  20.167  0.00  0.00    +0.000 A 
ATOM     21  C   UNL     1       1.527   3.418  21.031  0.00  0.00    +0.000 A 
ATOM     22  C   UNL     1       2.307   4.456  20.517  0.00  0.00    +0.000 A 
ENDBRANCH  16  17
BRANCH  16  23
ATOM     23  C   UNL     1       2.569   7.118  18.817  0.00  0.00    +0.000 A 
ATOM     24  C   UNL     1       2.396   8.018  17.751  0.00  0.00    +0.000 A 
ATOM     25  C   UNL     1       1.736   9.237  17.937  0.00  0.00    +0.000 A 
ATOM     26  C   UNL     1       1.228   9.574  19.188  0.00  0.00    +0.000 A 
ATOM     27  C   UNL     1       1.376   8.689  20.252  0.00  0.00    +0.000 A 
ATOM     28  C   UNL     1       2.035   7.475  20.070  0.00  0.00    +0.000 A 
ENDBRANCH  16  23
ENDBRANCH   1  16
TORSDOF 8
ENDMDL
MODEL 6
REMARK VINA RESULT:      -8.1      4.660      8.364
REMARK  Name = 
REMARK  8 active torsions:
REMARK  status: ('A' for Active; 'I' for Inactive)
REMARK    1  A    between atoms: N_1  and  C_2
REMARK    2  A    between atoms: C_2  and  C_3
REMARK    3  A    between atoms: C_2  and  C_14
REMARK    4  A    between atoms: C_3  and  O_4
REMARK    5  A    between atoms: O_4  and  C_5
REMARK    6  A    between atoms: C_5  and  C_6
REMARK    7  A    between atoms: C_14  and  C_15
REMARK    8  A    between atoms: C_14  and  C_21
REMARK                            x       y       z     vdW  Elec       q    Type
REMARK                         _______ _______ _______ _____ _____    ______ ____
ROOT
ATOM      1  C   UNL     1       4.648   5.912  18.781  0.00  0.00    +0.000 C 
ENDROOT
BRANCH   1   2
ATOM      2  N   UNL     1       5.171   4.636  19.333  0.00  0.00    +0.000 NA
ATOM      3  H   UNL     1       5.637   4.823  20.220  0.00  0.00    +0.000 HD
ATOM      4  H   UNL     1       5.933   4.350  18.707  0.00  0.00    +0.000 HD
ENDBRANCH   1   2
BRANCH   1   5
ATOM      5  C   UNL     1       5.515   6.282  17.545  0.00  0.00    +0.000 C 
BRANCH   5   6
ATOM      6  O   UNL     1       6.107   5.109  16.979  0.00  0.00    +0.000 OA
BRANCH   6   7
ATOM      7  C   UNL     1       5.221   4.424  16.101  0.00  0.00    +0.000 C 
BRANCH   7   8
ATOM      8  C   UNL     1       5.854   4.324  14.735  0.00  0.00    +0.000 A 
ATOM      9  C   UNL     1       6.969   5.112  14.415  0.00  0.00    +0.000 A 
ATOM     10  C   UNL     1       7.565   5.030  13.156  0.00  0.00    +0.000 A 
ATOM     11 CL   UNL     1       8.946   5.990  12.789  0.00  0.00    +0.000 Cl
ATOM     12  C   UNL     1       7.067   4.158  12.195  0.00  0.00    +0.000 A 
ATOM     13  C   UNL     1       5.971   3.361  12.509  0.00  0.00    +0.000 A 
ATOM     14 CL   UNL     1       5.374   2.245  11.343  0.00  0.00    +0.000 Cl
ATOM     15  C   UNL     1       5.361   3.443  13.766  0.00  0.00    +0.000 A 
ENDBRANCH   7   8
ENDBRANCH   6   7
ENDBRANCH   5   6
ENDBRANCH   1   5
BRANCH   1  16
ATOM     16  C   UNL     1       3.093   5.952  18.461  0.00  0.00    +0.000 C 
BRANCH  16  17
ATOM     17  C   UNL     1       2.290   4.756  18.973  0.00  0.00    +0.000 A 
ATOM     18  C   UNL     1       1.894   3.724  18.110  0.00  0.00    +0.000 A 
ATOM     19  C   UNL     1       1.083   2.685  18.563  0.00  0.00    +0.000 A 
ATOM     20  C   UNL     1       0.709   2.628  19.901  0.00  0.00    +0.000 A 
ATOM     21  C   UNL     1       1.151   3.606  20.789  0.00  0.00    +0.000 A 
ATOM     22  C   UNL     1       1.929   4.671  20.328  0.00  0.00    +0.000 A 
ENDBRANCH  16  17
BRANCH  16  23
ATOM     23  C   UNL     1       2.386   7.280  18.776  0.00  0.00    +0.000 A 
ATOM     24  C   UNL     1       2.145   8.199  17.740  0.00  0.00    +0.000 A 
ATOM     25  C   UNL     1       1.483   9.406  17.988  0.00  0.00    +0.000 A 
ATOM     26  C   UNL     1       1.043   9.713  19.272  0.00  0.00    +0.000 A 
ATOM     27  C   UNL     1       1.261   8.809  20.308  0.00  0.00    +0.000 A 
ATOM     28  C   UNL     1       1.921   7.606  20.064  0.00  0.00    +0.000 A 
ENDBRANCH  16  23
ENDBRANCH   1  16
TORSDOF 8
ENDMDL
MODEL 7
REMARK VINA RESULT:      -8.0      1.852      2.809
REMARK  Name = 
REMARK  8 active torsions:
REMARK  status: ('A' for Active; 'I' for Inactive)
REMARK    1  A    between atoms: N_1  and  C_2
REMARK    2  A    between atoms: C_2  and  C_3
REMARK    3  A    between atoms: C_2  and  C_14
REMARK    4  A    between atoms: C_3  and  O_4
REMARK    5  A    between atoms: O_4  and  C_5
REMARK    6  A    between atoms: C_5  and  C_6
REMARK    7  A    between atoms: C_14  and  C_15
REMARK    8  A    between atoms: C_14  and  C_21
REMARK                            x       y       z     vdW  Elec       q    Type
REMARK                         _______ _______ _______ _____ _____    ______ ____
ROOT
ATOM      1  C   UNL     1       2.217   7.115  18.730  0.00  0.00    +0.000 C 
ENDROOT
BRANCH   1   2
ATOM      2  N   UNL     1       2.576   7.312  20.158  0.00  0.00    +0.000 NA
ATOM      3  H   UNL     1       1.829   6.939  20.742  0.00  0.00    +0.000 HD
ATOM      4  H   UNL     1       2.539   8.325  20.320  0.00  0.00    +0.000 HD
ENDBRANCH   1   2
BRANCH   1   5
ATOM      5  C   UNL     1       2.386   8.482  18.008  0.00  0.00    +0.000 C 
BRANCH   5   6
ATOM      6  O   UNL     1       1.177   9.244  18.087  0.00  0.00    +0.000 OA
BRANCH   6   7
ATOM      7  C   UNL     1       1.403  10.576  18.535  0.00  0.00    +0.000 C 
BRANCH   7   8
ATOM      8  C   UNL     1       0.528  10.853  19.732  0.00  0.00    +0.000 A 
ATOM      9  C   UNL     1      -0.476  11.829  19.662  0.00  0.00    +0.000 A 
ATOM     10  C   UNL     1      -1.293  12.095  20.762  0.00  0.00    +0.000 A 
ATOM     11 CL   UNL     1      -2.533  13.283  20.649  0.00  0.00    +0.000 Cl
ATOM     12  C   UNL     1      -1.130  11.390  21.949  0.00  0.00    +0.000 A 
ATOM     13  C   UNL     1      -0.147  10.410  22.022  0.00  0.00    +0.000 A 
ATOM     14 CL   UNL     1       0.034   9.500  23.471  0.00  0.00    +0.000 Cl
ATOM     15  C   UNL     1       0.684  10.142  20.928  0.00  0.00    +0.000 A 
ENDBRANCH   7   8
ENDBRANCH   6   7
ENDBRANCH   5   6
ENDBRANCH   1   5
BRANCH   1  16
ATOM     16  C   UNL     1       2.966   5.937  17.973  0.00  0.00    +0.000 C 
BRANCH  16  17
ATOM     17  C   UNL     1       4.492   5.967  18.068  0.00  0.00    +0.000 A 
ATOM     18  C   UNL     1       5.166   5.339  19.126  0.00  0.00    +0.000 A 
ATOM     19  C   UNL     1       6.548   5.450  19.258  0.00  0.00    +0.000 A 
ATOM     20  C   UNL     1       7.285   6.136  18.299  0.00  0.00    +0.000 A 
ATOM     21  C   UNL     1       6.641   6.706  17.203  0.00  0.00    +0.000 A 
ATOM     22  C   UNL     1       5.250   6.632  17.091  0.00  0.00    +0.000 A 
ENDBRANCH  16  17
BRANCH  16  23
ATOM     23  C   UNL     1       2.414   4.526  18.236  0.00  0.00    +0.000 A 
ATOM     24  C   UNL     1       2.872   3.448  17.459  0.00  0.00    +0.000 A 
ATOM     25  C   UNL     1       2.409   2.148  17.687  0.00  0.00    +0.000 A 
ATOM     26  C   UNL     1       1.486   1.901  18.700  0.00  0.00    +0.000 A 
ATOM     27  C   UNL     1       1.032   2.954  19.488  0.00  0.00    +0.000 A 
ATOM     28  C   UNL     1       1.492   4.250  19.263  0.00  0.00    +0.000 A 
ENDBRANCH  16  23
ENDBRANCH   1  16
TORSDOF 8
ENDMDL
MODEL 8
REMARK VINA RESULT:      -8.0      1.738      2.646
REMARK  Name = 
REMARK  8 active torsions:
REMARK  status: ('A' for Active; 'I' for Inactive)
REMARK    1  A    between atoms: N_1  and  C_2
REMARK    2  A    between atoms: C_2  and  C_3
REMARK    3  A    between atoms: C_2  and  C_14
REMARK    4  A    between atoms: C_3  and  O_4
REMARK    5  A    between atoms: O_4  and  C_5
REMARK    6  A    between atoms: C_5  and  C_6
REMARK    7  A    between atoms: C_14  and  C_15
REMARK    8  A    between atoms: C_14  and  C_21
REMARK                            x       y       z     vdW  Elec       q    Type
REMARK                         _______ _______ _______ _____ _____    ______ ____
ROOT
ATOM      1  C   UNL     1       2.264   7.057  18.565  0.00  0.00    +0.000 C 
ENDROOT
BRANCH   1   2
ATOM      2  N   UNL     1       2.602   7.342  19.984  0.00  0.00    +0.000 NA
ATOM      3  H   UNL     1       3.049   8.255  20.042  0.00  0.00    +0.000 HD
ATOM      4  H   UNL     1       3.347   6.682  20.233  0.00  0.00    +0.000 HD
ENDBRANCH   1   2
BRANCH   1   5
ATOM      5  C   UNL     1       2.385   8.390  17.775  0.00  0.00    +0.000 C 
BRANCH   5   6
ATOM      6  O   UNL     1       1.933   9.488  18.574  0.00  0.00    +0.000 OA
BRANCH   6   7
ATOM      7  C   UNL     1       0.567   9.808  18.332  0.00  0.00    +0.000 C 
BRANCH   7   8
ATOM      8  C   UNL     1      -0.041  10.371  19.593  0.00  0.00    +0.000 A 
ATOM      9  C   UNL     1       0.199   9.754  20.829  0.00  0.00    +0.000 A 
ATOM     10  C   UNL     1      -0.357  10.264  22.003  0.00  0.00    +0.000 A 
ATOM     11 CL   UNL     1      -0.034   9.505  23.514  0.00  0.00    +0.000 Cl
ATOM     12  C   UNL     1      -1.157  11.401  21.970  0.00  0.00    +0.000 A 
ATOM     13  C   UNL     1      -1.387  12.028  20.750  0.00  0.00    +0.000 A 
ATOM     14 CL   UNL     1      -2.338  13.462  20.702  0.00  0.00    +0.000 Cl
ATOM     15  C   UNL     1      -0.842  11.519  19.566  0.00  0.00    +0.000 A 
ENDBRANCH   7   8
ENDBRANCH   6   7
ENDBRANCH   5   6
ENDBRANCH   1   5
BRANCH   1  16
ATOM     16  C   UNL     1       3.068   5.872  17.877  0.00  0.00    +0.000 C 
BRANCH  16  17
ATOM     17  C   UNL     1       4.588   5.943  18.026  0.00  0.00    +0.000 A 
ATOM     18  C   UNL     1       5.241   5.338  19.110  0.00  0.00    +0.000 A 
ATOM     19  C   UNL     1       6.614   5.485  19.290  0.00  0.00    +0.000 A 
ATOM     20  C   UNL     1       7.366   6.186  18.354  0.00  0.00    +0.000 A 
ATOM     21  C   UNL     1       6.747   6.734  17.233  0.00  0.00    +0.000 A 
ATOM     22  C   UNL     1       5.363   6.624  17.073  0.00  0.00    +0.000 A 
ENDBRANCH  16  17
BRANCH  16  23
ATOM     23  C   UNL     1       2.540   4.458  18.168  0.00  0.00    +0.000 A 
ATOM     24  C   UNL     1       1.546   4.277  19.145  0.00  0.00    +0.000 A 
ATOM     25  C   UNL     1       1.026   3.008  19.417  0.00  0.00    +0.000 A 
ATOM     26  C   UNL     1       1.483   1.898  18.712  0.00  0.00    +0.000 A 
ATOM     27  C   UNL     1       2.457   2.060  17.731  0.00  0.00    +0.000 A 
ATOM     28  C   UNL     1       2.978   3.324  17.459  0.00  0.00    +0.000 A 
ENDBRANCH  16  23
ENDBRANCH   1  16
TORSDOF 8
ENDMDL
MODEL 9
REMARK VINA RESULT:      -8.0      1.880      2.833
REMARK  Name = 
REMARK  8 active torsions:
REMARK  status: ('A' for Active; 'I' for Inactive)
REMARK    1  A    between atoms: N_1  and  C_2
REMARK    2  A    between atoms: C_2  and  C_3
REMARK    3  A    between atoms: C_2  and  C_14
REMARK    4  A    between atoms: C_3  and  O_4
REMARK    5  A    between atoms: O_4  and  C_5
REMARK    6  A    between atoms: C_5  and  C_6
REMARK    7  A    between atoms: C_14  and  C_15
REMARK    8  A    between atoms: C_14  and  C_21
REMARK                            x       y       z     vdW  Elec       q    Type
REMARK                         _______ _______ _______ _____ _____    ______ ____
ROOT
ATOM      1  C   UNL     1       2.223   7.138  18.688  0.00  0.00    +0.000 C 
ENDROOT
BRANCH   1   2
ATOM      2  N   UNL     1       2.566   7.354  20.117  0.00  0.00    +0.000 NA
ATOM      3  H   UNL     1       2.482   8.346  20.333  0.00  0.00    +0.000 HD
ATOM      4  H   UNL     1       3.572   7.165  20.196  0.00  0.00    +0.000 HD
ENDBRANCH   1   2
BRANCH   1   5
ATOM      5  C   UNL     1       2.402   8.494  17.950  0.00  0.00    +0.000 C 
BRANCH   5   6
ATOM      6  O   UNL     1       1.211   9.281  18.052  0.00  0.00    +0.000 OA
BRANCH   6   7
ATOM      7  C   UNL     1       1.468  10.595  18.536  0.00  0.00    +0.000 C 
BRANCH   7   8
ATOM      8  C   UNL     1       0.554  10.882  19.701  0.00  0.00    +0.000 A 
ATOM      9  C   UNL     1       0.672  10.147  20.889  0.00  0.00    +0.000 A 
ATOM     10  C   UNL     1      -0.167  10.402  21.974  0.00  0.00    +0.000 A 
ATOM     11 CL   UNL     1       0.007   9.502  23.432  0.00  0.00    +0.000 Cl
ATOM     12  C   UNL     1      -1.134  11.397  21.900  0.00  0.00    +0.000 A 
ATOM     13  C   UNL     1      -1.248  12.142  20.731  0.00  0.00    +0.000 A 
ATOM     14 CL   UNL     1      -2.411  13.407  20.644  0.00  0.00    +0.000 Cl
ATOM     15  C   UNL     1      -0.418  11.887  19.634  0.00  0.00    +0.000 A 
ENDBRANCH   7   8
ENDBRANCH   6   7
ENDBRANCH   5   6
ENDBRANCH   1   5
BRANCH   1  16
ATOM     16  C   UNL     1       2.980   5.948  17.957  0.00  0.00    +0.000 C 
BRANCH  16  17
ATOM     17  C   UNL     1       4.504   5.978  18.068  0.00  0.00    +0.000 A 
ATOM     18  C   UNL     1       5.168   5.338  19.125  0.00  0.00    +0.000 A 
ATOM     19  C   UNL     1       6.549   5.449  19.274  0.00  0.00    +0.000 A 
ATOM     20  C   UNL     1       7.295   6.147  18.331  0.00  0.00    +0.000 A 
ATOM     21  C   UNL     1       6.662   6.730  17.236  0.00  0.00    +0.000 A 
ATOM     22  C   UNL     1       5.273   6.657  17.108  0.00  0.00    +0.000 A 
ENDBRANCH  16  17
BRANCH  16  23
ATOM     23  C   UNL     1       2.424   4.542  18.232  0.00  0.00    +0.000 A 
ATOM     24  C   UNL     1       2.856   3.460  17.446  0.00  0.00    +0.000 A 
ATOM     25  C   UNL     1       2.389   2.163  17.685  0.00  0.00    +0.000 A 
ATOM     26  C   UNL     1       1.487   1.924  18.719  0.00  0.00    +0.000 A 
ATOM     27  C   UNL     1       1.059   2.980  19.517  0.00  0.00    +0.000 A 
ATOM     28  C   UNL     1       1.522   4.273  19.280  0.00  0.00    +0.000 A 
ENDBRANCH  16  23
ENDBRANCH   1  16
TORSDOF 8
ENDMDL
