MODEL 1
REMARK VINA RESULT:      -7.3      0.000      0.000
REMARK  Name = 
REMARK  9 active torsions:
REMARK  status: ('A' for Active; 'I' for Inactive)
REMARK    1  A    between atoms: C_1  and  C_2
REMARK    2  A    between atoms: C_2  and  O_3
REMARK    3  A    between atoms: O_3  and  C_4
REMARK    4  A    between atoms: C_10  and  C_11
REMARK    5  A    between atoms: C_11  and  C_12
REMARK    6  A    between atoms: C_12  and  N_13
REMARK    7  A    between atoms: C_20  and  C_21
REMARK    8  A    between atoms: C_20  and  O_22
REMARK    9  A    between atoms: O_22  and  C_23
REMARK                            x       y       z     vdW  Elec       q    Type
REMARK                         _______ _______ _______ _____ _____    ______ ____
ROOT
ATOM      1  N   UNL     1       2.012   7.958  18.825  0.00  0.00    +0.000 N 
ATOM      2  C   UNL     1       3.069   7.210  18.362  0.00  0.00    +0.000 C 
ATOM      3  O   UNL     1       3.693   7.529  17.350  0.00  0.00    +0.000 OA
ATOM      4  N   UNL     1       3.368   6.079  19.113  0.00  0.00    +0.000 N 
ATOM      5  C   UNL     1       4.529   5.271  18.714  0.00  0.00    +0.000 C 
ATOM      6  C   UNL     1       4.253   3.780  18.480  0.00  0.00    +0.000 C 
ATOM      7  C   UNL     1       3.943   3.022  19.776  0.00  0.00    +0.000 C 
ATOM      8  C   UNL     1       2.448   3.032  20.189  0.00  0.00    +0.000 C 
ATOM      9  C   UNL     1       2.373   2.724  21.696  0.00  0.00    +0.000 C 
ATOM     10  C   UNL     1       1.750   4.370  19.875  0.00  0.00    +0.000 C 
ATOM     11  C   UNL     1       2.578   5.594  20.252  0.00  0.00    +0.000 C 
ATOM     12  H   UNL     1       2.008   8.061  19.825  0.00  0.00    +0.000 HD
ENDROOT
BRANCH   8  13
ATOM     13  O   UNL     1       1.846   1.958  19.436  0.00  0.00    +0.000 OA
ATOM     14  C   UNL     1       0.701   2.271  18.656  0.00  0.00    +0.000 C 
ENDBRANCH   8  13
BRANCH   1  15
ATOM     15  C   UNL     1       1.580   9.166  18.126  0.00  0.00    +0.000 C 
BRANCH  15  16
ATOM     16  C   UNL     1       1.017  10.249  19.052  0.00  0.00    +0.000 C 
BRANCH  16  23
ATOM     17  C   UNL     1      -1.181  11.513  19.478  0.00  0.00    +0.000 A 
ATOM     18  C   UNL     1      -2.506  11.777  19.095  0.00  0.00    +0.000 A 
ATOM     19  C   UNL     1      -3.048  11.214  17.944  0.00  0.00    +0.000 A 
ATOM     20  C   UNL     1      -2.274  10.377  17.155  0.00  0.00    +0.000 A 
ATOM     21 CL   UNL     1      -2.941   9.696  15.722  0.00  0.00    +0.000 Cl
ATOM     22  C   UNL     1      -0.961  10.085  17.524  0.00  0.00    +0.000 A 
ATOM     23  C   UNL     1      -0.405  10.636  18.696  0.00  0.00    +0.000 A 
BRANCH  17  24
ATOM     24  O   UNL     1      -0.588  12.063  20.593  0.00  0.00    +0.000 OA
BRANCH  24  26
ATOM     25  C   UNL     1      -0.588  10.660  22.564  0.00  0.00    +0.000 C 
ATOM     26  C   UNL     1      -1.254  11.810  21.835  0.00  0.00    +0.000 C 
ENDBRANCH  24  26
ENDBRANCH  17  24
ENDBRANCH  16  23
ENDBRANCH  15  16
ENDBRANCH   1  15
TORSDOF 6
ENDMDL
MODEL 2
REMARK VINA RESULT:      -7.2      2.277      2.724
REMARK  Name = 
REMARK  9 active torsions:
REMARK  status: ('A' for Active; 'I' for Inactive)
REMARK    1  A    between atoms: C_1  and  C_2
REMARK    2  A    between atoms: C_2  and  O_3
REMARK    3  A    between atoms: O_3  and  C_4
REMARK    4  A    between atoms: C_10  and  C_11
REMARK    5  A    between atoms: C_11  and  C_12
REMARK    6  A    between atoms: C_12  and  N_13
REMARK    7  A    between atoms: C_20  and  C_21
REMARK    8  A    between atoms: C_20  and  O_22
REMARK    9  A    between atoms: O_22  and  C_23
REMARK                            x       y       z     vdW  Elec       q    Type
REMARK                         _______ _______ _______ _____ _____    ______ ____
ROOT
ATOM      1  N   UNL     1       2.296   7.816  18.529  0.00  0.00    +0.000 N 
ATOM      2  C   UNL     1       3.339   6.974  18.217  0.00  0.00    +0.000 C 
ATOM      3  O   UNL     1       4.062   7.176  17.241  0.00  0.00    +0.000 OA
ATOM      4  N   UNL     1       3.504   5.892  19.074  0.00  0.00    +0.000 N 
ATOM      5  C   UNL     1       4.641   4.991  18.838  0.00  0.00    +0.000 C 
ATOM      6  C   UNL     1       4.291   3.504  18.694  0.00  0.00    +0.000 C 
ATOM      7  C   UNL     1       3.829   2.872  20.011  0.00  0.00    +0.000 C 
ATOM      8  C   UNL     1       2.310   2.999  20.293  0.00  0.00    +0.000 C 
ATOM      9  C   UNL     1       2.094   2.817  21.807  0.00  0.00    +0.000 C 
ATOM     10  C   UNL     1       1.725   4.345  19.820  0.00  0.00    +0.000 C 
ATOM     11  C   UNL     1       2.595   5.545  20.174  0.00  0.00    +0.000 C 
ATOM     12  H   UNL     1       2.217   7.999  19.515  0.00  0.00    +0.000 HD
ENDROOT
BRANCH   8  13
ATOM     13  O   UNL     1       1.705   1.904  19.574  0.00  0.00    +0.000 OA
ATOM     14  C   UNL     1       0.651   2.217  18.674  0.00  0.00    +0.000 C 
ENDBRANCH   8  13
BRANCH   1  15
ATOM     15  C   UNL     1       2.000   8.986  17.707  0.00  0.00    +0.000 C 
BRANCH  15  16
ATOM     16  C   UNL     1       0.757   9.760  18.158  0.00  0.00    +0.000 C 
BRANCH  16  23
ATOM     17  C   UNL     1       0.621  11.168  20.305  0.00  0.00    +0.000 A 
ATOM     18  C   UNL     1       0.954  12.349  20.987  0.00  0.00    +0.000 A 
ATOM     19  C   UNL     1       1.772  13.311  20.403  0.00  0.00    +0.000 A 
ATOM     20  C   UNL     1       2.271  13.108  19.126  0.00  0.00    +0.000 A 
ATOM     21 CL   UNL     1       3.297  14.291  18.412  0.00  0.00    +0.000 Cl
ATOM     22  C   UNL     1       1.941  11.952  18.421  0.00  0.00    +0.000 A 
ATOM     23  C   UNL     1       1.100  10.976  18.994  0.00  0.00    +0.000 A 
BRANCH  17  24
ATOM     24  O   UNL     1      -0.163  10.173  20.846  0.00  0.00    +0.000 OA
BRANCH  24  26
ATOM     25  C   UNL     1      -0.130   9.556  23.185  0.00  0.00    +0.000 C 
ATOM     26  C   UNL     1       0.480   9.337  21.814  0.00  0.00    +0.000 C 
ENDBRANCH  24  26
ENDBRANCH  17  24
ENDBRANCH  16  23
ENDBRANCH  15  16
ENDBRANCH   1  15
TORSDOF 6
ENDMDL
MODEL 3
REMARK VINA RESULT:      -7.2      1.828      2.819
REMARK  Name = 
REMARK  9 active torsions:
REMARK  status: ('A' for Active; 'I' for Inactive)
REMARK    1  A    between atoms: C_1  and  C_2
REMARK    2  A    between atoms: C_2  and  O_3
REMARK    3  A    between atoms: O_3  and  C_4
REMARK    4  A    between atoms: C_10  and  C_11
REMARK    5  A    between atoms: C_11  and  C_12
REMARK    6  A    between atoms: C_12  and  N_13
REMARK    7  A    between atoms: C_20  and  C_21
REMARK    8  A    between atoms: C_20  and  O_22
REMARK    9  A    between atoms: O_22  and  C_23
REMARK                            x       y       z     vdW  Elec       q    Type
REMARK                         _______ _______ _______ _____ _____    ______ ____
ROOT
ATOM      1  N   UNL     1       2.247   7.965  18.796  0.00  0.00    +0.000 N 
ATOM      2  C   UNL     1       3.237   7.146  18.305  0.00  0.00    +0.000 C 
ATOM      3  O   UNL     1       3.845   7.415  17.269  0.00  0.00    +0.000 OA
ATOM      4  N   UNL     1       3.487   6.003  19.057  0.00  0.00    +0.000 N 
ATOM      5  C   UNL     1       4.579   5.118  18.626  0.00  0.00    +0.000 C 
ATOM      6  C   UNL     1       4.198   3.647  18.417  0.00  0.00    +0.000 C 
ATOM      7  C   UNL     1       3.884   2.921  19.731  0.00  0.00    +0.000 C 
ATOM      8  C   UNL     1       2.409   3.033  20.195  0.00  0.00    +0.000 C 
ATOM      9  C   UNL     1       2.367   2.741  21.707  0.00  0.00    +0.000 C 
ATOM     10  C   UNL     1       1.789   4.411  19.892  0.00  0.00    +0.000 C 
ATOM     11  C   UNL     1       2.708   5.580  20.227  0.00  0.00    +0.000 C 
ATOM     12  H   UNL     1       2.285   8.076  19.794  0.00  0.00    +0.000 HD
ENDROOT
BRANCH   8  13
ATOM     13  O   UNL     1       1.712   1.995  19.475  0.00  0.00    +0.000 OA
ATOM     14  C   UNL     1       0.616   2.388  18.661  0.00  0.00    +0.000 C 
ENDBRANCH   8  13
BRANCH   1  15
ATOM     15  C   UNL     1       1.872   9.193  18.100  0.00  0.00    +0.000 C 
BRANCH  15  16
ATOM     16  C   UNL     1       0.358   9.404  17.990  0.00  0.00    +0.000 C 
BRANCH  16  23
ATOM     17  C   UNL     1      -1.038  11.275  19.068  0.00  0.00    +0.000 A 
ATOM     18  C   UNL     1      -1.485  11.917  20.234  0.00  0.00    +0.000 A 
ATOM     19  C   UNL     1      -1.156  11.430  21.495  0.00  0.00    +0.000 A 
ATOM     20  C   UNL     1      -0.374  10.291  21.612  0.00  0.00    +0.000 A 
ATOM     21 CL   UNL     1       0.017   9.679  23.173  0.00  0.00    +0.000 Cl
ATOM     22  C   UNL     1       0.097   9.645  20.470  0.00  0.00    +0.000 A 
ATOM     23  C   UNL     1      -0.215  10.137  19.186  0.00  0.00    +0.000 A 
BRANCH  17  24
ATOM     24  O   UNL     1      -1.354  11.700  17.797  0.00  0.00    +0.000 OA
BRANCH  24  26
ATOM     25  C   UNL     1      -2.730  10.955  15.952  0.00  0.00    +0.000 C 
ATOM     26  C   UNL     1      -2.703  11.456  17.383  0.00  0.00    +0.000 C 
ENDBRANCH  24  26
ENDBRANCH  17  24
ENDBRANCH  16  23
ENDBRANCH  15  16
ENDBRANCH   1  15
TORSDOF 6
ENDMDL
MODEL 4
REMARK VINA RESULT:      -7.1      1.951      2.861
REMARK  Name = 
REMARK  9 active torsions:
REMARK  status: ('A' for Active; 'I' for Inactive)
REMARK    1  A    between atoms: C_1  and  C_2
REMARK    2  A    between atoms: C_2  and  O_3
REMARK    3  A    between atoms: O_3  and  C_4
REMARK    4  A    between atoms: C_10  and  C_11
REMARK    5  A    between atoms: C_11  and  C_12
REMARK    6  A    between atoms: C_12  and  N_13
REMARK    7  A    between atoms: C_20  and  C_21
REMARK    8  A    between atoms: C_20  and  O_22
REMARK    9  A    between atoms: O_22  and  C_23
REMARK                            x       y       z     vdW  Elec       q    Type
REMARK                         _______ _______ _______ _____ _____    ______ ____
ROOT
ATOM      1  N   UNL     1       2.316   7.831  18.724  0.00  0.00    +0.000 N 
ATOM      2  C   UNL     1       3.332   6.985  18.343  0.00  0.00    +0.000 C 
ATOM      3  O   UNL     1       4.020   7.210  17.347  0.00  0.00    +0.000 OA
ATOM      4  N   UNL     1       3.512   5.872  19.154  0.00  0.00    +0.000 N 
ATOM      5  C   UNL     1       4.624   4.963  18.843  0.00  0.00    +0.000 C 
ATOM      6  C   UNL     1       4.245   3.487  18.662  0.00  0.00    +0.000 C 
ATOM      7  C   UNL     1       3.825   2.815  19.974  0.00  0.00    +0.000 C 
ATOM      8  C   UNL     1       2.319   2.955  20.318  0.00  0.00    +0.000 C 
ATOM      9  C   UNL     1       2.158   2.723  21.833  0.00  0.00    +0.000 C 
ATOM     10  C   UNL     1       1.738   4.325  19.916  0.00  0.00    +0.000 C 
ATOM     11  C   UNL     1       2.641   5.500  20.276  0.00  0.00    +0.000 C 
ATOM     12  H   UNL     1       2.278   7.980  19.717  0.00  0.00    +0.000 HD
ENDROOT
BRANCH   8  13
ATOM     13  O   UNL     1       1.669   1.895  19.586  0.00  0.00    +0.000 OA
ATOM     14  C   UNL     1       0.716   2.271  18.603  0.00  0.00    +0.000 C 
ENDBRANCH   8  13
BRANCH   1  15
ATOM     15  C   UNL     1       2.008   9.033  17.955  0.00  0.00    +0.000 C 
BRANCH  15  16
ATOM     16  C   UNL     1       0.521   9.189  17.620  0.00  0.00    +0.000 C 
BRANCH  16  23
ATOM     17  C   UNL     1      -1.520  10.579  18.338  0.00  0.00    +0.000 A 
ATOM     18  C   UNL     1      -2.036  11.657  19.073  0.00  0.00    +0.000 A 
ATOM     19  C   UNL     1      -1.218  12.426  19.894  0.00  0.00    +0.000 A 
ATOM     20  C   UNL     1       0.133  12.130  19.994  0.00  0.00    +0.000 A 
ATOM     21 CL   UNL     1       1.140  13.072  21.024  0.00  0.00    +0.000 Cl
ATOM     22  C   UNL     1       0.674  11.076  19.260  0.00  0.00    +0.000 A 
ATOM     23  C   UNL     1      -0.141  10.298  18.412  0.00  0.00    +0.000 A 
BRANCH  17  24
ATOM     24  O   UNL     1      -2.289   9.770  17.531  0.00  0.00    +0.000 OA
BRANCH  24  26
ATOM     25  C   UNL     1      -2.868  10.261  15.234  0.00  0.00    +0.000 C 
ATOM     26  C   UNL     1      -3.230  10.451  16.694  0.00  0.00    +0.000 C 
ENDBRANCH  24  26
ENDBRANCH  17  24
ENDBRANCH  16  23
ENDBRANCH  15  16
ENDBRANCH   1  15
TORSDOF 6
ENDMDL
MODEL 5
REMARK VINA RESULT:      -7.1      6.384      7.952
REMARK  Name = 
REMARK  9 active torsions:
REMARK  status: ('A' for Active; 'I' for Inactive)
REMARK    1  A    between atoms: C_1  and  C_2
REMARK    2  A    between atoms: C_2  and  O_3
REMARK    3  A    between atoms: O_3  and  C_4
REMARK    4  A    between atoms: C_10  and  C_11
REMARK    5  A    between atoms: C_11  and  C_12
REMARK    6  A    between atoms: C_12  and  N_13
REMARK    7  A    between atoms: C_20  and  C_21
REMARK    8  A    between atoms: C_20  and  O_22
REMARK    9  A    between atoms: O_22  and  C_23
REMARK                            x       y       z     vdW  Elec       q    Type
REMARK                         _______ _______ _______ _____ _____    ______ ____
ROOT
ATOM      1  N   UNL     1       7.487   7.732  18.221  0.00  0.00    +0.000 N 
ATOM      2  C   UNL     1       7.396   6.782  17.231  0.00  0.00    +0.000 C 
ATOM      3  O   UNL     1       7.928   6.941  16.132  0.00  0.00    +0.000 OA
ATOM      4  N   UNL     1       6.660   5.650  17.561  0.00  0.00    +0.000 N 
ATOM      5  C   UNL     1       6.580   4.566  16.573  0.00  0.00    +0.000 C 
ATOM      6  C   UNL     1       5.162   4.114  16.196  0.00  0.00    +0.000 C 
ATOM      7  C   UNL     1       4.451   3.374  17.335  0.00  0.00    +0.000 C 
ATOM      8  C   UNL     1       3.684   4.291  18.322  0.00  0.00    +0.000 C 
ATOM      9  C   UNL     1       3.492   3.512  19.637  0.00  0.00    +0.000 C 
ATOM     10  C   UNL     1       4.409   5.626  18.585  0.00  0.00    +0.000 C 
ATOM     11  C   UNL     1       5.909   5.472  18.810  0.00  0.00    +0.000 C 
ATOM     12  H   UNL     1       7.643   7.339  19.133  0.00  0.00    +0.000 HD
ENDROOT
BRANCH   8  13
ATOM     13  O   UNL     1       2.405   4.524  17.697  0.00  0.00    +0.000 OA
ATOM     14  C   UNL     1       1.280   3.850  18.243  0.00  0.00    +0.000 C 
ENDBRANCH   8  13
BRANCH   1  15
ATOM     15  C   UNL     1       8.219   8.978  18.006  0.00  0.00    +0.000 C 
BRANCH  15  16
ATOM     16  C   UNL     1       9.143   9.361  19.166  0.00  0.00    +0.000 C 
BRANCH  16  23
ATOM     17  C   UNL     1       9.389  11.694  20.218  0.00  0.00    +0.000 A 
ATOM     18  C   UNL     1       9.754  13.042  20.073  0.00  0.00    +0.000 A 
ATOM     19  C   UNL     1      10.302  13.515  18.885  0.00  0.00    +0.000 A 
ATOM     20  C   UNL     1      10.495  12.648  17.821  0.00  0.00    +0.000 A 
ATOM     21 CL   UNL     1      11.190  13.231  16.358  0.00  0.00    +0.000 Cl
ATOM     22  C   UNL     1      10.124  11.309  17.934  0.00  0.00    +0.000 A 
ATOM     23  C   UNL     1       9.553  10.820  19.126  0.00  0.00    +0.000 A 
BRANCH  17  24
ATOM     24  O   UNL     1       8.866  11.169  21.379  0.00  0.00    +0.000 OA
BRANCH  24  26
ATOM     25  C   UNL     1       8.269  11.679  23.667  0.00  0.00    +0.000 C 
ATOM     26  C   UNL     1       8.162  12.095  22.213  0.00  0.00    +0.000 C 
ENDBRANCH  24  26
ENDBRANCH  17  24
ENDBRANCH  16  23
ENDBRANCH  15  16
ENDBRANCH   1  15
TORSDOF 6
ENDMDL
MODEL 6
REMARK VINA RESULT:      -7.1      2.067      2.827
REMARK  Name = 
REMARK  9 active torsions:
REMARK  status: ('A' for Active; 'I' for Inactive)
REMARK    1  A    between atoms: C_1  and  C_2
REMARK    2  A    between atoms: C_2  and  O_3
REMARK    3  A    between atoms: O_3  and  C_4
REMARK    4  A    between atoms: C_10  and  C_11
REMARK    5  A    between atoms: C_11  and  C_12
REMARK    6  A    between atoms: C_12  and  N_13
REMARK    7  A    between atoms: C_20  and  C_21
REMARK    8  A    between atoms: C_20  and  O_22
REMARK    9  A    between atoms: O_22  and  C_23
REMARK                            x       y       z     vdW  Elec       q    Type
REMARK                         _______ _______ _______ _____ _____    ______ ____
ROOT
ATOM      1  N   UNL     1       2.237   7.948  18.662  0.00  0.00    +0.000 N 
ATOM      2  C   UNL     1       3.255   7.127  18.236  0.00  0.00    +0.000 C 
ATOM      3  O   UNL     1       3.902   7.373  17.218  0.00  0.00    +0.000 OA
ATOM      4  N   UNL     1       3.487   6.010  19.031  0.00  0.00    +0.000 N 
ATOM      5  C   UNL     1       4.605   5.126  18.671  0.00  0.00    +0.000 C 
ATOM      6  C   UNL     1       4.249   3.644  18.491  0.00  0.00    +0.000 C 
ATOM      7  C   UNL     1       3.890   2.954  19.811  0.00  0.00    +0.000 C 
ATOM      8  C   UNL     1       2.396   3.061  20.212  0.00  0.00    +0.000 C 
ATOM      9  C   UNL     1       2.295   2.813  21.729  0.00  0.00    +0.000 C 
ATOM     10  C   UNL     1       1.773   4.422  19.843  0.00  0.00    +0.000 C 
ATOM     11  C   UNL     1       2.665   5.612  20.181  0.00  0.00    +0.000 C 
ATOM     12  H   UNL     1       2.233   8.089  19.658  0.00  0.00    +0.000 HD
ENDROOT
BRANCH   8  13
ATOM     13  O   UNL     1       1.740   1.994  19.495  0.00  0.00    +0.000 OA
ATOM     14  C   UNL     1       0.674   2.350  18.627  0.00  0.00    +0.000 C 
ENDBRANCH   8  13
BRANCH   1  15
ATOM     15  C   UNL     1       1.877   9.151  17.916  0.00  0.00    +0.000 C 
BRANCH  15  16
ATOM     16  C   UNL     1       0.418   9.579  18.099  0.00  0.00    +0.000 C 
BRANCH  16  23
ATOM     17  C   UNL     1       0.234  11.751  19.463  0.00  0.00    +0.000 A 
ATOM     18  C   UNL     1       0.062  12.373  20.709  0.00  0.00    +0.000 A 
ATOM     19  C   UNL     1      -0.179  11.626  21.858  0.00  0.00    +0.000 A 
ATOM     20  C   UNL     1      -0.252  10.244  21.780  0.00  0.00    +0.000 A 
ATOM     21 CL   UNL     1      -0.567   9.323  23.200  0.00  0.00    +0.000 Cl
ATOM     22  C   UNL     1      -0.067   9.602  20.557  0.00  0.00    +0.000 A 
ATOM     23  C   UNL     1       0.194  10.345  19.388  0.00  0.00    +0.000 A 
BRANCH  17  24
ATOM     24  O   UNL     1       0.450  12.443  18.291  0.00  0.00    +0.000 OA
BRANCH  24  26
ATOM     25  C   UNL     1       2.745  13.207  18.275  0.00  0.00    +0.000 C 
ATOM     26  C   UNL     1       1.286  13.600  18.403  0.00  0.00    +0.000 C 
ENDBRANCH  24  26
ENDBRANCH  17  24
ENDBRANCH  16  23
ENDBRANCH  15  16
ENDBRANCH   1  15
TORSDOF 6
ENDMDL
MODEL 7
REMARK VINA RESULT:      -7.1      2.892      8.511
REMARK  Name = 
REMARK  9 active torsions:
REMARK  status: ('A' for Active; 'I' for Inactive)
REMARK    1  A    between atoms: C_1  and  C_2
REMARK    2  A    between atoms: C_2  and  O_3
REMARK    3  A    between atoms: O_3  and  C_4
REMARK    4  A    between atoms: C_10  and  C_11
REMARK    5  A    between atoms: C_11  and  C_12
REMARK    6  A    between atoms: C_12  and  N_13
REMARK    7  A    between atoms: C_20  and  C_21
REMARK    8  A    between atoms: C_20  and  O_22
REMARK    9  A    between atoms: O_22  and  C_23
REMARK                            x       y       z     vdW  Elec       q    Type
REMARK                         _______ _______ _______ _____ _____    ______ ____
ROOT
ATOM      1  N   UNL     1       1.985   8.034  19.499  0.00  0.00    +0.000 N 
ATOM      2  C   UNL     1       1.382   8.583  20.606  0.00  0.00    +0.000 C 
ATOM      3  O   UNL     1       1.227   7.939  21.644  0.00  0.00    +0.000 OA
ATOM      4  N   UNL     1       0.961   9.900  20.460  0.00  0.00    +0.000 N 
ATOM      5  C   UNL     1       0.369  10.570  21.626  0.00  0.00    +0.000 C 
ATOM      6  C   UNL     1      -1.019  11.187  21.405  0.00  0.00    +0.000 C 
ATOM      7  C   UNL     1      -0.984  12.415  20.489  0.00  0.00    +0.000 C 
ATOM      8  C   UNL     1      -1.102  12.097  18.976  0.00  0.00    +0.000 C 
ATOM      9  C   UNL     1      -0.536  13.299  18.196  0.00  0.00    +0.000 C 
ATOM     10  C   UNL     1      -0.369  10.800  18.578  0.00  0.00    +0.000 C 
ATOM     11  C   UNL     1       1.013  10.664  19.207  0.00  0.00    +0.000 C 
ATOM     12  H   UNL     1       2.618   8.666  19.039  0.00  0.00    +0.000 HD
ENDROOT
BRANCH   8  13
ATOM     13  O   UNL     1      -2.518  11.974  18.730  0.00  0.00    +0.000 OA
ATOM     14  C   UNL     1      -2.956  10.839  17.996  0.00  0.00    +0.000 C 
ENDBRANCH   8  13
BRANCH   1  15
ATOM     15  C   UNL     1       2.465   6.655  19.508  0.00  0.00    +0.000 C 
BRANCH  15  16
ATOM     16  C   UNL     1       2.320   5.940  18.161  0.00  0.00    +0.000 C 
BRANCH  16  23
ATOM     17  C   UNL     1       3.800   4.137  17.078  0.00  0.00    +0.000 A 
ATOM     18  C   UNL     1       5.074   3.728  16.656  0.00  0.00    +0.000 A 
ATOM     19  C   UNL     1       6.170   4.580  16.745  0.00  0.00    +0.000 A 
ATOM     20  C   UNL     1       6.010   5.858  17.258  0.00  0.00    +0.000 A 
ATOM     21 CL   UNL     1       7.364   6.918  17.351  0.00  0.00    +0.000 Cl
ATOM     22  C   UNL     1       4.758   6.282  17.701  0.00  0.00    +0.000 A 
ATOM     23  C   UNL     1       3.643   5.423  17.631  0.00  0.00    +0.000 A 
BRANCH  17  24
ATOM     24  O   UNL     1       2.678   3.343  16.989  0.00  0.00    +0.000 OA
BRANCH  24  26
ATOM     25  C   UNL     1       1.612   2.302  18.896  0.00  0.00    +0.000 C 
ATOM     26  C   UNL     1       2.677   2.180  17.823  0.00  0.00    +0.000 C 
ENDBRANCH  24  26
ENDBRANCH  17  24
ENDBRANCH  16  23
ENDBRANCH  15  16
ENDBRANCH   1  15
TORSDOF 6
ENDMDL
MODEL 8
REMARK VINA RESULT:      -7.1      0.989      1.236
REMARK  Name = 
REMARK  9 active torsions:
REMARK  status: ('A' for Active; 'I' for Inactive)
REMARK    1  A    between atoms: C_1  and  C_2
REMARK    2  A    between atoms: C_2  and  O_3
REMARK    3  A    between atoms: O_3  and  C_4
REMARK    4  A    between atoms: C_10  and  C_11
REMARK    5  A    between atoms: C_11  and  C_12
REMARK    6  A    between atoms: C_12  and  N_13
REMARK    7  A    between atoms: C_20  and  C_21
REMARK    8  A    between atoms: C_20  and  O_22
REMARK    9  A    between atoms: O_22  and  C_23
REMARK                            x       y       z     vdW  Elec       q    Type
REMARK                         _______ _______ _______ _____ _____    ______ ____
ROOT
ATOM      1  N   UNL     1       2.092   7.903  18.649  0.00  0.00    +0.000 N 
ATOM      2  C   UNL     1       3.153   7.104  18.290  0.00  0.00    +0.000 C 
ATOM      3  O   UNL     1       3.844   7.354  17.302  0.00  0.00    +0.000 OA
ATOM      4  N   UNL     1       3.373   6.006  19.113  0.00  0.00    +0.000 N 
ATOM      5  C   UNL     1       4.532   5.149  18.826  0.00  0.00    +0.000 C 
ATOM      6  C   UNL     1       4.226   3.655  18.652  0.00  0.00    +0.000 C 
ATOM      7  C   UNL     1       3.818   2.975  19.963  0.00  0.00    +0.000 C 
ATOM      8  C   UNL     1       2.303   3.045  20.285  0.00  0.00    +0.000 C 
ATOM      9  C   UNL     1       2.131   2.818  21.799  0.00  0.00    +0.000 C 
ATOM     10  C   UNL     1       1.664   4.383  19.862  0.00  0.00    +0.000 C 
ATOM     11  C   UNL     1       2.504   5.602  20.226  0.00  0.00    +0.000 C 
ATOM     12  H   UNL     1       2.033   8.058  19.640  0.00  0.00    +0.000 HD
ENDROOT
BRANCH   8  13
ATOM     13  O   UNL     1       1.715   1.950  19.553  0.00  0.00    +0.000 OA
ATOM     14  C   UNL     1       0.695   2.265  18.615  0.00  0.00    +0.000 C 
ENDBRANCH   8  13
BRANCH   1  15
ATOM     15  C   UNL     1       1.738   9.083  17.865  0.00  0.00    +0.000 C 
BRANCH  15  16
ATOM     16  C   UNL     1       1.425  10.319  18.715  0.00  0.00    +0.000 C 
BRANCH  16  23
ATOM     17  C   UNL     1      -0.608  11.695  19.480  0.00  0.00    +0.000 A 
ATOM     18  C   UNL     1      -1.978  11.975  19.362  0.00  0.00    +0.000 A 
ATOM     19  C   UNL     1      -2.763  11.339  18.405  0.00  0.00    +0.000 A 
ATOM     20  C   UNL     1      -2.190  10.411  17.549  0.00  0.00    +0.000 A 
ATOM     21 CL   UNL     1      -3.159   9.638  16.355  0.00  0.00    +0.000 Cl
ATOM     22  C   UNL     1      -0.835  10.102  17.658  0.00  0.00    +0.000 A 
ATOM     23  C   UNL     1      -0.032  10.728  18.633  0.00  0.00    +0.000 A 
BRANCH  17  24
ATOM     24  O   UNL     1       0.219  12.314  20.391  0.00  0.00    +0.000 OA
BRANCH  24  26
ATOM     25  C   UNL     1       1.262  14.215  19.319  0.00  0.00    +0.000 C 
ATOM     26  C   UNL     1       0.239  13.744  20.334  0.00  0.00    +0.000 C 
ENDBRANCH  24  26
ENDBRANCH  17  24
ENDBRANCH  16  23
ENDBRANCH  15  16
ENDBRANCH   1  15
TORSDOF 6
ENDMDL
MODEL 9
REMARK VINA RESULT:      -7.0      3.072      8.285
REMARK  Name = 
REMARK  9 active torsions:
REMARK  status: ('A' for Active; 'I' for Inactive)
REMARK    1  A    between atoms: C_1  and  C_2
REMARK    2  A    between atoms: C_2  and  O_3
REMARK    3  A    between atoms: O_3  and  C_4
REMARK    4  A    between atoms: C_10  and  C_11
REMARK    5  A    between atoms: C_11  and  C_12
REMARK    6  A    between atoms: C_12  and  N_13
REMARK    7  A    between atoms: C_20  and  C_21
REMARK    8  A    between atoms: C_20  and  O_22
REMARK    9  A    between atoms: O_22  and  C_23
REMARK                            x       y       z     vdW  Elec       q    Type
REMARK                         _______ _______ _______ _____ _____    ______ ____
ROOT
ATOM      1  N   UNL     1       1.424   9.373  18.799  0.00  0.00    +0.000 N 
ATOM      2  C   UNL     1       1.158   9.036  20.106  0.00  0.00    +0.000 C 
ATOM      3  O   UNL     1       1.255   7.876  20.507  0.00  0.00    +0.000 OA
ATOM      4  N   UNL     1       0.770  10.092  20.923  0.00  0.00    +0.000 N 
ATOM      5  C   UNL     1       0.536   9.813  22.347  0.00  0.00    +0.000 C 
ATOM      6  C   UNL     1      -0.833  10.242  22.892  0.00  0.00    +0.000 C 
ATOM      7  C   UNL     1      -0.989  11.765  22.977  0.00  0.00    +0.000 C 
ATOM      8  C   UNL     1      -1.514  12.435  21.682  0.00  0.00    +0.000 C 
ATOM      9  C   UNL     1      -1.123  13.924  21.728  0.00  0.00    +0.000 C 
ATOM     10  C   UNL     1      -0.968  11.772  20.401  0.00  0.00    +0.000 C 
ATOM     11  C   UNL     1       0.524  11.464  20.462  0.00  0.00    +0.000 C 
ATOM     12  H   UNL     1       1.940  10.232  18.710  0.00  0.00    +0.000 HD
ENDROOT
BRANCH   8  13
ATOM     13  O   UNL     1      -2.949  12.301  21.748  0.00  0.00    +0.000 OA
ATOM     14  C   UNL     1      -3.590  12.725  22.943  0.00  0.00    +0.000 C 
ENDBRANCH   8  13
BRANCH   1  15
ATOM     15  C   UNL     1       1.830   8.362  17.828  0.00  0.00    +0.000 C 
BRANCH  15  16
ATOM     16  C   UNL     1       3.286   7.909  17.977  0.00  0.00    +0.000 C 
BRANCH  16  23
ATOM     17  C   UNL     1       4.613   5.897  17.080  0.00  0.00    +0.000 A 
ATOM     18  C   UNL     1       4.672   4.519  16.822  0.00  0.00    +0.000 A 
ATOM     19  C   UNL     1       3.634   3.672  17.198  0.00  0.00    +0.000 A 
ATOM     20  C   UNL     1       2.519   4.189  17.839  0.00  0.00    +0.000 A 
ATOM     21 CL   UNL     1       1.244   3.137  18.319  0.00  0.00    +0.000 Cl
ATOM     22  C   UNL     1       2.429   5.557  18.091  0.00  0.00    +0.000 A 
ATOM     23  C   UNL     1       3.466   6.429  17.701  0.00  0.00    +0.000 A 
BRANCH  17  24
ATOM     24  O   UNL     1       5.623   6.776  16.752  0.00  0.00    +0.000 OA
BRANCH  24  26
ATOM     25  C   UNL     1       7.653   7.781  17.599  0.00  0.00    +0.000 C 
ATOM     26  C   UNL     1       6.900   6.492  17.333  0.00  0.00    +0.000 C 
ENDBRANCH  24  26
ENDBRANCH  17  24
ENDBRANCH  16  23
ENDBRANCH  15  16
ENDBRANCH   1  15
TORSDOF 6
ENDMDL
