MODEL 1
REMARK VINA RESULT:      -7.1      0.000      0.000
REMARK  Name = 
REMARK  15 active torsions:
REMARK  status: ('A' for Active; 'I' for Inactive)
REMARK    1  A    between atoms: C_2  and  O_3
REMARK    2  A    between atoms: C_2  and  C_4
REMARK    3  A    between atoms: C_4  and  S_5
REMARK    4  A    between atoms: S_5  and  C_6
REMARK    5  A    between atoms: C_6  and  C_7
REMARK    6  A    between atoms: C_6  and  C_22
REMARK    7  A    between atoms: C_7  and  C_8
REMARK    8  A    between atoms: C_8  and  C_9
REMARK    9  A    between atoms: C_9  and  C_10
REMARK   10  A    between atoms: C_10  and  N_11
REMARK   11  A    between atoms: N_11  and  S_12
REMARK   12  A    between atoms: S_12  and  C_15
REMARK   13  A    between atoms: C_22  and  C_23
REMARK   14  A    between atoms: C_23  and  C_24
REMARK   15  A    between atoms: C_24  and  C_25
REMARK                            x       y       z     vdW  Elec       q    Type
REMARK                         _______ _______ _______ _____ _____    ______ ____
ROOT
ATOM      1  C   UNL     1       4.592   5.749  17.943  0.00  0.00    +0.000 C 
ENDROOT
BRANCH   1   2
ATOM      2  S   UNL     1       5.455   6.551  16.505  0.00  0.00    +0.000 S 
BRANCH   2   3
ATOM      3  C   UNL     1       6.910   5.474  16.248  0.00  0.00    +0.000 C 
BRANCH   3   5
ATOM      4  O   UNL     1       6.324   3.852  14.555  0.00  0.00    +0.000 OA
ATOM      5  C   UNL     1       6.959   4.844  14.873  0.00  0.00    +0.000 C 
BRANCH   5   6
ATOM      6  O   UNL     1       7.835   5.435  14.022  0.00  0.00    +0.000 OA
ATOM      7  H   UNL     1       7.392   6.135  13.495  0.00  0.00    +0.000 HD
ENDBRANCH   5   6
ENDBRANCH   3   5
ENDBRANCH   2   3
ENDBRANCH   1   2
BRANCH   1   8
ATOM      8  C   UNL     1       3.067   5.978  17.952  0.00  0.00    +0.000 C 
BRANCH   8   9
ATOM      9  C   UNL     1       2.622   7.282  18.632  0.00  0.00    +0.000 C 
BRANCH   9  10
ATOM     10  C   UNL     1       1.973   7.081  20.003  0.00  0.00    +0.000 C 
BRANCH  10  11
ATOM     11  C   UNL     1       1.620   8.377  20.724  0.00  0.00    +0.000 C 
BRANCH  11  12
ATOM     12  N   UNL     1       0.429   8.977  20.099  0.00  0.00    +0.000 NA
ATOM     13  H   UNL     1      -0.449   8.678  20.523  0.00  0.00    +0.000 HD
BRANCH  12  14
ATOM     14  S   UNL     1       0.454  10.658  19.905  0.00  0.00    +0.000 S 
ATOM     15  O   UNL     1       0.391  11.282  21.207  0.00  0.00    +0.000 OA
ATOM     16  O   UNL     1       1.499  10.952  18.953  0.00  0.00    +0.000 OA
BRANCH  14  17
ATOM     17  C   UNL     1      -1.103  10.908  19.089  0.00  0.00    +0.000 A 
ATOM     18  C   UNL     1      -1.410  10.175  17.939  0.00  0.00    +0.000 A 
ATOM     19  C   UNL     1      -2.625  10.399  17.289  0.00  0.00    +0.000 A 
ATOM     20  C   UNL     1      -3.523  11.336  17.802  0.00  0.00    +0.000 A 
ATOM     21 CL   UNL     1      -5.021  11.607  17.000  0.00  0.00    +0.000 Cl
ATOM     22  C   UNL     1      -3.220  12.056  18.958  0.00  0.00    +0.000 A 
ATOM     23  C   UNL     1      -2.004  11.843  19.609  0.00  0.00    +0.000 A 
ENDBRANCH  14  17
ENDBRANCH  12  14
ENDBRANCH  11  12
ENDBRANCH  10  11
ENDBRANCH   9  10
ENDBRANCH   8   9
ENDBRANCH   1   8
BRANCH   1  24
ATOM     24  C   UNL     1       4.910   4.234  17.938  0.00  0.00    +0.000 C 
BRANCH  24  25
ATOM     25  C   UNL     1       3.847   3.378  17.252  0.00  0.00    +0.000 C 
BRANCH  25  26
ATOM     26  C   UNL     1       3.510   2.130  18.071  0.00  0.00    +0.000 C 
BRANCH  26  27
ATOM     27  C   UNL     1       2.807   2.532  19.337  0.00  0.00    +0.000 A 
ATOM     28  C   UNL     1       1.491   3.001  19.320  0.00  0.00    +0.000 A 
ATOM     29  C   UNL     1       0.845   3.273  20.522  0.00  0.00    +0.000 A 
ATOM     30  C   UNL     1       1.537   3.064  21.702  0.00  0.00    +0.000 A 
ATOM     31  N   UNL     1       2.810   2.618  21.757  0.00  0.00    +0.000 NA
ATOM     32  C   UNL     1       3.413   2.359  20.576  0.00  0.00    +0.000 A 
ENDBRANCH  26  27
ENDBRANCH  25  26
ENDBRANCH  24  25
ENDBRANCH   1  24
TORSDOF 15
ENDMDL
MODEL 2
REMARK VINA RESULT:      -6.7      1.247      1.763
REMARK  Name = 
REMARK  15 active torsions:
REMARK  status: ('A' for Active; 'I' for Inactive)
REMARK    1  A    between atoms: C_2  and  O_3
REMARK    2  A    between atoms: C_2  and  C_4
REMARK    3  A    between atoms: C_4  and  S_5
REMARK    4  A    between atoms: S_5  and  C_6
REMARK    5  A    between atoms: C_6  and  C_7
REMARK    6  A    between atoms: C_6  and  C_22
REMARK    7  A    between atoms: C_7  and  C_8
REMARK    8  A    between atoms: C_8  and  C_9
REMARK    9  A    between atoms: C_9  and  C_10
REMARK   10  A    between atoms: C_10  and  N_11
REMARK   11  A    between atoms: N_11  and  S_12
REMARK   12  A    between atoms: S_12  and  C_15
REMARK   13  A    between atoms: C_22  and  C_23
REMARK   14  A    between atoms: C_23  and  C_24
REMARK   15  A    between atoms: C_24  and  C_25
REMARK                            x       y       z     vdW  Elec       q    Type
REMARK                         _______ _______ _______ _____ _____    ______ ____
ROOT
ATOM      1  C   UNL     1       5.212   4.654  17.857  0.00  0.00    +0.000 C 
ENDROOT
BRANCH   1   2
ATOM      2  S   UNL     1       7.033   4.839  17.532  0.00  0.00    +0.000 S 
BRANCH   2   3
ATOM      3  C   UNL     1       7.197   4.288  15.796  0.00  0.00    +0.000 C 
BRANCH   3   5
ATOM      4  O   UNL     1       5.912   6.009  14.690  0.00  0.00    +0.000 OA
ATOM      5  C   UNL     1       6.959   5.391  14.788  0.00  0.00    +0.000 C 
BRANCH   5   6
ATOM      6  O   UNL     1       7.993   5.596  13.935  0.00  0.00    +0.000 OA
ATOM      7  H   UNL     1       7.703   6.114  13.152  0.00  0.00    +0.000 HD
ENDBRANCH   5   6
ENDBRANCH   3   5
ENDBRANCH   2   3
ENDBRANCH   1   2
BRANCH   1   8
ATOM      8  C   UNL     1       4.458   5.997  17.918  0.00  0.00    +0.000 C 
BRANCH   8   9
ATOM      9  C   UNL     1       3.488   6.132  19.101  0.00  0.00    +0.000 C 
BRANCH   9  10
ATOM     10  C   UNL     1       2.266   7.007  18.811  0.00  0.00    +0.000 C 
BRANCH  10  11
ATOM     11  C   UNL     1       2.586   8.309  18.087  0.00  0.00    +0.000 C 
BRANCH  11  12
ATOM     12  N   UNL     1       1.336   9.035  17.807  0.00  0.00    +0.000 NA
ATOM     13  H   UNL     1       0.534   8.424  17.657  0.00  0.00    +0.000 HD
BRANCH  12  14
ATOM     14  S   UNL     1       0.940  10.282  18.880  0.00  0.00    +0.000 S 
ATOM     15  O   UNL     1       0.962   9.766  20.230  0.00  0.00    +0.000 OA
ATOM     16  O   UNL     1       1.707  11.438  18.479  0.00  0.00    +0.000 OA
BRANCH  14  17
ATOM     17  C   UNL     1      -0.751  10.573  18.421  0.00  0.00    +0.000 A 
ATOM     18  C   UNL     1      -1.476  11.590  19.050  0.00  0.00    +0.000 A 
ATOM     19  C   UNL     1      -2.812  11.793  18.702  0.00  0.00    +0.000 A 
ATOM     20  C   UNL     1      -3.402  10.993  17.721  0.00  0.00    +0.000 A 
ATOM     21 CL   UNL     1      -5.049  11.249  17.293  0.00  0.00    +0.000 Cl
ATOM     22  C   UNL     1      -2.672   9.989  17.086  0.00  0.00    +0.000 A 
ATOM     23  C   UNL     1      -1.338   9.775  17.434  0.00  0.00    +0.000 A 
ENDBRANCH  14  17
ENDBRANCH  12  14
ENDBRANCH  11  12
ENDBRANCH  10  11
ENDBRANCH   9  10
ENDBRANCH   8   9
ENDBRANCH   1   8
BRANCH   1  24
ATOM     24  C   UNL     1       4.598   3.738  16.772  0.00  0.00    +0.000 C 
BRANCH  24  25
ATOM     25  C   UNL     1       3.951   2.469  17.322  0.00  0.00    +0.000 C 
BRANCH  25  26
ATOM     26  C   UNL     1       2.457   2.664  17.585  0.00  0.00    +0.000 C 
BRANCH  26  27
ATOM     27  C   UNL     1       2.203   2.688  19.066  0.00  0.00    +0.000 A 
ATOM     28  C   UNL     1       3.235   2.479  19.984  0.00  0.00    +0.000 A 
ATOM     29  C   UNL     1       2.978   2.603  21.345  0.00  0.00    +0.000 A 
ATOM     30  C   UNL     1       1.695   2.934  21.744  0.00  0.00    +0.000 A 
ATOM     31  N   UNL     1       0.671   3.138  20.887  0.00  0.00    +0.000 NA
ATOM     32  C   UNL     1       0.950   3.014  19.571  0.00  0.00    +0.000 A 
ENDBRANCH  26  27
ENDBRANCH  25  26
ENDBRANCH  24  25
ENDBRANCH   1  24
TORSDOF 15
ENDMDL
MODEL 3
REMARK VINA RESULT:      -6.7      2.029      2.478
REMARK  Name = 
REMARK  15 active torsions:
REMARK  status: ('A' for Active; 'I' for Inactive)
REMARK    1  A    between atoms: C_2  and  O_3
REMARK    2  A    between atoms: C_2  and  C_4
REMARK    3  A    between atoms: C_4  and  S_5
REMARK    4  A    between atoms: S_5  and  C_6
REMARK    5  A    between atoms: C_6  and  C_7
REMARK    6  A    between atoms: C_6  and  C_22
REMARK    7  A    between atoms: C_7  and  C_8
REMARK    8  A    between atoms: C_8  and  C_9
REMARK    9  A    between atoms: C_9  and  C_10
REMARK   10  A    between atoms: C_10  and  N_11
REMARK   11  A    between atoms: N_11  and  S_12
REMARK   12  A    between atoms: S_12  and  C_15
REMARK   13  A    between atoms: C_22  and  C_23
REMARK   14  A    between atoms: C_23  and  C_24
REMARK   15  A    between atoms: C_24  and  C_25
REMARK                            x       y       z     vdW  Elec       q    Type
REMARK                         _______ _______ _______ _____ _____    ______ ____
ROOT
ATOM      1  C   UNL     1       4.412   5.434  18.154  0.00  0.00    +0.000 C 
ENDROOT
BRANCH   1   2
ATOM      2  S   UNL     1       5.303   6.653  17.070  0.00  0.00    +0.000 S 
BRANCH   2   3
ATOM      3  C   UNL     1       6.977   5.931  16.931  0.00  0.00    +0.000 C 
BRANCH   3   5
ATOM      4  O   UNL     1       7.522   5.313  14.659  0.00  0.00    +0.000 OA
ATOM      5  C   UNL     1       7.128   4.979  15.764  0.00  0.00    +0.000 C 
BRANCH   5   6
ATOM      6  O   UNL     1       6.714   3.713  16.022  0.00  0.00    +0.000 OA
ATOM      7  H   UNL     1       7.205   3.066  15.472  0.00  0.00    +0.000 HD
ENDBRANCH   5   6
ENDBRANCH   3   5
ENDBRANCH   2   3
ENDBRANCH   1   2
BRANCH   1   8
ATOM      8  C   UNL     1       3.808   6.065  19.425  0.00  0.00    +0.000 C 
BRANCH   8   9
ATOM      9  C   UNL     1       2.307   6.375  19.332  0.00  0.00    +0.000 C 
BRANCH   9  10
ATOM     10  C   UNL     1       1.838   7.483  20.279  0.00  0.00    +0.000 C 
BRANCH  10  11
ATOM     11  C   UNL     1       1.446   8.779  19.580  0.00  0.00    +0.000 C 
BRANCH  11  12
ATOM     12  N   UNL     1       0.825   9.693  20.553  0.00  0.00    +0.000 NA
ATOM     13  H   UNL     1       1.348   9.780  21.424  0.00  0.00    +0.000 HD
BRANCH  12  14
ATOM     14  S   UNL     1       0.385  11.219  19.969  0.00  0.00    +0.000 S 
ATOM     15  O   UNL     1       1.478  12.139  20.187  0.00  0.00    +0.000 OA
ATOM     16  O   UNL     1      -0.209  11.014  18.669  0.00  0.00    +0.000 OA
BRANCH  14  17
ATOM     17  C   UNL     1      -0.923  11.629  21.099  0.00  0.00    +0.000 A 
ATOM     18  C   UNL     1      -1.997  12.411  20.663  0.00  0.00    +0.000 A 
ATOM     19  C   UNL     1      -3.005  12.751  21.566  0.00  0.00    +0.000 A 
ATOM     20  C   UNL     1      -2.940  12.293  22.883  0.00  0.00    +0.000 A 
ATOM     21 CL   UNL     1      -4.187  12.710  23.992  0.00  0.00    +0.000 Cl
ATOM     22  C   UNL     1      -1.874  11.500  23.310  0.00  0.00    +0.000 A 
ATOM     23  C   UNL     1      -0.858  11.163  22.416  0.00  0.00    +0.000 A 
ENDBRANCH  14  17
ENDBRANCH  12  14
ENDBRANCH  11  12
ENDBRANCH  10  11
ENDBRANCH   9  10
ENDBRANCH   8   9
ENDBRANCH   1   8
BRANCH   1  24
ATOM     24  C   UNL     1       3.310   4.734  17.323  0.00  0.00    +0.000 C 
BRANCH  24  25
ATOM     25  C   UNL     1       3.566   3.248  17.077  0.00  0.00    +0.000 C 
BRANCH  25  26
ATOM     26  C   UNL     1       2.452   2.378  17.661  0.00  0.00    +0.000 C 
BRANCH  26  27
ATOM     27  C   UNL     1       2.371   2.592  19.147  0.00  0.00    +0.000 A 
ATOM     28  C   UNL     1       1.168   2.936  19.767  0.00  0.00    +0.000 A 
ATOM     29  C   UNL     1       1.115   3.033  21.154  0.00  0.00    +0.000 A 
ATOM     30  C   UNL     1       2.268   2.779  21.875  0.00  0.00    +0.000 A 
ATOM     31  N   UNL     1       3.450   2.449  21.310  0.00  0.00    +0.000 NA
ATOM     32  C   UNL     1       3.473   2.360  19.963  0.00  0.00    +0.000 A 
ENDBRANCH  26  27
ENDBRANCH  25  26
ENDBRANCH  24  25
ENDBRANCH   1  24
TORSDOF 15
ENDMDL
MODEL 4
REMARK VINA RESULT:      -6.6      3.623      5.226
REMARK  Name = 
REMARK  15 active torsions:
REMARK  status: ('A' for Active; 'I' for Inactive)
REMARK    1  A    between atoms: C_2  and  O_3
REMARK    2  A    between atoms: C_2  and  C_4
REMARK    3  A    between atoms: C_4  and  S_5
REMARK    4  A    between atoms: S_5  and  C_6
REMARK    5  A    between atoms: C_6  and  C_7
REMARK    6  A    between atoms: C_6  and  C_22
REMARK    7  A    between atoms: C_7  and  C_8
REMARK    8  A    between atoms: C_8  and  C_9
REMARK    9  A    between atoms: C_9  and  C_10
REMARK   10  A    between atoms: C_10  and  N_11
REMARK   11  A    between atoms: N_11  and  S_12
REMARK   12  A    between atoms: S_12  and  C_15
REMARK   13  A    between atoms: C_22  and  C_23
REMARK   14  A    between atoms: C_23  and  C_24
REMARK   15  A    between atoms: C_24  and  C_25
REMARK                            x       y       z     vdW  Elec       q    Type
REMARK                         _______ _______ _______ _____ _____    ______ ____
ROOT
ATOM      1  C   UNL     1       3.501   4.026  17.873  0.00  0.00    +0.000 C 
ENDROOT
BRANCH   1   2
ATOM      2  S   UNL     1       2.029   2.944  18.215  0.00  0.00    +0.000 S 
BRANCH   2   3
ATOM      3  C   UNL     1       2.386   2.279  19.880  0.00  0.00    +0.000 C 
BRANCH   3   5
ATOM      4  O   UNL     1       1.967   2.997  22.149  0.00  0.00    +0.000 OA
ATOM      5  C   UNL     1       1.611   2.966  20.983  0.00  0.00    +0.000 C 
BRANCH   5   6
ATOM      6  O   UNL     1       0.427   3.495  20.582  0.00  0.00    +0.000 OA
ATOM      7  H   UNL     1       0.243   4.336  21.055  0.00  0.00    +0.000 HD
ENDBRANCH   5   6
ENDBRANCH   3   5
ENDBRANCH   2   3
ENDBRANCH   1   2
BRANCH   1   8
ATOM      8  C   UNL     1       4.242   4.479  19.148  0.00  0.00    +0.000 C 
BRANCH   8   9
ATOM      9  C   UNL     1       3.968   5.932  19.563  0.00  0.00    +0.000 C 
BRANCH   9  10
ATOM     10  C   UNL     1       2.549   6.415  19.251  0.00  0.00    +0.000 C 
BRANCH  10  11
ATOM     11  C   UNL     1       1.788   6.943  20.461  0.00  0.00    +0.000 C 
BRANCH  11  12
ATOM     12  N   UNL     1       1.493   8.373  20.269  0.00  0.00    +0.000 NA
ATOM     13  H   UNL     1       0.986   8.573  19.408  0.00  0.00    +0.000 HD
BRANCH  12  14
ATOM     14  S   UNL     1       0.778   9.170  21.579  0.00  0.00    +0.000 S 
ATOM     15  O   UNL     1      -0.489   8.541  21.878  0.00  0.00    +0.000 OA
ATOM     16  O   UNL     1       1.810   9.347  22.574  0.00  0.00    +0.000 OA
BRANCH  14  17
ATOM     17  C   UNL     1       0.455  10.757  20.850  0.00  0.00    +0.000 A 
ATOM     18  C   UNL     1       0.873  11.018  19.542  0.00  0.00    +0.000 A 
ATOM     19  C   UNL     1       0.640  12.277  18.987  0.00  0.00    +0.000 A 
ATOM     20  C   UNL     1      -0.021  13.253  19.736  0.00  0.00    +0.000 A 
ATOM     21 CL   UNL     1      -0.310  14.803  19.048  0.00  0.00    +0.000 Cl
ATOM     22  C   UNL     1      -0.449  12.984  21.037  0.00  0.00    +0.000 A 
ATOM     23  C   UNL     1      -0.213  11.730  21.600  0.00  0.00    +0.000 A 
ENDBRANCH  14  17
ENDBRANCH  12  14
ENDBRANCH  11  12
ENDBRANCH  10  11
ENDBRANCH   9  10
ENDBRANCH   8   9
ENDBRANCH   1   8
BRANCH   1  24
ATOM     24  C   UNL     1       4.467   3.276  16.925  0.00  0.00    +0.000 C 
BRANCH  24  25
ATOM     25  C   UNL     1       5.081   4.158  15.840  0.00  0.00    +0.000 C 
BRANCH  25  26
ATOM     26  C   UNL     1       6.609   4.182  15.927  0.00  0.00    +0.000 C 
BRANCH  26  27
ATOM     27  C   UNL     1       7.043   5.257  16.885  0.00  0.00    +0.000 A 
ATOM     28  C   UNL     1       7.587   4.943  18.132  0.00  0.00    +0.000 A 
ATOM     29  C   UNL     1       8.062   5.963  18.949  0.00  0.00    +0.000 A 
ATOM     30  C   UNL     1       7.979   7.266  18.489  0.00  0.00    +0.000 A 
ATOM     31  N   UNL     1       7.454   7.608  17.292  0.00  0.00    +0.000 NA
ATOM     32  C   UNL     1       7.003   6.597  16.518  0.00  0.00    +0.000 A 
ENDBRANCH  26  27
ENDBRANCH  25  26
ENDBRANCH  24  25
ENDBRANCH   1  24
TORSDOF 15
ENDMDL
MODEL 5
REMARK VINA RESULT:      -6.6      3.000      4.801
REMARK  Name = 
REMARK  15 active torsions:
REMARK  status: ('A' for Active; 'I' for Inactive)
REMARK    1  A    between atoms: C_2  and  O_3
REMARK    2  A    between atoms: C_2  and  C_4
REMARK    3  A    between atoms: C_4  and  S_5
REMARK    4  A    between atoms: S_5  and  C_6
REMARK    5  A    between atoms: C_6  and  C_7
REMARK    6  A    between atoms: C_6  and  C_22
REMARK    7  A    between atoms: C_7  and  C_8
REMARK    8  A    between atoms: C_8  and  C_9
REMARK    9  A    between atoms: C_9  and  C_10
REMARK   10  A    between atoms: C_10  and  N_11
REMARK   11  A    between atoms: N_11  and  S_12
REMARK   12  A    between atoms: S_12  and  C_15
REMARK   13  A    between atoms: C_22  and  C_23
REMARK   14  A    between atoms: C_23  and  C_24
REMARK   15  A    between atoms: C_24  and  C_25
REMARK                            x       y       z     vdW  Elec       q    Type
REMARK                         _______ _______ _______ _____ _____    ______ ____
ROOT
ATOM      1  C   UNL     1       3.105   4.819  18.191  0.00  0.00    +0.000 C 
ENDROOT
BRANCH   1   2
ATOM      2  S   UNL     1       2.398   3.110  18.377  0.00  0.00    +0.000 S 
BRANCH   2   3
ATOM      3  C   UNL     1       2.808   2.683  20.108  0.00  0.00    +0.000 C 
BRANCH   3   5
ATOM      4  O   UNL     1       1.853   3.023  22.301  0.00  0.00    +0.000 OA
ATOM      5  C   UNL     1       1.710   3.029  21.090  0.00  0.00    +0.000 C 
BRANCH   5   6
ATOM      6  O   UNL     1       0.508   3.281  20.513  0.00  0.00    +0.000 OA
ATOM      7  H   UNL     1      -0.210   3.271  21.183  0.00  0.00    +0.000 HD
ENDBRANCH   5   6
ENDBRANCH   3   5
ENDBRANCH   2   3
ENDBRANCH   1   2
BRANCH   1   8
ATOM      8  C   UNL     1       2.035   5.929  18.175  0.00  0.00    +0.000 C 
BRANCH   8   9
ATOM      9  C   UNL     1       2.386   7.166  19.016  0.00  0.00    +0.000 C 
BRANCH   9  10
ATOM     10  C   UNL     1       1.845   7.123  20.447  0.00  0.00    +0.000 C 
BRANCH  10  11
ATOM     11  C   UNL     1       1.426   8.481  20.999  0.00  0.00    +0.000 C 
BRANCH  11  12
ATOM     12  N   UNL     1       0.998   9.349  19.890  0.00  0.00    +0.000 NA
ATOM     13  H   UNL     1       0.279   8.933  19.299  0.00  0.00    +0.000 HD
BRANCH  12  14
ATOM     14  S   UNL     1       0.582  10.937  20.304  0.00  0.00    +0.000 S 
ATOM     15  O   UNL     1       0.290  10.993  21.718  0.00  0.00    +0.000 OA
ATOM     16  O   UNL     1       1.555  11.800  19.678  0.00  0.00    +0.000 OA
BRANCH  14  17
ATOM     17  C   UNL     1      -0.944  11.110  19.411  0.00  0.00    +0.000 A 
ATOM     18  C   UNL     1      -1.924  11.992  19.875  0.00  0.00    +0.000 A 
ATOM     19  C   UNL     1      -3.130  12.100  19.183  0.00  0.00    +0.000 A 
ATOM     20  C   UNL     1      -3.337  11.343  18.028  0.00  0.00    +0.000 A 
ATOM     21 CL   UNL     1      -4.824  11.482  17.174  0.00  0.00    +0.000 Cl
ATOM     22  C   UNL     1      -2.351  10.474  17.559  0.00  0.00    +0.000 A 
ATOM     23  C   UNL     1      -1.146  10.355  18.251  0.00  0.00    +0.000 A 
ENDBRANCH  14  17
ENDBRANCH  12  14
ENDBRANCH  11  12
ENDBRANCH  10  11
ENDBRANCH   9  10
ENDBRANCH   8   9
ENDBRANCH   1   8
BRANCH   1  24
ATOM     24  C   UNL     1       4.124   5.068  19.328  0.00  0.00    +0.000 C 
BRANCH  24  25
ATOM     25  C   UNL     1       5.552   5.307  18.841  0.00  0.00    +0.000 C 
BRANCH  25  26
ATOM     26  C   UNL     1       6.148   4.054  18.196  0.00  0.00    +0.000 C 
BRANCH  26  27
ATOM     27  C   UNL     1       6.381   4.302  16.732  0.00  0.00    +0.000 A 
ATOM     28  C   UNL     1       5.645   3.629  15.754  0.00  0.00    +0.000 A 
ATOM     29  C   UNL     1       5.826   3.956  14.414  0.00  0.00    +0.000 A 
ATOM     30  C   UNL     1       6.737   4.947  14.097  0.00  0.00    +0.000 A 
ATOM     31  N   UNL     1       7.471   5.616  15.013  0.00  0.00    +0.000 NA
ATOM     32  C   UNL     1       7.273   5.281  16.307  0.00  0.00    +0.000 A 
ENDBRANCH  26  27
ENDBRANCH  25  26
ENDBRANCH  24  25
ENDBRANCH   1  24
TORSDOF 15
ENDMDL
MODEL 6
REMARK VINA RESULT:      -6.6      2.130      2.582
REMARK  Name = 
REMARK  15 active torsions:
REMARK  status: ('A' for Active; 'I' for Inactive)
REMARK    1  A    between atoms: C_2  and  O_3
REMARK    2  A    between atoms: C_2  and  C_4
REMARK    3  A    between atoms: C_4  and  S_5
REMARK    4  A    between atoms: S_5  and  C_6
REMARK    5  A    between atoms: C_6  and  C_7
REMARK    6  A    between atoms: C_6  and  C_22
REMARK    7  A    between atoms: C_7  and  C_8
REMARK    8  A    between atoms: C_8  and  C_9
REMARK    9  A    between atoms: C_9  and  C_10
REMARK   10  A    between atoms: C_10  and  N_11
REMARK   11  A    between atoms: N_11  and  S_12
REMARK   12  A    between atoms: S_12  and  C_15
REMARK   13  A    between atoms: C_22  and  C_23
REMARK   14  A    between atoms: C_23  and  C_24
REMARK   15  A    between atoms: C_24  and  C_25
REMARK                            x       y       z     vdW  Elec       q    Type
REMARK                         _______ _______ _______ _____ _____    ______ ____
ROOT
ATOM      1  C   UNL     1       3.806   5.389  17.900  0.00  0.00    +0.000 C 
ENDROOT
BRANCH   1   2
ATOM      2  S   UNL     1       5.200   6.567  17.549  0.00  0.00    +0.000 S 
BRANCH   2   3
ATOM      3  C   UNL     1       6.656   5.693  18.228  0.00  0.00    +0.000 C 
BRANCH   3   5
ATOM      4  O   UNL     1       7.387   5.176  15.984  0.00  0.00    +0.000 OA
ATOM      5  C   UNL     1       7.457   4.952  17.181  0.00  0.00    +0.000 C 
BRANCH   5   6
ATOM      6  O   UNL     1       8.224   3.948  17.676  0.00  0.00    +0.000 OA
ATOM      7  H   UNL     1       7.670   3.279  18.134  0.00  0.00    +0.000 HD
ENDBRANCH   5   6
ENDBRANCH   3   5
ENDBRANCH   2   3
ENDBRANCH   1   2
BRANCH   1   8
ATOM      8  C   UNL     1       2.454   6.089  18.142  0.00  0.00    +0.000 C 
BRANCH   8   9
ATOM      9  C   UNL     1       2.460   7.601  17.871  0.00  0.00    +0.000 C 
BRANCH   9  10
ATOM     10  C   UNL     1       2.117   8.457  19.092  0.00  0.00    +0.000 C 
BRANCH  10  11
ATOM     11  C   UNL     1       0.987   9.453  18.861  0.00  0.00    +0.000 C 
BRANCH  11  12
ATOM     12  N   UNL     1       0.952  10.421  19.969  0.00  0.00    +0.000 NA
ATOM     13  H   UNL     1       0.523  11.312  19.721  0.00  0.00    +0.000 HD
BRANCH  12  14
ATOM     14  S   UNL     1       0.331   9.852  21.438  0.00  0.00    +0.000 S 
ATOM     15  O   UNL     1      -0.300   8.572  21.216  0.00  0.00    +0.000 OA
ATOM     16  O   UNL     1       1.362  10.049  22.430  0.00  0.00    +0.000 OA
BRANCH  14  17
ATOM     17  C   UNL     1      -0.939  11.058  21.736  0.00  0.00    +0.000 A 
ATOM     18  C   UNL     1      -1.420  11.835  20.678  0.00  0.00    +0.000 A 
ATOM     19  C   UNL     1      -2.398  12.799  20.927  0.00  0.00    +0.000 A 
ATOM     20  C   UNL     1      -2.897  12.962  22.221  0.00  0.00    +0.000 A 
ATOM     21 CL   UNL     1      -4.105  14.148  22.524  0.00  0.00    +0.000 Cl
ATOM     22  C   UNL     1      -2.425  12.174  23.272  0.00  0.00    +0.000 A 
ATOM     23  C   UNL     1      -1.441  11.215  23.032  0.00  0.00    +0.000 A 
ENDBRANCH  14  17
ENDBRANCH  12  14
ENDBRANCH  11  12
ENDBRANCH  10  11
ENDBRANCH   9  10
ENDBRANCH   8   9
ENDBRANCH   1   8
BRANCH   1  24
ATOM     24  C   UNL     1       3.691   4.384  16.729  0.00  0.00    +0.000 C 
BRANCH  24  25
ATOM     25  C   UNL     1       2.925   3.109  17.077  0.00  0.00    +0.000 C 
BRANCH  25  26
ATOM     26  C   UNL     1       3.590   2.344  18.223  0.00  0.00    +0.000 C 
BRANCH  26  27
ATOM     27  C   UNL     1       2.834   2.586  19.499  0.00  0.00    +0.000 A 
ATOM     28  C   UNL     1       1.476   2.913  19.488  0.00  0.00    +0.000 A 
ATOM     29  C   UNL     1       0.790   3.036  20.692  0.00  0.00    +0.000 A 
ATOM     30  C   UNL     1       1.488   2.827  21.869  0.00  0.00    +0.000 A 
ATOM     31  N   UNL     1       2.801   2.515  21.919  0.00  0.00    +0.000 NA
ATOM     32  C   UNL     1       3.441   2.399  20.735  0.00  0.00    +0.000 A 
ENDBRANCH  26  27
ENDBRANCH  25  26
ENDBRANCH  24  25
ENDBRANCH   1  24
TORSDOF 15
ENDMDL
MODEL 7
REMARK VINA RESULT:      -6.5      3.126      3.629
REMARK  Name = 
REMARK  15 active torsions:
REMARK  status: ('A' for Active; 'I' for Inactive)
REMARK    1  A    between atoms: C_2  and  O_3
REMARK    2  A    between atoms: C_2  and  C_4
REMARK    3  A    between atoms: C_4  and  S_5
REMARK    4  A    between atoms: S_5  and  C_6
REMARK    5  A    between atoms: C_6  and  C_7
REMARK    6  A    between atoms: C_6  and  C_22
REMARK    7  A    between atoms: C_7  and  C_8
REMARK    8  A    between atoms: C_8  and  C_9
REMARK    9  A    between atoms: C_9  and  C_10
REMARK   10  A    between atoms: C_10  and  N_11
REMARK   11  A    between atoms: N_11  and  S_12
REMARK   12  A    between atoms: S_12  and  C_15
REMARK   13  A    between atoms: C_22  and  C_23
REMARK   14  A    between atoms: C_23  and  C_24
REMARK   15  A    between atoms: C_24  and  C_25
REMARK                            x       y       z     vdW  Elec       q    Type
REMARK                         _______ _______ _______ _____ _____    ______ ____
ROOT
ATOM      1  C   UNL     1       4.422   6.009  17.412  0.00  0.00    +0.000 C 
ENDROOT
BRANCH   1   2
ATOM      2  S   UNL     1       5.377   5.652  15.857  0.00  0.00    +0.000 S 
BRANCH   2   3
ATOM      3  C   UNL     1       7.040   5.224  16.486  0.00  0.00    +0.000 C 
BRANCH   3   5
ATOM      4  O   UNL     1       6.836   4.484  18.777  0.00  0.00    +0.000 OA
ATOM      5  C   UNL     1       7.168   5.353  17.989  0.00  0.00    +0.000 C 
BRANCH   5   6
ATOM      6  O   UNL     1       7.621   6.562  18.406  0.00  0.00    +0.000 OA
ATOM      7  H   UNL     1       7.234   6.799  19.277  0.00  0.00    +0.000 HD
ENDBRANCH   5   6
ENDBRANCH   3   5
ENDBRANCH   2   3
ENDBRANCH   1   2
BRANCH   1   8
ATOM      8  C   UNL     1       3.822   7.428  17.454  0.00  0.00    +0.000 C 
BRANCH   8   9
ATOM      9  C   UNL     1       2.402   7.504  18.034  0.00  0.00    +0.000 C 
BRANCH   9  10
ATOM     10  C   UNL     1       1.896   8.930  18.263  0.00  0.00    +0.000 C 
BRANCH  10  11
ATOM     11  C   UNL     1       1.214   9.144  19.609  0.00  0.00    +0.000 C 
BRANCH  11  12
ATOM     12  N   UNL     1       0.250  10.252  19.500  0.00  0.00    +0.000 NA
ATOM     13  H   UNL     1      -0.716   9.945  19.392  0.00  0.00    +0.000 HD
BRANCH  12  14
ATOM     14  S   UNL     1       0.362  11.457  20.683  0.00  0.00    +0.000 S 
ATOM     15  O   UNL     1      -0.906  12.145  20.773  0.00  0.00    +0.000 OA
ATOM     16  O   UNL     1       1.003  10.859  21.830  0.00  0.00    +0.000 OA
BRANCH  14  17
ATOM     17  C   UNL     1       1.536  12.549  19.918  0.00  0.00    +0.000 A 
ATOM     18  C   UNL     1       2.329  13.382  20.712  0.00  0.00    +0.000 A 
ATOM     19  C   UNL     1       3.229  14.256  20.100  0.00  0.00    +0.000 A 
ATOM     20  C   UNL     1       3.340  14.275  18.709  0.00  0.00    +0.000 A 
ATOM     21 CL   UNL     1       4.453  15.350  17.959  0.00  0.00    +0.000 Cl
ATOM     22  C   UNL     1       2.557  13.431  17.920  0.00  0.00    +0.000 A 
ATOM     23  C   UNL     1       1.649  12.561  18.524  0.00  0.00    +0.000 A 
ENDBRANCH  14  17
ENDBRANCH  12  14
ENDBRANCH  11  12
ENDBRANCH  10  11
ENDBRANCH   9  10
ENDBRANCH   8   9
ENDBRANCH   1   8
BRANCH   1  24
ATOM     24  C   UNL     1       3.309   4.947  17.572  0.00  0.00    +0.000 C 
BRANCH  24  25
ATOM     25  C   UNL     1       3.720   3.543  17.131  0.00  0.00    +0.000 C 
BRANCH  25  26
ATOM     26  C   UNL     1       2.734   2.483  17.625  0.00  0.00    +0.000 C 
BRANCH  26  27
ATOM     27  C   UNL     1       2.510   2.652  19.102  0.00  0.00    +0.000 A 
ATOM     28  C   UNL     1       1.254   2.989  19.612  0.00  0.00    +0.000 A 
ATOM     29  C   UNL     1       1.066   3.043  20.989  0.00  0.00    +0.000 A 
ATOM     30  C   UNL     1       2.142   2.756  21.811  0.00  0.00    +0.000 A 
ATOM     31  N   UNL     1       3.371   2.433  21.354  0.00  0.00    +0.000 NA
ATOM     32  C   UNL     1       3.525   2.385  20.013  0.00  0.00    +0.000 A 
ENDBRANCH  26  27
ENDBRANCH  25  26
ENDBRANCH  24  25
ENDBRANCH   1  24
TORSDOF 15
ENDMDL
MODEL 8
REMARK VINA RESULT:      -6.5      1.923      2.694
REMARK  Name = 
REMARK  15 active torsions:
REMARK  status: ('A' for Active; 'I' for Inactive)
REMARK    1  A    between atoms: C_2  and  O_3
REMARK    2  A    between atoms: C_2  and  C_4
REMARK    3  A    between atoms: C_4  and  S_5
REMARK    4  A    between atoms: S_5  and  C_6
REMARK    5  A    between atoms: C_6  and  C_7
REMARK    6  A    between atoms: C_6  and  C_22
REMARK    7  A    between atoms: C_7  and  C_8
REMARK    8  A    between atoms: C_8  and  C_9
REMARK    9  A    between atoms: C_9  and  C_10
REMARK   10  A    between atoms: C_10  and  N_11
REMARK   11  A    between atoms: N_11  and  S_12
REMARK   12  A    between atoms: S_12  and  C_15
REMARK   13  A    between atoms: C_22  and  C_23
REMARK   14  A    between atoms: C_23  and  C_24
REMARK   15  A    between atoms: C_24  and  C_25
REMARK                            x       y       z     vdW  Elec       q    Type
REMARK                         _______ _______ _______ _____ _____    ______ ____
ROOT
ATOM      1  C   UNL     1       3.439   6.426  18.531  0.00  0.00    +0.000 C 
ENDROOT
BRANCH   1   2
ATOM      2  S   UNL     1       4.066   5.186  17.296  0.00  0.00    +0.000 S 
BRANCH   2   3
ATOM      3  C   UNL     1       5.838   5.612  17.150  0.00  0.00    +0.000 C 
BRANCH   3   5
ATOM      4  O   UNL     1       6.517   4.493  19.182  0.00  0.00    +0.000 OA
ATOM      5  C   UNL     1       6.738   4.751  18.011  0.00  0.00    +0.000 C 
BRANCH   5   6
ATOM      6  O   UNL     1       7.872   4.339  17.389  0.00  0.00    +0.000 OA
ATOM      7  H   UNL     1       8.626   4.315  18.018  0.00  0.00    +0.000 HD
ENDBRANCH   5   6
ENDBRANCH   3   5
ENDBRANCH   2   3
ENDBRANCH   1   2
BRANCH   1   8
ATOM      8  C   UNL     1       3.428   7.873  17.999  0.00  0.00    +0.000 C 
BRANCH   8   9
ATOM      9  C   UNL     1       2.051   8.372  17.537  0.00  0.00    +0.000 C 
BRANCH   9  10
ATOM     10  C   UNL     1       1.631   9.708  18.155  0.00  0.00    +0.000 C 
BRANCH  10  11
ATOM     11  C   UNL     1       0.127   9.864  18.347  0.00  0.00    +0.000 C 
BRANCH  11  12
ATOM     12  N   UNL     1      -0.242  11.282  18.199  0.00  0.00    +0.000 NA
ATOM     13  H   UNL     1      -0.777  11.479  17.354  0.00  0.00    +0.000 HD
BRANCH  12  14
ATOM     14  S   UNL     1      -0.966  12.009  19.545  0.00  0.00    +0.000 S 
ATOM     15  O   UNL     1      -0.814  11.138  20.688  0.00  0.00    +0.000 OA
ATOM     16  O   UNL     1      -0.536  13.387  19.556  0.00  0.00    +0.000 OA
BRANCH  14  17
ATOM     17  C   UNL     1      -2.670  11.981  19.044  0.00  0.00    +0.000 A 
ATOM     18  C   UNL     1      -3.018  11.455  17.796  0.00  0.00    +0.000 A 
ATOM     19  C   UNL     1      -4.357  11.463  17.400  0.00  0.00    +0.000 A 
ATOM     20  C   UNL     1      -5.331  11.978  18.258  0.00  0.00    +0.000 A 
ATOM     21 CL   UNL     1      -6.979  11.982  17.768  0.00  0.00    +0.000 Cl
ATOM     22  C   UNL     1      -4.981  12.489  19.508  0.00  0.00    +0.000 A 
ATOM     23  C   UNL     1      -3.644  12.492  19.908  0.00  0.00    +0.000 A 
ENDBRANCH  14  17
ENDBRANCH  12  14
ENDBRANCH  11  12
ENDBRANCH  10  11
ENDBRANCH   9  10
ENDBRANCH   8   9
ENDBRANCH   1   8
BRANCH   1  24
ATOM     24  C   UNL     1       2.022   6.007  18.988  0.00  0.00    +0.000 C 
BRANCH  24  25
ATOM     25  C   UNL     1       1.934   5.617  20.462  0.00  0.00    +0.000 C 
BRANCH  25  26
ATOM     26  C   UNL     1       1.290   4.241  20.645  0.00  0.00    +0.000 C 
BRANCH  26  27
ATOM     27  C   UNL     1       2.071   3.211  19.877  0.00  0.00    +0.000 A 
ATOM     28  C   UNL     1       1.576   2.658  18.694  0.00  0.00    +0.000 A 
ATOM     29  C   UNL     1       2.369   1.779  17.964  0.00  0.00    +0.000 A 
ATOM     30  C   UNL     1       3.634   1.484  18.442  0.00  0.00    +0.000 A 
ATOM     31  N   UNL     1       4.144   1.995  19.583  0.00  0.00    +0.000 NA
ATOM     32  C   UNL     1       3.353   2.848  20.271  0.00  0.00    +0.000 A 
ENDBRANCH  26  27
ENDBRANCH  25  26
ENDBRANCH  24  25
ENDBRANCH   1  24
TORSDOF 15
ENDMDL
MODEL 9
REMARK VINA RESULT:      -6.5      2.901      3.384
REMARK  Name = 
REMARK  15 active torsions:
REMARK  status: ('A' for Active; 'I' for Inactive)
REMARK    1  A    between atoms: C_2  and  O_3
REMARK    2  A    between atoms: C_2  and  C_4
REMARK    3  A    between atoms: C_4  and  S_5
REMARK    4  A    between atoms: S_5  and  C_6
REMARK    5  A    between atoms: C_6  and  C_7
REMARK    6  A    between atoms: C_6  and  C_22
REMARK    7  A    between atoms: C_7  and  C_8
REMARK    8  A    between atoms: C_8  and  C_9
REMARK    9  A    between atoms: C_9  and  C_10
REMARK   10  A    between atoms: C_10  and  N_11
REMARK   11  A    between atoms: N_11  and  S_12
REMARK   12  A    between atoms: S_12  and  C_15
REMARK   13  A    between atoms: C_22  and  C_23
REMARK   14  A    between atoms: C_23  and  C_24
REMARK   15  A    between atoms: C_24  and  C_25
REMARK                            x       y       z     vdW  Elec       q    Type
REMARK                         _______ _______ _______ _____ _____    ______ ____
ROOT
ATOM      1  C   UNL     1       3.157   6.099  18.473  0.00  0.00    +0.000 C 
ENDROOT
BRANCH   1   2
ATOM      2  S   UNL     1       4.931   5.557  18.360  0.00  0.00    +0.000 S 
BRANCH   2   3
ATOM      3  C   UNL     1       5.662   6.780  17.214  0.00  0.00    +0.000 C 
BRANCH   3   5
ATOM      4  O   UNL     1       7.741   6.342  16.064  0.00  0.00    +0.000 OA
ATOM      5  C   UNL     1       7.166   6.666  17.088  0.00  0.00    +0.000 C 
BRANCH   5   6
ATOM      6  O   UNL     1       7.837   6.886  18.247  0.00  0.00    +0.000 OA
ATOM      7  H   UNL     1       8.778   6.617  18.162  0.00  0.00    +0.000 HD
ENDBRANCH   5   6
ENDBRANCH   3   5
ENDBRANCH   2   3
ENDBRANCH   1   2
BRANCH   1   8
ATOM      8  C   UNL     1       2.929   7.556  18.025  0.00  0.00    +0.000 C 
BRANCH   8   9
ATOM      9  C   UNL     1       1.852   8.308  18.823  0.00  0.00    +0.000 C 
BRANCH   9  10
ATOM     10  C   UNL     1       1.775   7.909  20.298  0.00  0.00    +0.000 C 
BRANCH  10  11
ATOM     11  C   UNL     1       0.971   8.871  21.165  0.00  0.00    +0.000 C 
BRANCH  11  12
ATOM     12  N   UNL     1       0.137   9.727  20.305  0.00  0.00    +0.000 NA
ATOM     13  H   UNL     1      -0.714   9.272  19.977  0.00  0.00    +0.000 HD
BRANCH  12  14
ATOM     14  S   UNL     1      -0.207  11.273  20.900  0.00  0.00    +0.000 S 
ATOM     15  O   UNL     1      -1.491  11.697  20.391  0.00  0.00    +0.000 OA
ATOM     16  O   UNL     1       0.102  11.256  22.311  0.00  0.00    +0.000 OA
BRANCH  14  17
ATOM     17  C   UNL     1       1.057  12.218  20.085  0.00  0.00    +0.000 A 
ATOM     18  C   UNL     1       1.436  11.889  18.780  0.00  0.00    +0.000 A 
ATOM     19  C   UNL     1       2.450  12.620  18.158  0.00  0.00    +0.000 A 
ATOM     20  C   UNL     1       3.058  13.678  18.836  0.00  0.00    +0.000 A 
ATOM     21 CL   UNL     1       4.304  14.579  18.064  0.00  0.00    +0.000 Cl
ATOM     22  C   UNL     1       2.667  14.012  20.133  0.00  0.00    +0.000 A 
ATOM     23  C   UNL     1       1.660  13.281  20.764  0.00  0.00    +0.000 A 
ENDBRANCH  14  17
ENDBRANCH  12  14
ENDBRANCH  11  12
ENDBRANCH  10  11
ENDBRANCH   9  10
ENDBRANCH   8   9
ENDBRANCH   1   8
BRANCH   1  24
ATOM     24  C   UNL     1       2.283   5.134  17.637  0.00  0.00    +0.000 C 
BRANCH  24  25
ATOM     25  C   UNL     1       3.026   3.897  17.137  0.00  0.00    +0.000 C 
BRANCH  25  26
ATOM     26  C   UNL     1       2.416   2.608  17.692  0.00  0.00    +0.000 C 
BRANCH  26  27
ATOM     27  C   UNL     1       2.331   2.694  19.190  0.00  0.00    +0.000 A 
ATOM     28  C   UNL     1       1.107   2.876  19.839  0.00  0.00    +0.000 A 
ATOM     29  C   UNL     1       1.059   2.856  21.229  0.00  0.00    +0.000 A 
ATOM     30  C   UNL     1       2.238   2.653  21.924  0.00  0.00    +0.000 A 
ATOM     31  N   UNL     1       3.440   2.480  21.332  0.00  0.00    +0.000 NA
ATOM     32  C   UNL     1       3.457   2.501  19.982  0.00  0.00    +0.000 A 
ENDBRANCH  26  27
ENDBRANCH  25  26
ENDBRANCH  24  25
ENDBRANCH   1  24
TORSDOF 15
ENDMDL
