MODEL 1
REMARK VINA RESULT:      -7.8      0.000      0.000
REMARK  Name = 
REMARK  13 active torsions:
REMARK  status: ('A' for Active; 'I' for Inactive)
REMARK    1  A    between atoms: C_2  and  O_3
REMARK    2  A    between atoms: C_2  and  C_4
REMARK    3  A    between atoms: C_4  and  O_5
REMARK    4  A    between atoms: O_5  and  C_6
REMARK    5  A    between atoms: C_6  and  C_7
REMARK    6  A    between atoms: C_7  and  C_8
REMARK    7  A    between atoms: C_8  and  C_9
REMARK    8  A    between atoms: C_9  and  C_10
REMARK    9  A    between atoms: C_10  and  C_11
REMARK   10  A    between atoms: C_11  and  N_12
REMARK   11  A    between atoms: C_14  and  C_15
REMARK   12  A    between atoms: C_21  and  C_22
REMARK   13  A    between atoms: C_28  and  C_29
REMARK                            x       y       z     vdW  Elec       q    Type
REMARK                         _______ _______ _______ _____ _____    ______ ____
ROOT
ATOM      1  N   UNL     1       2.261   8.690  18.746  0.00  0.00    +0.000 N 
ATOM      2  N   UNL     1       3.075   8.151  17.836  0.00  0.00    +0.000 NA
ATOM      3  C   UNL     1       3.182   6.855  18.172  0.00  0.00    +0.000 A 
ATOM      4  C   UNL     1       2.350   6.536  19.326  0.00  0.00    +0.000 A 
ATOM      5  C   UNL     1       1.889   7.805  19.752  0.00  0.00    +0.000 A 
ENDROOT
BRANCH   3   6
ATOM      6  C   UNL     1       4.007   5.979  17.332  0.00  0.00    +0.000 A 
ATOM      7  C   UNL     1       3.855   4.585  17.353  0.00  0.00    +0.000 A 
ATOM      8  C   UNL     1       4.355   3.806  16.301  0.00  0.00    +0.000 A 
ATOM      9  C   UNL     1       5.124   4.398  15.301  0.00  0.00    +0.000 A 
ATOM     10  C   UNL     1       5.437   5.755  15.384  0.00  0.00    +0.000 A 
ATOM     11  C   UNL     1       4.879   6.543  16.391  0.00  0.00    +0.000 A 
ENDBRANCH   3   6
BRANCH   4  12
ATOM     12  C   UNL     1       2.127   5.223  20.026  0.00  0.00    +0.000 A 
ATOM     13  C   UNL     1       0.889   4.574  20.049  0.00  0.00    +0.000 A 
ATOM     14  C   UNL     1       0.751   3.205  20.330  0.00  0.00    +0.000 A 
ATOM     15  C   UNL     1       1.854   2.463  20.707  0.00  0.00    +0.000 A 
ATOM     16  C   UNL     1       3.041   3.134  20.942  0.00  0.00    +0.000 A 
ATOM     17  C   UNL     1       3.138   4.507  20.671  0.00  0.00    +0.000 A 
ENDBRANCH   4  12
BRANCH   5  18
ATOM     18  C   UNL     1       1.138   8.217  20.963  0.00  0.00    +0.000 A 
ATOM     19  C   UNL     1      -0.235   7.937  21.070  0.00  0.00    +0.000 A 
ATOM     20  C   UNL     1      -1.036   8.629  21.989  0.00  0.00    +0.000 A 
ATOM     21  C   UNL     1      -0.451   9.493  22.910  0.00  0.00    +0.000 A 
ATOM     22  C   UNL     1       0.931   9.647  22.926  0.00  0.00    +0.000 A 
ATOM     23  C   UNL     1       1.717   9.037  21.942  0.00  0.00    +0.000 A 
ENDBRANCH   5  18
BRANCH   1  24
ATOM     24  C   UNL     1       1.874  10.088  18.612  0.00  0.00    +0.000 C 
BRANCH  24  25
ATOM     25  C   UNL     1       0.382  10.469  18.645  0.00  0.00    +0.000 C 
BRANCH  25  26
ATOM     26  C   UNL     1      -0.575   9.627  17.785  0.00  0.00    +0.000 C 
BRANCH  26  27
ATOM     27  C   UNL     1      -2.061   9.855  18.078  0.00  0.00    +0.000 C 
BRANCH  27  28
ATOM     28  C   UNL     1      -2.893   9.822  16.788  0.00  0.00    +0.000 C 
BRANCH  28  29
ATOM     29  C   UNL     1      -2.890  11.162  16.053  0.00  0.00    +0.000 C 
BRANCH  29  30
ATOM     30  O   UNL     1      -2.778  10.939  14.645  0.00  0.00    +0.000 OA
BRANCH  30  31
ATOM     31  C   UNL     1      -3.790  10.022  14.186  0.00  0.00    +0.000 C 
BRANCH  31  33
ATOM     32  O   UNL     1      -4.436   9.728  11.862  0.00  0.00    +0.000 OA
ATOM     33  C   UNL     1      -3.565   9.743  12.712  0.00  0.00    +0.000 C 
BRANCH  33  34
ATOM     34  O   UNL     1      -2.251   9.507  12.433  0.00  0.00    +0.000 OA
ATOM     35  H   UNL     1      -1.754   9.583  13.278  0.00  0.00    +0.000 HD
ENDBRANCH  33  34
ENDBRANCH  31  33
ENDBRANCH  30  31
ENDBRANCH  29  30
ENDBRANCH  28  29
ENDBRANCH  27  28
ENDBRANCH  26  27
ENDBRANCH  25  26
ENDBRANCH  24  25
ENDBRANCH   1  24
TORSDOF 13
ENDMDL
MODEL 2
REMARK VINA RESULT:      -7.7      4.013      7.717
REMARK  Name = 
REMARK  13 active torsions:
REMARK  status: ('A' for Active; 'I' for Inactive)
REMARK    1  A    between atoms: C_2  and  O_3
REMARK    2  A    between atoms: C_2  and  C_4
REMARK    3  A    between atoms: C_4  and  O_5
REMARK    4  A    between atoms: O_5  and  C_6
REMARK    5  A    between atoms: C_6  and  C_7
REMARK    6  A    between atoms: C_7  and  C_8
REMARK    7  A    between atoms: C_8  and  C_9
REMARK    8  A    between atoms: C_9  and  C_10
REMARK    9  A    between atoms: C_10  and  C_11
REMARK   10  A    between atoms: C_11  and  N_12
REMARK   11  A    between atoms: C_14  and  C_15
REMARK   12  A    between atoms: C_21  and  C_22
REMARK   13  A    between atoms: C_28  and  C_29
REMARK                            x       y       z     vdW  Elec       q    Type
REMARK                         _______ _______ _______ _____ _____    ______ ____
ROOT
ATOM      1  N   UNL     1       2.787   7.147  17.955  0.00  0.00    +0.000 N 
ATOM      2  N   UNL     1       2.597   8.401  17.539  0.00  0.00    +0.000 NA
ATOM      3  C   UNL     1       1.922   9.009  18.529  0.00  0.00    +0.000 A 
ATOM      4  C   UNL     1       1.717   8.112  19.660  0.00  0.00    +0.000 A 
ATOM      5  C   UNL     1       2.169   6.864  19.168  0.00  0.00    +0.000 A 
ENDROOT
BRANCH   3   6
ATOM      6  C   UNL     1       1.579  10.427  18.375  0.00  0.00    +0.000 A 
ATOM      7  C   UNL     1       0.318  10.923  18.738  0.00  0.00    +0.000 A 
ATOM      8  C   UNL     1       0.135  12.296  18.948  0.00  0.00    +0.000 A 
ATOM      9  C   UNL     1       1.167  13.187  18.664  0.00  0.00    +0.000 A 
ATOM     10  C   UNL     1       2.359  12.712  18.118  0.00  0.00    +0.000 A 
ATOM     11  C   UNL     1       2.568  11.339  17.978  0.00  0.00    +0.000 A 
ENDBRANCH   3   6
BRANCH   4  12
ATOM     12  C   UNL     1       1.052   8.362  20.986  0.00  0.00    +0.000 A 
ATOM     13  C   UNL     1       1.743   8.835  22.106  0.00  0.00    +0.000 A 
ATOM     14  C   UNL     1       1.102   9.445  23.196  0.00  0.00    +0.000 A 
ATOM     15  C   UNL     1      -0.277   9.502  23.242  0.00  0.00    +0.000 A 
ATOM     16  C   UNL     1      -0.990   8.815  22.275  0.00  0.00    +0.000 A 
ATOM     17  C   UNL     1      -0.316   8.198  21.211  0.00  0.00    +0.000 A 
ENDBRANCH   4  12
BRANCH   5  18
ATOM     18  C   UNL     1       2.090   5.499  19.743  0.00  0.00    +0.000 A 
ATOM     19  C   UNL     1       1.377   4.491  19.070  0.00  0.00    +0.000 A 
ATOM     20  C   UNL     1       0.964   3.335  19.747  0.00  0.00    +0.000 A 
ATOM     21  C   UNL     1       1.383   3.105  21.053  0.00  0.00    +0.000 A 
ATOM     22  C   UNL     1       2.232   4.016  21.672  0.00  0.00    +0.000 A 
ATOM     23  C   UNL     1       2.559   5.218  21.033  0.00  0.00    +0.000 A 
ENDBRANCH   5  18
BRANCH   1  24
ATOM     24  C   UNL     1       3.570   6.237  17.129  0.00  0.00    +0.000 C 
BRANCH  24  25
ATOM     25  C   UNL     1       4.753   6.786  16.308  0.00  0.00    +0.000 C 
BRANCH  25  26
ATOM     26  C   UNL     1       5.640   5.760  15.585  0.00  0.00    +0.000 C 
BRANCH  26  27
ATOM     27  C   UNL     1       7.033   5.579  16.199  0.00  0.00    +0.000 C 
BRANCH  27  28
ATOM     28  C   UNL     1       7.225   6.493  17.417  0.00  0.00    +0.000 C 
BRANCH  28  29
ATOM     29  C   UNL     1       7.696   5.731  18.655  0.00  0.00    +0.000 C 
BRANCH  29  30
ATOM     30  O   UNL     1       7.046   4.458  18.714  0.00  0.00    +0.000 OA
BRANCH  30  31
ATOM     31  C   UNL     1       5.700   4.590  19.212  0.00  0.00    +0.000 C 
BRANCH  31  33
ATOM     32  O   UNL     1       4.317   3.129  17.850  0.00  0.00    +0.000 OA
ATOM     33  C   UNL     1       4.930   3.326  18.882  0.00  0.00    +0.000 C 
BRANCH  33  34
ATOM     34  O   UNL     1       5.001   2.410  19.890  0.00  0.00    +0.000 OA
ATOM     35  H   UNL     1       5.542   2.806  20.609  0.00  0.00    +0.000 HD
ENDBRANCH  33  34
ENDBRANCH  31  33
ENDBRANCH  30  31
ENDBRANCH  29  30
ENDBRANCH  28  29
ENDBRANCH  27  28
ENDBRANCH  26  27
ENDBRANCH  25  26
ENDBRANCH  24  25
ENDBRANCH   1  24
TORSDOF 13
ENDMDL
MODEL 3
REMARK VINA RESULT:      -7.4      1.893      2.690
REMARK  Name = 
REMARK  13 active torsions:
REMARK  status: ('A' for Active; 'I' for Inactive)
REMARK    1  A    between atoms: C_2  and  O_3
REMARK    2  A    between atoms: C_2  and  C_4
REMARK    3  A    between atoms: C_4  and  O_5
REMARK    4  A    between atoms: O_5  and  C_6
REMARK    5  A    between atoms: C_6  and  C_7
REMARK    6  A    between atoms: C_7  and  C_8
REMARK    7  A    between atoms: C_8  and  C_9
REMARK    8  A    between atoms: C_9  and  C_10
REMARK    9  A    between atoms: C_10  and  C_11
REMARK   10  A    between atoms: C_11  and  N_12
REMARK   11  A    between atoms: C_14  and  C_15
REMARK   12  A    between atoms: C_21  and  C_22
REMARK   13  A    between atoms: C_28  and  C_29
REMARK                            x       y       z     vdW  Elec       q    Type
REMARK                         _______ _______ _______ _____ _____    ______ ____
ROOT
ATOM      1  N   UNL     1       2.487   8.493  18.531  0.00  0.00    +0.000 N 
ATOM      2  N   UNL     1       3.279   7.953  17.604  0.00  0.00    +0.000 NA
ATOM      3  C   UNL     1       3.344   6.645  17.905  0.00  0.00    +0.000 A 
ATOM      4  C   UNL     1       2.507   6.323  19.054  0.00  0.00    +0.000 A 
ATOM      5  C   UNL     1       2.089   7.594  19.515  0.00  0.00    +0.000 A 
ENDROOT
BRANCH   3   6
ATOM      6  C   UNL     1       4.137   5.765  17.038  0.00  0.00    +0.000 A 
ATOM      7  C   UNL     1       5.085   6.277  16.140  0.00  0.00    +0.000 A 
ATOM      8  C   UNL     1       6.081   5.443  15.616  0.00  0.00    +0.000 A 
ATOM      9  C   UNL     1       6.051   4.074  15.876  0.00  0.00    +0.000 A 
ATOM     10  C   UNL     1       4.996   3.535  16.612  0.00  0.00    +0.000 A 
ATOM     11  C   UNL     1       4.046   4.375  17.194  0.00  0.00    +0.000 A 
ENDBRANCH   3   6
BRANCH   4  12
ATOM     12  C   UNL     1       2.244   4.999  19.719  0.00  0.00    +0.000 A 
ATOM     13  C   UNL     1       2.826   4.632  20.937  0.00  0.00    +0.000 A 
ATOM     14  C   UNL     1       2.305   3.617  21.755  0.00  0.00    +0.000 A 
ATOM     15  C   UNL     1       1.234   2.861  21.320  0.00  0.00    +0.000 A 
ATOM     16  C   UNL     1       0.804   3.031  20.016  0.00  0.00    +0.000 A 
ATOM     17  C   UNL     1       1.362   4.041  19.217  0.00  0.00    +0.000 A 
ENDBRANCH   4  12
BRANCH   5  18
ATOM     18  C   UNL     1       1.356   7.998  20.740  0.00  0.00    +0.000 A 
ATOM     19  C   UNL     1      -0.015   7.718  20.865  0.00  0.00    +0.000 A 
ATOM     20  C   UNL     1      -0.802   8.403  21.801  0.00  0.00    +0.000 A 
ATOM     21  C   UNL     1      -0.203   9.261  22.719  0.00  0.00    +0.000 A 
ATOM     22  C   UNL     1       1.179   9.415  22.715  0.00  0.00    +0.000 A 
ATOM     23  C   UNL     1       1.950   8.811  21.715  0.00  0.00    +0.000 A 
ENDBRANCH   5  18
BRANCH   1  24
ATOM     24  C   UNL     1       2.146   9.907  18.436  0.00  0.00    +0.000 C 
BRANCH  24  25
ATOM     25  C   UNL     1       0.739  10.317  17.961  0.00  0.00    +0.000 C 
BRANCH  25  26
ATOM     26  C   UNL     1      -0.198  10.946  19.006  0.00  0.00    +0.000 C 
BRANCH  26  27
ATOM     27  C   UNL     1      -1.659  10.496  18.904  0.00  0.00    +0.000 C 
BRANCH  27  28
ATOM     28  C   UNL     1      -2.018  10.101  17.464  0.00  0.00    +0.000 C 
BRANCH  28  29
ATOM     29  C   UNL     1      -2.777  11.203  16.726  0.00  0.00    +0.000 C 
BRANCH  29  30
ATOM     30  O   UNL     1      -3.827  11.706  17.558  0.00  0.00    +0.000 OA
BRANCH  30  31
ATOM     31  C   UNL     1      -5.021  10.913  17.415  0.00  0.00    +0.000 C 
BRANCH  31  33
ATOM     32  O   UNL     1      -5.841  12.217  19.295  0.00  0.00    +0.000 OA
ATOM     33  C   UNL     1      -6.004  11.309  18.500  0.00  0.00    +0.000 C 
BRANCH  33  34
ATOM     34  O   UNL     1      -7.118  10.522  18.490  0.00  0.00    +0.000 OA
ATOM     35  H   UNL     1      -6.959   9.782  19.117  0.00  0.00    +0.000 HD
ENDBRANCH  33  34
ENDBRANCH  31  33
ENDBRANCH  30  31
ENDBRANCH  29  30
ENDBRANCH  28  29
ENDBRANCH  27  28
ENDBRANCH  26  27
ENDBRANCH  25  26
ENDBRANCH  24  25
ENDBRANCH   1  24
TORSDOF 13
ENDMDL
MODEL 4
REMARK VINA RESULT:      -7.2      3.534      4.795
REMARK  Name = 
REMARK  13 active torsions:
REMARK  status: ('A' for Active; 'I' for Inactive)
REMARK    1  A    between atoms: C_2  and  O_3
REMARK    2  A    between atoms: C_2  and  C_4
REMARK    3  A    between atoms: C_4  and  O_5
REMARK    4  A    between atoms: O_5  and  C_6
REMARK    5  A    between atoms: C_6  and  C_7
REMARK    6  A    between atoms: C_7  and  C_8
REMARK    7  A    between atoms: C_8  and  C_9
REMARK    8  A    between atoms: C_9  and  C_10
REMARK    9  A    between atoms: C_10  and  C_11
REMARK   10  A    between atoms: C_11  and  N_12
REMARK   11  A    between atoms: C_14  and  C_15
REMARK   12  A    between atoms: C_21  and  C_22
REMARK   13  A    between atoms: C_28  and  C_29
REMARK                            x       y       z     vdW  Elec       q    Type
REMARK                         _______ _______ _______ _____ _____    ______ ____
ROOT
ATOM      1  N   UNL     1       2.265   8.667  18.698  0.00  0.00    +0.000 N 
ATOM      2  N   UNL     1       3.053   8.178  17.739  0.00  0.00    +0.000 NA
ATOM      3  C   UNL     1       3.170   6.866  18.003  0.00  0.00    +0.000 A 
ATOM      4  C   UNL     1       2.371   6.486  19.162  0.00  0.00    +0.000 A 
ATOM      5  C   UNL     1       1.922   7.730  19.666  0.00  0.00    +0.000 A 
ENDROOT
BRANCH   3   6
ATOM      6  C   UNL     1       3.972   6.037  17.095  0.00  0.00    +0.000 A 
ATOM      7  C   UNL     1       4.935   6.598  16.245  0.00  0.00    +0.000 A 
ATOM      8  C   UNL     1       5.935   5.792  15.685  0.00  0.00    +0.000 A 
ATOM      9  C   UNL     1       5.894   4.410  15.859  0.00  0.00    +0.000 A 
ATOM     10  C   UNL     1       4.825   3.833  16.545  0.00  0.00    +0.000 A 
ATOM     11  C   UNL     1       3.870   4.641  17.164  0.00  0.00    +0.000 A 
ENDBRANCH   3   6
BRANCH   4  12
ATOM     12  C   UNL     1       2.169   5.137  19.798  0.00  0.00    +0.000 A 
ATOM     13  C   UNL     1       2.796   4.757  20.989  0.00  0.00    +0.000 A 
ATOM     14  C   UNL     1       2.331   3.705  21.793  0.00  0.00    +0.000 A 
ATOM     15  C   UNL     1       1.273   2.925  21.365  0.00  0.00    +0.000 A 
ATOM     16  C   UNL     1       0.802   3.115  20.078  0.00  0.00    +0.000 A 
ATOM     17  C   UNL     1       1.306   4.164  19.293  0.00  0.00    +0.000 A 
ENDBRANCH   4  12
BRANCH   5  18
ATOM     18  C   UNL     1       1.205   8.076  20.918  0.00  0.00    +0.000 A 
ATOM     19  C   UNL     1      -0.173   7.823  21.034  0.00  0.00    +0.000 A 
ATOM     20  C   UNL     1      -0.937   8.469  22.015  0.00  0.00    +0.000 A 
ATOM     21  C   UNL     1      -0.313   9.254  22.980  0.00  0.00    +0.000 A 
ATOM     22  C   UNL     1       1.072   9.374  22.977  0.00  0.00    +0.000 A 
ATOM     23  C   UNL     1       1.823   8.813  21.937  0.00  0.00    +0.000 A 
ENDBRANCH   5  18
BRANCH   1  24
ATOM     24  C   UNL     1       1.874  10.070  18.649  0.00  0.00    +0.000 C 
BRANCH  24  25
ATOM     25  C   UNL     1       0.389  10.437  18.463  0.00  0.00    +0.000 C 
BRANCH  25  26
ATOM     26  C   UNL     1      -0.093  11.749  19.104  0.00  0.00    +0.000 C 
BRANCH  26  27
ATOM     27  C   UNL     1      -0.707  11.587  20.498  0.00  0.00    +0.000 C 
BRANCH  27  28
ATOM     28  C   UNL     1      -0.182  12.659  21.463  0.00  0.00    +0.000 C 
BRANCH  28  29
ATOM     29  C   UNL     1      -1.102  12.869  22.665  0.00  0.00    +0.000 C 
BRANCH  29  30
ATOM     30  O   UNL     1      -2.311  12.127  22.482  0.00  0.00    +0.000 OA
BRANCH  30  31
ATOM     31  C   UNL     1      -3.465  12.953  22.733  0.00  0.00    +0.000 C 
BRANCH  31  33
ATOM     32  O   UNL     1      -4.346  11.752  24.653  0.00  0.00    +0.000 OA
ATOM     33  C   UNL     1      -3.888  12.775  24.179  0.00  0.00    +0.000 C 
BRANCH  33  34
ATOM     34  O   UNL     1      -3.694  13.911  24.909  0.00  0.00    +0.000 OA
ATOM     35  H   UNL     1      -2.725  14.070  24.951  0.00  0.00    +0.000 HD
ENDBRANCH  33  34
ENDBRANCH  31  33
ENDBRANCH  30  31
ENDBRANCH  29  30
ENDBRANCH  28  29
ENDBRANCH  27  28
ENDBRANCH  26  27
ENDBRANCH  25  26
ENDBRANCH  24  25
ENDBRANCH   1  24
TORSDOF 13
ENDMDL
MODEL 5
REMARK VINA RESULT:      -7.2      1.112      1.699
REMARK  Name = 
REMARK  13 active torsions:
REMARK  status: ('A' for Active; 'I' for Inactive)
REMARK    1  A    between atoms: C_2  and  O_3
REMARK    2  A    between atoms: C_2  and  C_4
REMARK    3  A    between atoms: C_4  and  O_5
REMARK    4  A    between atoms: O_5  and  C_6
REMARK    5  A    between atoms: C_6  and  C_7
REMARK    6  A    between atoms: C_7  and  C_8
REMARK    7  A    between atoms: C_8  and  C_9
REMARK    8  A    between atoms: C_9  and  C_10
REMARK    9  A    between atoms: C_10  and  C_11
REMARK   10  A    between atoms: C_11  and  N_12
REMARK   11  A    between atoms: C_14  and  C_15
REMARK   12  A    between atoms: C_21  and  C_22
REMARK   13  A    between atoms: C_28  and  C_29
REMARK                            x       y       z     vdW  Elec       q    Type
REMARK                         _______ _______ _______ _____ _____    ______ ____
ROOT
ATOM      1  N   UNL     1       2.276   8.567  18.698  0.00  0.00    +0.000 N 
ATOM      2  N   UNL     1       3.091   8.025  17.791  0.00  0.00    +0.000 NA
ATOM      3  C   UNL     1       3.248   6.745  18.168  0.00  0.00    +0.000 A 
ATOM      4  C   UNL     1       2.449   6.438  19.348  0.00  0.00    +0.000 A 
ATOM      5  C   UNL     1       1.953   7.704  19.740  0.00  0.00    +0.000 A 
ENDROOT
BRANCH   3   6
ATOM      6  C   UNL     1       4.087   5.869  17.342  0.00  0.00    +0.000 A 
ATOM      7  C   UNL     1       3.949   4.473  17.376  0.00  0.00    +0.000 A 
ATOM      8  C   UNL     1       4.464   3.690  16.335  0.00  0.00    +0.000 A 
ATOM      9  C   UNL     1       5.232   4.279  15.334  0.00  0.00    +0.000 A 
ATOM     10  C   UNL     1       5.532   5.640  15.405  0.00  0.00    +0.000 A 
ATOM     11  C   UNL     1       4.960   6.433  16.401  0.00  0.00    +0.000 A 
ENDBRANCH   3   6
BRANCH   4  12
ATOM     12  C   UNL     1       2.284   5.142  20.096  0.00  0.00    +0.000 A 
ATOM     13  C   UNL     1       1.041   4.529  20.289  0.00  0.00    +0.000 A 
ATOM     14  C   UNL     1       0.904   3.170  20.611  0.00  0.00    +0.000 A 
ATOM     15  C   UNL     1       2.027   2.402  20.858  0.00  0.00    +0.000 A 
ATOM     16  C   UNL     1       3.252   3.042  20.926  0.00  0.00    +0.000 A 
ATOM     17  C   UNL     1       3.349   4.408  20.619  0.00  0.00    +0.000 A 
ENDBRANCH   4  12
BRANCH   5  18
ATOM     18  C   UNL     1       1.211   8.132  20.951  0.00  0.00    +0.000 A 
ATOM     19  C   UNL     1      -0.173   7.904  21.046  0.00  0.00    +0.000 A 
ATOM     20  C   UNL     1      -0.952   8.616  21.969  0.00  0.00    +0.000 A 
ATOM     21  C   UNL     1      -0.341   9.447  22.902  0.00  0.00    +0.000 A 
ATOM     22  C   UNL     1       1.046   9.548  22.928  0.00  0.00    +0.000 A 
ATOM     23  C   UNL     1       1.814   8.918  21.942  0.00  0.00    +0.000 A 
ENDBRANCH   5  18
BRANCH   1  24
ATOM     24  C   UNL     1       1.840   9.946  18.525  0.00  0.00    +0.000 C 
BRANCH  24  25
ATOM     25  C   UNL     1       0.339  10.252  18.367  0.00  0.00    +0.000 C 
BRANCH  25  26
ATOM     26  C   UNL     1      -0.305  11.166  19.422  0.00  0.00    +0.000 C 
BRANCH  26  27
ATOM     27  C   UNL     1      -0.768  12.526  18.889  0.00  0.00    +0.000 C 
BRANCH  27  28
ATOM     28  C   UNL     1      -2.201  12.840  19.340  0.00  0.00    +0.000 C 
BRANCH  28  29
ATOM     29  C   UNL     1      -3.153  11.662  19.132  0.00  0.00    +0.000 C 
BRANCH  29  30
ATOM     30  O   UNL     1      -3.839  11.811  17.886  0.00  0.00    +0.000 OA
BRANCH  30  31
ATOM     31  C   UNL     1      -3.874  10.563  17.166  0.00  0.00    +0.000 C 
BRANCH  31  33
ATOM     32  O   UNL     1      -3.780  10.341  14.748  0.00  0.00    +0.000 OA
ATOM     33  C   UNL     1      -3.305  10.783  15.778  0.00  0.00    +0.000 C 
BRANCH  33  34
ATOM     34  O   UNL     1      -2.177  11.550  15.806  0.00  0.00    +0.000 OA
ATOM     35  H   UNL     1      -1.421  10.952  16.000  0.00  0.00    +0.000 HD
ENDBRANCH  33  34
ENDBRANCH  31  33
ENDBRANCH  30  31
ENDBRANCH  29  30
ENDBRANCH  28  29
ENDBRANCH  27  28
ENDBRANCH  26  27
ENDBRANCH  25  26
ENDBRANCH  24  25
ENDBRANCH   1  24
TORSDOF 13
ENDMDL
MODEL 6
REMARK VINA RESULT:      -7.2      0.910      1.660
REMARK  Name = 
REMARK  13 active torsions:
REMARK  status: ('A' for Active; 'I' for Inactive)
REMARK    1  A    between atoms: C_2  and  O_3
REMARK    2  A    between atoms: C_2  and  C_4
REMARK    3  A    between atoms: C_4  and  O_5
REMARK    4  A    between atoms: O_5  and  C_6
REMARK    5  A    between atoms: C_6  and  C_7
REMARK    6  A    between atoms: C_7  and  C_8
REMARK    7  A    between atoms: C_8  and  C_9
REMARK    8  A    between atoms: C_9  and  C_10
REMARK    9  A    between atoms: C_10  and  C_11
REMARK   10  A    between atoms: C_11  and  N_12
REMARK   11  A    between atoms: C_14  and  C_15
REMARK   12  A    between atoms: C_21  and  C_22
REMARK   13  A    between atoms: C_28  and  C_29
REMARK                            x       y       z     vdW  Elec       q    Type
REMARK                         _______ _______ _______ _____ _____    ______ ____
ROOT
ATOM      1  N   UNL     1       2.223   8.678  18.496  0.00  0.00    +0.000 N 
ATOM      2  N   UNL     1       2.979   7.982  17.646  0.00  0.00    +0.000 NA
ATOM      3  C   UNL     1       2.993   6.726  18.122  0.00  0.00    +0.000 A 
ATOM      4  C   UNL     1       2.158   6.600  19.310  0.00  0.00    +0.000 A 
ATOM      5  C   UNL     1       1.801   7.940  19.597  0.00  0.00    +0.000 A 
ENDROOT
BRANCH   3   6
ATOM      6  C   UNL     1       3.737   5.703  17.378  0.00  0.00    +0.000 A 
ATOM      7  C   UNL     1       4.833   6.033  16.567  0.00  0.00    +0.000 A 
ATOM      8  C   UNL     1       5.748   5.045  16.183  0.00  0.00    +0.000 A 
ATOM      9  C   UNL     1       5.499   3.708  16.489  0.00  0.00    +0.000 A 
ATOM     10  C   UNL     1       4.310   3.357  17.128  0.00  0.00    +0.000 A 
ATOM     11  C   UNL     1       3.434   4.348  17.574  0.00  0.00    +0.000 A 
ENDBRANCH   3   6
BRANCH   4  12
ATOM     12  C   UNL     1       1.848   5.392  20.153  0.00  0.00    +0.000 A 
ATOM     13  C   UNL     1       0.773   4.538  19.889  0.00  0.00    +0.000 A 
ATOM     14  C   UNL     1       0.701   3.227  20.387  0.00  0.00    +0.000 A 
ATOM     15  C   UNL     1       1.666   2.768  21.263  0.00  0.00    +0.000 A 
ATOM     16  C   UNL     1       2.597   3.674  21.741  0.00  0.00    +0.000 A 
ATOM     17  C   UNL     1       2.626   4.983  21.237  0.00  0.00    +0.000 A 
ENDBRANCH   4  12
BRANCH   5  18
ATOM     18  C   UNL     1       1.102   8.538  20.761  0.00  0.00    +0.000 A 
ATOM     19  C   UNL     1       1.838   9.197  21.761  0.00  0.00    +0.000 A 
ATOM     20  C   UNL     1       1.277   9.426  23.025  0.00  0.00    +0.000 A 
ATOM     21  C   UNL     1      -0.065   9.138  23.255  0.00  0.00    +0.000 A 
ATOM     22  C   UNL     1      -0.848   8.644  22.218  0.00  0.00    +0.000 A 
ATOM     23  C   UNL     1      -0.263   8.319  20.988  0.00  0.00    +0.000 A 
ENDBRANCH   5  18
BRANCH   1  24
ATOM     24  C   UNL     1       1.941  10.079  18.212  0.00  0.00    +0.000 C 
BRANCH  24  25
ATOM     25  C   UNL     1       0.504  10.506  17.857  0.00  0.00    +0.000 C 
BRANCH  25  26
ATOM     26  C   UNL     1      -0.129  11.616  18.712  0.00  0.00    +0.000 C 
BRANCH  26  27
ATOM     27  C   UNL     1      -1.521  11.283  19.259  0.00  0.00    +0.000 C 
BRANCH  27  28
ATOM     28  C   UNL     1      -2.372  10.559  18.206  0.00  0.00    +0.000 C 
BRANCH  28  29
ATOM     29  C   UNL     1      -3.489  11.440  17.648  0.00  0.00    +0.000 C 
BRANCH  29  30
ATOM     30  O   UNL     1      -3.527  11.326  16.222  0.00  0.00    +0.000 OA
BRANCH  30  31
ATOM     31  C   UNL     1      -3.020  10.046  15.795  0.00  0.00    +0.000 C 
BRANCH  31  33
ATOM     32  O   UNL     1      -2.399   9.801  13.458  0.00  0.00    +0.000 OA
ATOM     33  C   UNL     1      -3.267   9.895  14.306  0.00  0.00    +0.000 C 
BRANCH  33  34
ATOM     34  O   UNL     1      -4.599   9.874  14.011  0.00  0.00    +0.000 OA
ATOM     35  H   UNL     1      -4.681   9.848  13.031  0.00  0.00    +0.000 HD
ENDBRANCH  33  34
ENDBRANCH  31  33
ENDBRANCH  30  31
ENDBRANCH  29  30
ENDBRANCH  28  29
ENDBRANCH  27  28
ENDBRANCH  26  27
ENDBRANCH  25  26
ENDBRANCH  24  25
ENDBRANCH   1  24
TORSDOF 13
ENDMDL
MODEL 7
REMARK VINA RESULT:      -7.2      1.698      2.339
REMARK  Name = 
REMARK  13 active torsions:
REMARK  status: ('A' for Active; 'I' for Inactive)
REMARK    1  A    between atoms: C_2  and  O_3
REMARK    2  A    between atoms: C_2  and  C_4
REMARK    3  A    between atoms: C_4  and  O_5
REMARK    4  A    between atoms: O_5  and  C_6
REMARK    5  A    between atoms: C_6  and  C_7
REMARK    6  A    between atoms: C_7  and  C_8
REMARK    7  A    between atoms: C_8  and  C_9
REMARK    8  A    between atoms: C_9  and  C_10
REMARK    9  A    between atoms: C_10  and  C_11
REMARK   10  A    between atoms: C_11  and  N_12
REMARK   11  A    between atoms: C_14  and  C_15
REMARK   12  A    between atoms: C_21  and  C_22
REMARK   13  A    between atoms: C_28  and  C_29
REMARK                            x       y       z     vdW  Elec       q    Type
REMARK                         _______ _______ _______ _____ _____    ______ ____
ROOT
ATOM      1  N   UNL     1       2.209   8.582  18.857  0.00  0.00    +0.000 N 
ATOM      2  N   UNL     1       2.959   7.988  17.926  0.00  0.00    +0.000 NA
ATOM      3  C   UNL     1       2.985   6.688  18.261  0.00  0.00    +0.000 A 
ATOM      4  C   UNL     1       2.164   6.426  19.437  0.00  0.00    +0.000 A 
ATOM      5  C   UNL     1       1.803   7.724  19.873  0.00  0.00    +0.000 A 
ENDROOT
BRANCH   3   6
ATOM      6  C   UNL     1       3.725   5.757  17.401  0.00  0.00    +0.000 A 
ATOM      7  C   UNL     1       4.752   6.197  16.554  0.00  0.00    +0.000 A 
ATOM      8  C   UNL     1       5.685   5.284  16.045  0.00  0.00    +0.000 A 
ATOM      9  C   UNL     1       5.514   3.919  16.265  0.00  0.00    +0.000 A 
ATOM     10  C   UNL     1       4.384   3.466  16.945  0.00  0.00    +0.000 A 
ATOM     11  C   UNL     1       3.495   4.379  17.514  0.00  0.00    +0.000 A 
ENDBRANCH   3   6
BRANCH   4  12
ATOM     12  C   UNL     1       1.870   5.131  20.145  0.00  0.00    +0.000 A 
ATOM     13  C   UNL     1       0.852   4.260  19.743  0.00  0.00    +0.000 A 
ATOM     14  C   UNL     1       0.819   2.906  20.112  0.00  0.00    +0.000 A 
ATOM     15  C   UNL     1       1.758   2.407  20.994  0.00  0.00    +0.000 A 
ATOM     16  C   UNL     1       2.617   3.303  21.606  0.00  0.00    +0.000 A 
ATOM     17  C   UNL     1       2.609   4.655  21.228  0.00  0.00    +0.000 A 
ENDBRANCH   4  12
BRANCH   5  18
ATOM     18  C   UNL     1       1.115   8.186  21.104  0.00  0.00    +0.000 A 
ATOM     19  C   UNL     1      -0.283   8.077  21.212  0.00  0.00    +0.000 A 
ATOM     20  C   UNL     1      -0.986   8.832  22.161  0.00  0.00    +0.000 A 
ATOM     21  C   UNL     1      -0.294   9.585  23.104  0.00  0.00    +0.000 A 
ATOM     22  C   UNL     1       1.096   9.565  23.113  0.00  0.00    +0.000 A 
ATOM     23  C   UNL     1       1.795   8.894  22.103  0.00  0.00    +0.000 A 
ENDBRANCH   5  18
BRANCH   1  24
ATOM     24  C   UNL     1       1.916  10.004  18.731  0.00  0.00    +0.000 C 
BRANCH  24  25
ATOM     25  C   UNL     1       0.461  10.462  18.516  0.00  0.00    +0.000 C 
BRANCH  25  26
ATOM     26  C   UNL     1       0.085  11.862  19.029  0.00  0.00    +0.000 C 
BRANCH  26  27
ATOM     27  C   UNL     1      -0.893  11.866  20.209  0.00  0.00    +0.000 C 
BRANCH  27  28
ATOM     28  C   UNL     1      -2.003  12.906  20.005  0.00  0.00    +0.000 C 
BRANCH  28  29
ATOM     29  C   UNL     1      -3.329  12.274  19.583  0.00  0.00    +0.000 C 
BRANCH  29  30
ATOM     30  O   UNL     1      -3.089  11.254  18.611  0.00  0.00    +0.000 OA
BRANCH  30  31
ATOM     31  C   UNL     1      -4.325  10.801  18.024  0.00  0.00    +0.000 C 
BRANCH  31  33
ATOM     32  O   UNL     1      -5.679  12.413  16.811  0.00  0.00    +0.000 OA
ATOM     33  C   UNL     1      -4.682  11.716  16.870  0.00  0.00    +0.000 C 
BRANCH  33  34
ATOM     34  O   UNL     1      -3.745  11.677  15.879  0.00  0.00    +0.000 OA
ATOM     35  H   UNL     1      -3.549  10.730  15.700  0.00  0.00    +0.000 HD
ENDBRANCH  33  34
ENDBRANCH  31  33
ENDBRANCH  30  31
ENDBRANCH  29  30
ENDBRANCH  28  29
ENDBRANCH  27  28
ENDBRANCH  26  27
ENDBRANCH  25  26
ENDBRANCH  24  25
ENDBRANCH   1  24
TORSDOF 13
ENDMDL
MODEL 8
REMARK VINA RESULT:      -7.2      3.212      4.138
REMARK  Name = 
REMARK  13 active torsions:
REMARK  status: ('A' for Active; 'I' for Inactive)
REMARK    1  A    between atoms: C_2  and  O_3
REMARK    2  A    between atoms: C_2  and  C_4
REMARK    3  A    between atoms: C_4  and  O_5
REMARK    4  A    between atoms: O_5  and  C_6
REMARK    5  A    between atoms: C_6  and  C_7
REMARK    6  A    between atoms: C_7  and  C_8
REMARK    7  A    between atoms: C_8  and  C_9
REMARK    8  A    between atoms: C_9  and  C_10
REMARK    9  A    between atoms: C_10  and  C_11
REMARK   10  A    between atoms: C_11  and  N_12
REMARK   11  A    between atoms: C_14  and  C_15
REMARK   12  A    between atoms: C_21  and  C_22
REMARK   13  A    between atoms: C_28  and  C_29
REMARK                            x       y       z     vdW  Elec       q    Type
REMARK                         _______ _______ _______ _____ _____    ______ ____
ROOT
ATOM      1  N   UNL     1       2.230   8.571  18.735  0.00  0.00    +0.000 N 
ATOM      2  N   UNL     1       3.042   8.023  17.830  0.00  0.00    +0.000 NA
ATOM      3  C   UNL     1       3.194   6.744  18.210  0.00  0.00    +0.000 A 
ATOM      4  C   UNL     1       2.394   6.444  19.392  0.00  0.00    +0.000 A 
ATOM      5  C   UNL     1       1.904   7.714  19.780  0.00  0.00    +0.000 A 
ENDROOT
BRANCH   3   6
ATOM      6  C   UNL     1       4.029   5.862  17.387  0.00  0.00    +0.000 A 
ATOM      7  C   UNL     1       3.832   4.473  17.365  0.00  0.00    +0.000 A 
ATOM      8  C   UNL     1       4.356   3.705  16.317  0.00  0.00    +0.000 A 
ATOM      9  C   UNL     1       5.188   4.295  15.369  0.00  0.00    +0.000 A 
ATOM     10  C   UNL     1       5.541   5.638  15.501  0.00  0.00    +0.000 A 
ATOM     11  C   UNL     1       4.962   6.420  16.502  0.00  0.00    +0.000 A 
ENDBRANCH   3   6
BRANCH   4  12
ATOM     12  C   UNL     1       2.224   5.152  20.144  0.00  0.00    +0.000 A 
ATOM     13  C   UNL     1       0.988   4.515  20.292  0.00  0.00    +0.000 A 
ATOM     14  C   UNL     1       0.865   3.156  20.621  0.00  0.00    +0.000 A 
ATOM     15  C   UNL     1       1.991   2.414  20.920  0.00  0.00    +0.000 A 
ATOM     16  C   UNL     1       3.199   3.079  21.033  0.00  0.00    +0.000 A 
ATOM     17  C   UNL     1       3.282   4.444  20.717  0.00  0.00    +0.000 A 
ENDBRANCH   4  12
BRANCH   5  18
ATOM     18  C   UNL     1       1.164   8.149  20.990  0.00  0.00    +0.000 A 
ATOM     19  C   UNL     1      -0.226   7.955  21.074  0.00  0.00    +0.000 A 
ATOM     20  C   UNL     1      -0.993   8.678  21.998  0.00  0.00    +0.000 A 
ATOM     21  C   UNL     1      -0.368   9.484  22.944  0.00  0.00    +0.000 A 
ATOM     22  C   UNL     1       1.021   9.549  22.980  0.00  0.00    +0.000 A 
ATOM     23  C   UNL     1       1.780   8.909  21.993  0.00  0.00    +0.000 A 
ENDBRANCH   5  18
BRANCH   1  24
ATOM     24  C   UNL     1       1.799   9.952  18.558  0.00  0.00    +0.000 C 
BRANCH  24  25
ATOM     25  C   UNL     1       0.306  10.258  18.335  0.00  0.00    +0.000 C 
BRANCH  25  26
ATOM     26  C   UNL     1      -0.374  11.200  19.342  0.00  0.00    +0.000 C 
BRANCH  26  27
ATOM     27  C   UNL     1       0.594  12.044  20.177  0.00  0.00    +0.000 C 
BRANCH  27  28
ATOM     28  C   UNL     1       0.122  13.502  20.267  0.00  0.00    +0.000 C 
BRANCH  28  29
ATOM     29  C   UNL     1       0.667  14.366  19.130  0.00  0.00    +0.000 C 
BRANCH  29  30
ATOM     30  O   UNL     1       1.980  13.923  18.774  0.00  0.00    +0.000 OA
BRANCH  30  31
ATOM     31  C   UNL     1       2.977  14.871  19.204  0.00  0.00    +0.000 C 
BRANCH  31  33
ATOM     32  O   UNL     1       3.143  17.039  18.119  0.00  0.00    +0.000 OA
ATOM     33  C   UNL     1       3.263  15.829  18.064  0.00  0.00    +0.000 C 
BRANCH  33  34
ATOM     34  O   UNL     1       3.683  15.176  16.942  0.00  0.00    +0.000 OA
ATOM     35  H   UNL     1       3.070  15.421  16.214  0.00  0.00    +0.000 HD
ENDBRANCH  33  34
ENDBRANCH  31  33
ENDBRANCH  30  31
ENDBRANCH  29  30
ENDBRANCH  28  29
ENDBRANCH  27  28
ENDBRANCH  26  27
ENDBRANCH  25  26
ENDBRANCH  24  25
ENDBRANCH   1  24
TORSDOF 13
ENDMDL
MODEL 9
REMARK VINA RESULT:      -7.2      3.762      7.561
REMARK  Name = 
REMARK  13 active torsions:
REMARK  status: ('A' for Active; 'I' for Inactive)
REMARK    1  A    between atoms: C_2  and  O_3
REMARK    2  A    between atoms: C_2  and  C_4
REMARK    3  A    between atoms: C_4  and  O_5
REMARK    4  A    between atoms: O_5  and  C_6
REMARK    5  A    between atoms: C_6  and  C_7
REMARK    6  A    between atoms: C_7  and  C_8
REMARK    7  A    between atoms: C_8  and  C_9
REMARK    8  A    between atoms: C_9  and  C_10
REMARK    9  A    between atoms: C_10  and  C_11
REMARK   10  A    between atoms: C_11  and  N_12
REMARK   11  A    between atoms: C_14  and  C_15
REMARK   12  A    between atoms: C_21  and  C_22
REMARK   13  A    between atoms: C_28  and  C_29
REMARK                            x       y       z     vdW  Elec       q    Type
REMARK                         _______ _______ _______ _____ _____    ______ ____
ROOT
ATOM      1  N   UNL     1       2.925   7.337  17.966  0.00  0.00    +0.000 N 
ATOM      2  N   UNL     1       2.710   8.591  17.564  0.00  0.00    +0.000 NA
ATOM      3  C   UNL     1       1.968   9.156  18.531  0.00  0.00    +0.000 A 
ATOM      4  C   UNL     1       1.742   8.230  19.635  0.00  0.00    +0.000 A 
ATOM      5  C   UNL     1       2.261   7.009  19.144  0.00  0.00    +0.000 A 
ENDROOT
BRANCH   3   6
ATOM      6  C   UNL     1       1.582  10.564  18.386  0.00  0.00    +0.000 A 
ATOM      7  C   UNL     1       0.301  11.015  18.735  0.00  0.00    +0.000 A 
ATOM      8  C   UNL     1       0.071  12.379  18.956  0.00  0.00    +0.000 A 
ATOM      9  C   UNL     1       1.078  13.306  18.696  0.00  0.00    +0.000 A 
ATOM     10  C   UNL     1       2.292  12.875  18.164  0.00  0.00    +0.000 A 
ATOM     11  C   UNL     1       2.547  11.511  18.013  0.00  0.00    +0.000 A 
ENDBRANCH   3   6
BRANCH   4  12
ATOM     12  C   UNL     1       1.006   8.432  20.932  0.00  0.00    +0.000 A 
ATOM     13  C   UNL     1       1.627   8.904  22.093  0.00  0.00    +0.000 A 
ATOM     14  C   UNL     1       0.915   9.471  23.162  0.00  0.00    +0.000 A 
ATOM     15  C   UNL     1      -0.467   9.480  23.142  0.00  0.00    +0.000 A 
ATOM     16  C   UNL     1      -1.109   8.790  22.130  0.00  0.00    +0.000 A 
ATOM     17  C   UNL     1      -0.364   8.217  21.087  0.00  0.00    +0.000 A 
ENDBRANCH   4  12
BRANCH   5  18
ATOM     18  C   UNL     1       2.204   5.631  19.690  0.00  0.00    +0.000 A 
ATOM     19  C   UNL     1       1.579   4.607  18.956  0.00  0.00    +0.000 A 
ATOM     20  C   UNL     1       1.173   3.423  19.585  0.00  0.00    +0.000 A 
ATOM     21  C   UNL     1       1.518   3.185  20.912  0.00  0.00    +0.000 A 
ATOM     22  C   UNL     1       2.286   4.119  21.600  0.00  0.00    +0.000 A 
ATOM     23  C   UNL     1       2.602   5.345  21.003  0.00  0.00    +0.000 A 
ENDBRANCH   5  18
BRANCH   1  24
ATOM     24  C   UNL     1       3.779   6.471  17.163  0.00  0.00    +0.000 C 
BRANCH  24  25
ATOM     25  C   UNL     1       4.998   5.792  17.815  0.00  0.00    +0.000 C 
BRANCH  25  26
ATOM     26  C   UNL     1       5.194   4.291  17.541  0.00  0.00    +0.000 C 
BRANCH  26  27
ATOM     27  C   UNL     1       5.393   3.935  16.065  0.00  0.00    +0.000 C 
BRANCH  27  28
ATOM     28  C   UNL     1       6.819   4.265  15.602  0.00  0.00    +0.000 C 
BRANCH  28  29
ATOM     29  C   UNL     1       6.863   4.794  14.169  0.00  0.00    +0.000 C 
BRANCH  29  30
ATOM     30  O   UNL     1       5.887   4.115  13.374  0.00  0.00    +0.000 OA
BRANCH  30  31
ATOM     31  C   UNL     1       6.512   3.408  12.285  0.00  0.00    +0.000 C 
BRANCH  31  33
ATOM     32  O   UNL     1       5.687   1.359  11.273  0.00  0.00    +0.000 OA
ATOM     33  C   UNL     1       5.484   2.502  11.636  0.00  0.00    +0.000 C 
BRANCH  33  34
ATOM     34  O   UNL     1       4.275   3.120  11.500  0.00  0.00    +0.000 OA
ATOM     35  H   UNL     1       3.639   2.449  11.165  0.00  0.00    +0.000 HD
ENDBRANCH  33  34
ENDBRANCH  31  33
ENDBRANCH  30  31
ENDBRANCH  29  30
ENDBRANCH  28  29
ENDBRANCH  27  28
ENDBRANCH  26  27
ENDBRANCH  25  26
ENDBRANCH  24  25
ENDBRANCH   1  24
TORSDOF 13
ENDMDL
