MODEL 1
REMARK VINA RESULT:      -8.6      0.000      0.000
REMARK  Name = 
REMARK  8 active torsions:
REMARK  status: ('A' for Active; 'I' for Inactive)
REMARK    1  A    between atoms: C_2  and  C_3
REMARK    2  A    between atoms: C_4  and  C_5
REMARK    3  A    between atoms: C_18  and  O_19
REMARK    4  A    between atoms: O_19  and  S_20
REMARK    5  A    between atoms: S_20  and  C_23
REMARK    6  A    between atoms: C_23  and  C_24
REMARK    7  A    between atoms: C_24  and  C_25
REMARK    8  A    between atoms: C_25  and  C_26
REMARK                            x       y       z     vdW  Elec       q    Type
REMARK                         _______ _______ _______ _____ _____    ______ ____
ROOT
ATOM      1  C   UNL     1       1.333   8.605  20.050  0.00  0.00    +0.000 A 
ATOM      2  C   UNL     1       1.401   9.597  19.059  0.00  0.00    +0.000 A 
ATOM      3  C   UNL     1       2.055   9.307  17.842  0.00  0.00    +0.000 A 
ATOM      4  C   UNL     1       2.643   8.052  17.587  0.00  0.00    +0.000 A 
ATOM      5  C   UNL     1       2.576   7.053  18.576  0.00  0.00    +0.000 A 
ATOM      6  C   UNL     1       1.923   7.369  19.766  0.00  0.00    +0.000 A 
ATOM      7  O   UNL     1       1.945   6.304  20.608  0.00  0.00    +0.000 OA
ATOM      8  C   UNL     1       2.606   5.303  19.978  0.00  0.00    +0.000 A 
ATOM      9  C   UNL     1       2.824   4.054  20.548  0.00  0.00    +0.000 A 
ATOM     10  C   UNL     1       3.515   3.136  19.770  0.00  0.00    +0.000 A 
ATOM     11  C   UNL     1       3.961   3.475  18.490  0.00  0.00    +0.000 A 
ATOM     12  C   UNL     1       3.756   4.759  17.932  0.00  0.00    +0.000 A 
ATOM     13  C   UNL     1       3.031   5.697  18.709  0.00  0.00    +0.000 A 
ENDROOT
BRANCH   2  14
ATOM     14  C   UNL     1       0.797  10.971  19.248  0.00  0.00    +0.000 C 
ATOM     15  F   UNL     1       1.040  11.854  18.246  0.00  0.00    +0.000 F 
ATOM     16  F   UNL     1      -0.557  10.917  19.371  0.00  0.00    +0.000 F 
ATOM     17  F   UNL     1       1.251  11.570  20.385  0.00  0.00    +0.000 F 
ENDBRANCH   2  14
BRANCH   1  19
ATOM     18  N   UNL     1       0.183   8.895  22.352  0.00  0.00    +0.000 NA
ATOM     19  C   UNL     1       0.705   8.759  21.327  0.00  0.00    +0.000 C 
ENDBRANCH   1  19
BRANCH  12  20
ATOM     20  O   UNL     1       4.225   5.100  16.666  0.00  0.00    +0.000 OA
BRANCH  20  21
ATOM     21  S   UNL     1       5.658   5.891  16.532  0.00  0.00    +0.000 S 
ATOM     22  O   UNL     1       5.524   6.923  15.520  0.00  0.00    +0.000 OA
ATOM     23  O   UNL     1       6.171   6.184  17.856  0.00  0.00    +0.000 OA
BRANCH  21  24
ATOM     24  C   UNL     1       6.702   4.591  15.849  0.00  0.00    +0.000 C 
BRANCH  24  25
ATOM     25  C   UNL     1       6.574   4.637  14.318  0.00  0.00    +0.000 C 
BRANCH  25  26
ATOM     26  C   UNL     1       5.573   3.649  13.725  0.00  0.00    +0.000 C 
BRANCH  26  27
ATOM     27  C   UNL     1       5.806   3.427  12.233  0.00  0.00    +0.000 C 
ATOM     28  F   UNL     1       4.775   3.859  11.477  0.00  0.00    +0.000 F 
ATOM     29  F   UNL     1       6.914   4.080  11.819  0.00  0.00    +0.000 F 
ATOM     30  F   UNL     1       5.984   2.114  11.967  0.00  0.00    +0.000 F 
ENDBRANCH  26  27
ENDBRANCH  25  26
ENDBRANCH  24  25
ENDBRANCH  21  24
ENDBRANCH  20  21
ENDBRANCH  12  20
TORSDOF 8
ENDMDL
MODEL 2
REMARK VINA RESULT:      -8.4      0.528      1.067
REMARK  Name = 
REMARK  8 active torsions:
REMARK  status: ('A' for Active; 'I' for Inactive)
REMARK    1  A    between atoms: C_2  and  C_3
REMARK    2  A    between atoms: C_4  and  C_5
REMARK    3  A    between atoms: C_18  and  O_19
REMARK    4  A    between atoms: O_19  and  S_20
REMARK    5  A    between atoms: S_20  and  C_23
REMARK    6  A    between atoms: C_23  and  C_24
REMARK    7  A    between atoms: C_24  and  C_25
REMARK    8  A    between atoms: C_25  and  C_26
REMARK                            x       y       z     vdW  Elec       q    Type
REMARK                         _______ _______ _______ _____ _____    ______ ____
ROOT
ATOM      1  C   UNL     1       1.243   8.825  20.256  0.00  0.00    +0.000 A 
ATOM      2  C   UNL     1       1.391   9.784  19.241  0.00  0.00    +0.000 A 
ATOM      3  C   UNL     1       2.033   9.416  18.039  0.00  0.00    +0.000 A 
ATOM      4  C   UNL     1       2.531   8.117  17.822  0.00  0.00    +0.000 A 
ATOM      5  C   UNL     1       2.384   7.151  18.834  0.00  0.00    +0.000 A 
ATOM      6  C   UNL     1       1.746   7.543  20.010  0.00  0.00    +0.000 A 
ATOM      7  O   UNL     1       1.683   6.501  20.878  0.00  0.00    +0.000 OA
ATOM      8  C   UNL     1       2.275   5.439  20.280  0.00  0.00    +0.000 A 
ATOM      9  C   UNL     1       2.398   4.193  20.884  0.00  0.00    +0.000 A 
ATOM     10  C   UNL     1       3.028   3.208  20.137  0.00  0.00    +0.000 A 
ATOM     11  C   UNL     1       3.509   3.481  18.854  0.00  0.00    +0.000 A 
ATOM     12  C   UNL     1       3.401   4.761  18.261  0.00  0.00    +0.000 A 
ATOM     13  C   UNL     1       2.739   5.769  19.007  0.00  0.00    +0.000 A 
ENDROOT
BRANCH   2  14
ATOM     14  C   UNL     1       0.886  11.202  19.390  0.00  0.00    +0.000 C 
ATOM     15  F   UNL     1       1.300  11.850  20.508  0.00  0.00    +0.000 F 
ATOM     16  F   UNL     1       1.268  11.988  18.346  0.00  0.00    +0.000 F 
ATOM     17  F   UNL     1      -0.475  11.254  19.416  0.00  0.00    +0.000 F 
ENDBRANCH   2  14
BRANCH   1  19
ATOM     18  N   UNL     1       0.128   9.250  22.554  0.00  0.00    +0.000 NA
ATOM     19  C   UNL     1       0.617   9.056  21.522  0.00  0.00    +0.000 C 
ENDBRANCH   1  19
BRANCH  12  20
ATOM     20  O   UNL     1       3.905   5.035  16.992  0.00  0.00    +0.000 OA
BRANCH  20  21
ATOM     21  S   UNL     1       5.406   5.687  16.852  0.00  0.00    +0.000 S 
ATOM     22  O   UNL     1       5.369   6.721  15.835  0.00  0.00    +0.000 OA
ATOM     23  O   UNL     1       5.946   5.938  18.174  0.00  0.00    +0.000 OA
BRANCH  21  24
ATOM     24  C   UNL     1       6.322   4.290  16.176  0.00  0.00    +0.000 C 
BRANCH  24  25
ATOM     25  C   UNL     1       5.832   4.054  14.739  0.00  0.00    +0.000 C 
BRANCH  25  26
ATOM     26  C   UNL     1       6.881   4.284  13.654  0.00  0.00    +0.000 C 
BRANCH  26  27
ATOM     27  C   UNL     1       6.440   3.721  12.305  0.00  0.00    +0.000 C 
ATOM     28  F   UNL     1       7.001   4.371  11.264  0.00  0.00    +0.000 F 
ATOM     29  F   UNL     1       6.776   2.416  12.199  0.00  0.00    +0.000 F 
ATOM     30  F   UNL     1       5.099   3.808  12.167  0.00  0.00    +0.000 F 
ENDBRANCH  26  27
ENDBRANCH  25  26
ENDBRANCH  24  25
ENDBRANCH  21  24
ENDBRANCH  20  21
ENDBRANCH  12  20
TORSDOF 8
ENDMDL
MODEL 3
REMARK VINA RESULT:      -8.2      1.507      2.069
REMARK  Name = 
REMARK  8 active torsions:
REMARK  status: ('A' for Active; 'I' for Inactive)
REMARK    1  A    between atoms: C_2  and  C_3
REMARK    2  A    between atoms: C_4  and  C_5
REMARK    3  A    between atoms: C_18  and  O_19
REMARK    4  A    between atoms: O_19  and  S_20
REMARK    5  A    between atoms: S_20  and  C_23
REMARK    6  A    between atoms: C_23  and  C_24
REMARK    7  A    between atoms: C_24  and  C_25
REMARK    8  A    between atoms: C_25  and  C_26
REMARK                            x       y       z     vdW  Elec       q    Type
REMARK                         _______ _______ _______ _____ _____    ______ ____
ROOT
ATOM      1  C   UNL     1       1.424   8.003  19.886  0.00  0.00    +0.000 A 
ATOM      2  C   UNL     1       1.857   8.867  18.868  0.00  0.00    +0.000 A 
ATOM      3  C   UNL     1       2.865   8.431  17.982  0.00  0.00    +0.000 A 
ATOM      4  C   UNL     1       3.454   7.156  18.083  0.00  0.00    +0.000 A 
ATOM      5  C   UNL     1       3.023   6.284  19.100  0.00  0.00    +0.000 A 
ATOM      6  C   UNL     1       2.025   6.742  19.960  0.00  0.00    +0.000 A 
ATOM      7  O   UNL     1       1.724   5.787  20.876  0.00  0.00    +0.000 OA
ATOM      8  C   UNL     1       2.516   4.717  20.622  0.00  0.00    +0.000 A 
ATOM      9  C   UNL     1       2.482   3.546  21.372  0.00  0.00    +0.000 A 
ATOM     10  C   UNL     1       3.355   2.541  20.980  0.00  0.00    +0.000 A 
ATOM     11  C   UNL     1       4.214   2.723  19.893  0.00  0.00    +0.000 A 
ATOM     12  C   UNL     1       4.257   3.929  19.155  0.00  0.00    +0.000 A 
ATOM     13  C   UNL     1       3.353   4.954  19.533  0.00  0.00    +0.000 A 
ENDROOT
BRANCH   2  14
ATOM     14  C   UNL     1       1.280  10.254  18.686  0.00  0.00    +0.000 C 
ATOM     15  F   UNL     1       1.175  10.991  19.821  0.00  0.00    +0.000 F 
ATOM     16  F   UNL     1       2.023  11.003  17.827  0.00  0.00    +0.000 F 
ATOM     17  F   UNL     1       0.025  10.213  18.156  0.00  0.00    +0.000 F 
ENDBRANCH   2  14
BRANCH   1  19
ATOM     18  N   UNL     1      -0.397   8.578  21.635  0.00  0.00    +0.000 NA
ATOM     19  C   UNL     1       0.415   8.310  20.854  0.00  0.00    +0.000 C 
ENDBRANCH   1  19
BRANCH  12  20
ATOM     20  O   UNL     1       5.133   4.114  18.089  0.00  0.00    +0.000 OA
BRANCH  20  21
ATOM     21  S   UNL     1       6.589   4.821  18.365  0.00  0.00    +0.000 S 
ATOM     22  O   UNL     1       6.657   5.210  19.762  0.00  0.00    +0.000 OA
ATOM     23  O   UNL     1       7.633   4.029  17.743  0.00  0.00    +0.000 OA
BRANCH  21  24
ATOM     24  C   UNL     1       6.428   6.325  17.388  0.00  0.00    +0.000 C 
BRANCH  24  25
ATOM     25  C   UNL     1       6.770   5.982  15.930  0.00  0.00    +0.000 C 
BRANCH  25  26
ATOM     26  C   UNL     1       5.584   5.532  15.079  0.00  0.00    +0.000 C 
BRANCH  26  27
ATOM     27  C   UNL     1       5.901   4.270  14.280  0.00  0.00    +0.000 C 
ATOM     28  F   UNL     1       6.085   3.191  15.069  0.00  0.00    +0.000 F 
ATOM     29  F   UNL     1       4.896   3.981  13.424  0.00  0.00    +0.000 F 
ATOM     30  F   UNL     1       7.024   4.437  13.548  0.00  0.00    +0.000 F 
ENDBRANCH  26  27
ENDBRANCH  25  26
ENDBRANCH  24  25
ENDBRANCH  21  24
ENDBRANCH  20  21
ENDBRANCH  12  20
TORSDOF 8
ENDMDL
MODEL 4
REMARK VINA RESULT:      -8.2      1.466      1.987
REMARK  Name = 
REMARK  8 active torsions:
REMARK  status: ('A' for Active; 'I' for Inactive)
REMARK    1  A    between atoms: C_2  and  C_3
REMARK    2  A    between atoms: C_4  and  C_5
REMARK    3  A    between atoms: C_18  and  O_19
REMARK    4  A    between atoms: O_19  and  S_20
REMARK    5  A    between atoms: S_20  and  C_23
REMARK    6  A    between atoms: C_23  and  C_24
REMARK    7  A    between atoms: C_24  and  C_25
REMARK    8  A    between atoms: C_25  and  C_26
REMARK                            x       y       z     vdW  Elec       q    Type
REMARK                         _______ _______ _______ _____ _____    ______ ____
ROOT
ATOM      1  C   UNL     1       1.253   7.968  20.090  0.00  0.00    +0.000 A 
ATOM      2  C   UNL     1       1.636   8.905  19.118  0.00  0.00    +0.000 A 
ATOM      3  C   UNL     1       2.648   8.562  18.195  0.00  0.00    +0.000 A 
ATOM      4  C   UNL     1       3.288   7.308  18.217  0.00  0.00    +0.000 A 
ATOM      5  C   UNL     1       2.908   6.363  19.188  0.00  0.00    +0.000 A 
ATOM      6  C   UNL     1       1.905   6.731  20.085  0.00  0.00    +0.000 A 
ATOM      7  O   UNL     1       1.656   5.714  20.949  0.00  0.00    +0.000 OA
ATOM      8  C   UNL     1       2.486   4.693  20.625  0.00  0.00    +0.000 A 
ATOM      9  C   UNL     1       2.510   3.482  21.308  0.00  0.00    +0.000 A 
ATOM     10  C   UNL     1       3.417   2.537  20.849  0.00  0.00    +0.000 A 
ATOM     11  C   UNL     1       4.251   2.815  19.764  0.00  0.00    +0.000 A 
ATOM     12  C   UNL     1       4.235   4.061  19.094  0.00  0.00    +0.000 A 
ATOM     13  C   UNL     1       3.297   5.026  19.541  0.00  0.00    +0.000 A 
ENDROOT
BRANCH   2  14
ATOM     14  C   UNL     1       1.001  10.275  19.021  0.00  0.00    +0.000 C 
ATOM     15  F   UNL     1      -0.311  10.283  18.673  0.00  0.00    +0.000 F 
ATOM     16  F   UNL     1       1.074  10.951  20.200  0.00  0.00    +0.000 F 
ATOM     17  F   UNL     1       1.630  11.060  18.103  0.00  0.00    +0.000 F 
ENDBRANCH   2  14
BRANCH   1  19
ATOM     18  N   UNL     1      -0.567   8.330  21.896  0.00  0.00    +0.000 NA
ATOM     19  C   UNL     1       0.246   8.179  21.086  0.00  0.00    +0.000 C 
ENDBRANCH   1  19
BRANCH  12  20
ATOM     20  O   UNL     1       5.088   4.341  18.030  0.00  0.00    +0.000 OA
BRANCH  20  21
ATOM     21  S   UNL     1       6.553   5.016  18.336  0.00  0.00    +0.000 S 
ATOM     22  O   UNL     1       6.563   5.498  19.705  0.00  0.00    +0.000 OA
ATOM     23  O   UNL     1       7.598   4.148  17.826  0.00  0.00    +0.000 OA
BRANCH  21  24
ATOM     24  C   UNL     1       6.499   6.454  17.252  0.00  0.00    +0.000 C 
BRANCH  24  25
ATOM     25  C   UNL     1       5.811   6.035  15.944  0.00  0.00    +0.000 C 
BRANCH  25  26
ATOM     26  C   UNL     1       6.699   5.271  14.964  0.00  0.00    +0.000 C 
BRANCH  26  27
ATOM     27  C   UNL     1       6.018   4.008  14.442  0.00  0.00    +0.000 C 
ATOM     28  F   UNL     1       6.623   3.509  13.344  0.00  0.00    +0.000 F 
ATOM     29  F   UNL     1       6.021   3.039  15.384  0.00  0.00    +0.000 F 
ATOM     30  F   UNL     1       4.730   4.258  14.120  0.00  0.00    +0.000 F 
ENDBRANCH  26  27
ENDBRANCH  25  26
ENDBRANCH  24  25
ENDBRANCH  21  24
ENDBRANCH  20  21
ENDBRANCH  12  20
TORSDOF 8
ENDMDL
MODEL 5
REMARK VINA RESULT:      -8.1      4.439      8.004
REMARK  Name = 
REMARK  8 active torsions:
REMARK  status: ('A' for Active; 'I' for Inactive)
REMARK    1  A    between atoms: C_2  and  C_3
REMARK    2  A    between atoms: C_4  and  C_5
REMARK    3  A    between atoms: C_18  and  O_19
REMARK    4  A    between atoms: O_19  and  S_20
REMARK    5  A    between atoms: S_20  and  C_23
REMARK    6  A    between atoms: C_23  and  C_24
REMARK    7  A    between atoms: C_24  and  C_25
REMARK    8  A    between atoms: C_25  and  C_26
REMARK                            x       y       z     vdW  Elec       q    Type
REMARK                         _______ _______ _______ _____ _____    ______ ____
ROOT
ATOM      1  C   UNL     1       2.178   6.689  19.797  0.00  0.00    +0.000 A 
ATOM      2  C   UNL     1       2.729   6.888  18.521  0.00  0.00    +0.000 A 
ATOM      3  C   UNL     1       2.586   8.149  17.903  0.00  0.00    +0.000 A 
ATOM      4  C   UNL     1       1.908   9.216  18.522  0.00  0.00    +0.000 A 
ATOM      5  C   UNL     1       1.355   9.023  19.801  0.00  0.00    +0.000 A 
ATOM      6  C   UNL     1       1.513   7.769  20.388  0.00  0.00    +0.000 A 
ATOM      7  O   UNL     1       0.928   7.748  21.612  0.00  0.00    +0.000 OA
ATOM      8  C   UNL     1       0.391   8.974  21.826  0.00  0.00    +0.000 A 
ATOM      9  C   UNL     1      -0.296   9.316  22.985  0.00  0.00    +0.000 A 
ATOM     10  C   UNL     1      -0.782  10.614  23.051  0.00  0.00    +0.000 A 
ATOM     11  C   UNL     1      -0.584  11.506  21.994  0.00  0.00    +0.000 A 
ATOM     12  C   UNL     1       0.094  11.137  20.808  0.00  0.00    +0.000 A 
ATOM     13  C   UNL     1       0.615   9.820  20.740  0.00  0.00    +0.000 A 
ENDROOT
BRANCH   2  14
ATOM     14  C   UNL     1       3.473   5.797  17.784  0.00  0.00    +0.000 C 
ATOM     15  F   UNL     1       2.708   4.762  17.355  0.00  0.00    +0.000 F 
ATOM     16  F   UNL     1       4.103   6.274  16.675  0.00  0.00    +0.000 F 
ATOM     17  F   UNL     1       4.448   5.240  18.555  0.00  0.00    +0.000 F 
ENDBRANCH   2  14
BRANCH   1  19
ATOM     18  N   UNL     1       2.300   4.491  21.161  0.00  0.00    +0.000 NA
ATOM     19  C   UNL     1       2.245   5.468  20.542  0.00  0.00    +0.000 C 
ENDBRANCH   1  19
BRANCH  12  20
ATOM     20  O   UNL     1       0.266  12.023  19.747  0.00  0.00    +0.000 OA
BRANCH  20  21
ATOM     21  S   UNL     1      -1.058  12.678  19.031  0.00  0.00    +0.000 S 
ATOM     22  O   UNL     1      -1.694  13.581  19.972  0.00  0.00    +0.000 OA
ATOM     23  O   UNL     1      -0.720  13.095  17.684  0.00  0.00    +0.000 OA
BRANCH  21  24
ATOM     24  C   UNL     1      -2.113  11.226  18.873  0.00  0.00    +0.000 C 
BRANCH  24  25
ATOM     25  C   UNL     1      -1.591  10.387  17.696  0.00  0.00    +0.000 C 
BRANCH  25  26
ATOM     26  C   UNL     1      -2.664   9.633  16.915  0.00  0.00    +0.000 C 
BRANCH  26  27
ATOM     27  C   UNL     1      -3.024  10.340  15.611  0.00  0.00    +0.000 C 
ATOM     28  F   UNL     1      -2.451  11.557  15.507  0.00  0.00    +0.000 F 
ATOM     29  F   UNL     1      -2.625   9.611  14.546  0.00  0.00    +0.000 F 
ATOM     30  F   UNL     1      -4.361  10.508  15.512  0.00  0.00    +0.000 F 
ENDBRANCH  26  27
ENDBRANCH  25  26
ENDBRANCH  24  25
ENDBRANCH  21  24
ENDBRANCH  20  21
ENDBRANCH  12  20
TORSDOF 8
ENDMDL
MODEL 6
REMARK VINA RESULT:      -8.0      2.762      3.282
REMARK  Name = 
REMARK  8 active torsions:
REMARK  status: ('A' for Active; 'I' for Inactive)
REMARK    1  A    between atoms: C_2  and  C_3
REMARK    2  A    between atoms: C_4  and  C_5
REMARK    3  A    between atoms: C_18  and  O_19
REMARK    4  A    between atoms: O_19  and  S_20
REMARK    5  A    between atoms: S_20  and  C_23
REMARK    6  A    between atoms: C_23  and  C_24
REMARK    7  A    between atoms: C_24  and  C_25
REMARK    8  A    between atoms: C_25  and  C_26
REMARK                            x       y       z     vdW  Elec       q    Type
REMARK                         _______ _______ _______ _____ _____    ______ ____
ROOT
ATOM      1  C   UNL     1       1.455   8.430  20.182  0.00  0.00    +0.000 A 
ATOM      2  C   UNL     1       1.526   9.292  19.077  0.00  0.00    +0.000 A 
ATOM      3  C   UNL     1       2.002   8.791  17.846  0.00  0.00    +0.000 A 
ATOM      4  C   UNL     1       2.409   7.452  17.688  0.00  0.00    +0.000 A 
ATOM      5  C   UNL     1       2.338   6.582  18.792  0.00  0.00    +0.000 A 
ATOM      6  C   UNL     1       1.864   7.105  19.994  0.00  0.00    +0.000 A 
ATOM      7  O   UNL     1       1.857   6.143  20.951  0.00  0.00    +0.000 OA
ATOM      8  C   UNL     1       2.323   5.003  20.385  0.00  0.00    +0.000 A 
ATOM      9  C   UNL     1       2.458   3.806  21.078  0.00  0.00    +0.000 A 
ATOM     10  C   UNL     1       2.947   2.728  20.353  0.00  0.00    +0.000 A 
ATOM     11  C   UNL     1       3.283   2.868  19.004  0.00  0.00    +0.000 A 
ATOM     12  C   UNL     1       3.166   4.100  18.317  0.00  0.00    +0.000 A 
ATOM     13  C   UNL     1       2.646   5.201  19.043  0.00  0.00    +0.000 A 
ENDROOT
BRANCH   2  14
ATOM     14  C   UNL     1       1.110  10.744  19.157  0.00  0.00    +0.000 C 
ATOM     15  F   UNL     1       1.590  11.540  18.168  0.00  0.00    +0.000 F 
ATOM     16  F   UNL     1      -0.243  10.886  19.120  0.00  0.00    +0.000 F 
ATOM     17  F   UNL     1       1.513  11.322  20.323  0.00  0.00    +0.000 F 
ENDBRANCH   2  14
BRANCH   1  19
ATOM     18  N   UNL     1       0.610   9.108  22.534  0.00  0.00    +0.000 NA
ATOM     19  C   UNL     1       0.996   8.799  21.487  0.00  0.00    +0.000 C 
ENDBRANCH   1  19
BRANCH  12  20
ATOM     20  O   UNL     1       3.527   4.239  16.980  0.00  0.00    +0.000 OA
BRANCH  20  21
ATOM     21  S   UNL     1       5.074   4.646  16.609  0.00  0.00    +0.000 S 
ATOM     22  O   UNL     1       5.695   3.528  15.923  0.00  0.00    +0.000 OA
ATOM     23  O   UNL     1       5.100   5.987  16.057  0.00  0.00    +0.000 OA
BRANCH  21  24
ATOM     24  C   UNL     1       5.803   4.749  18.253  0.00  0.00    +0.000 C 
BRANCH  24  25
ATOM     25  C   UNL     1       7.304   5.033  18.089  0.00  0.00    +0.000 C 
BRANCH  25  26
ATOM     26  C   UNL     1       7.796   6.312  18.763  0.00  0.00    +0.000 C 
BRANCH  26  27
ATOM     27  C   UNL     1       7.701   7.520  17.835  0.00  0.00    +0.000 C 
ATOM     28  F   UNL     1       8.039   7.223  16.563  0.00  0.00    +0.000 F 
ATOM     29  F   UNL     1       6.443   8.012  17.817  0.00  0.00    +0.000 F 
ATOM     30  F   UNL     1       8.520   8.509  18.254  0.00  0.00    +0.000 F 
ENDBRANCH  26  27
ENDBRANCH  25  26
ENDBRANCH  24  25
ENDBRANCH  21  24
ENDBRANCH  20  21
ENDBRANCH  12  20
TORSDOF 8
ENDMDL
MODEL 7
REMARK VINA RESULT:      -7.9      0.951      1.142
REMARK  Name = 
REMARK  8 active torsions:
REMARK  status: ('A' for Active; 'I' for Inactive)
REMARK    1  A    between atoms: C_2  and  C_3
REMARK    2  A    between atoms: C_4  and  C_5
REMARK    3  A    between atoms: C_18  and  O_19
REMARK    4  A    between atoms: O_19  and  S_20
REMARK    5  A    between atoms: S_20  and  C_23
REMARK    6  A    between atoms: C_23  and  C_24
REMARK    7  A    between atoms: C_24  and  C_25
REMARK    8  A    between atoms: C_25  and  C_26
REMARK                            x       y       z     vdW  Elec       q    Type
REMARK                         _______ _______ _______ _____ _____    ______ ____
ROOT
ATOM      1  C   UNL     1       1.063   9.059  20.285  0.00  0.00    +0.000 A 
ATOM      2  C   UNL     1       1.237   9.975  19.236  0.00  0.00    +0.000 A 
ATOM      3  C   UNL     1       1.887   9.551  18.057  0.00  0.00    +0.000 A 
ATOM      4  C   UNL     1       2.367   8.237  17.896  0.00  0.00    +0.000 A 
ATOM      5  C   UNL     1       2.194   7.314  18.944  0.00  0.00    +0.000 A 
ATOM      6  C   UNL     1       1.548   7.761  20.095  0.00  0.00    +0.000 A 
ATOM      7  O   UNL     1       1.460   6.755  21.002  0.00  0.00    +0.000 OA
ATOM      8  C   UNL     1       2.043   5.662  20.454  0.00  0.00    +0.000 A 
ATOM      9  C   UNL     1       2.140   4.439  21.107  0.00  0.00    +0.000 A 
ATOM     10  C   UNL     1       2.763   3.416  20.406  0.00  0.00    +0.000 A 
ATOM     11  C   UNL     1       3.262   3.632  19.119  0.00  0.00    +0.000 A 
ATOM     12  C   UNL     1       3.181   4.889  18.476  0.00  0.00    +0.000 A 
ATOM     13  C   UNL     1       2.526   5.935  19.174  0.00  0.00    +0.000 A 
ENDROOT
BRANCH   2  14
ATOM     14  C   UNL     1       0.752  11.405  19.323  0.00  0.00    +0.000 C 
ATOM     15  F   UNL     1       1.130  12.208  18.296  0.00  0.00    +0.000 F 
ATOM     16  F   UNL     1      -0.606  11.478  19.367  0.00  0.00    +0.000 F 
ATOM     17  F   UNL     1       1.195  12.021  20.454  0.00  0.00    +0.000 F 
ENDBRANCH   2  14
BRANCH   1  19
ATOM     18  N   UNL     1      -0.107   9.583  22.535  0.00  0.00    +0.000 NA
ATOM     19  C   UNL     1       0.426   9.349  21.534  0.00  0.00    +0.000 C 
ENDBRANCH   1  19
BRANCH  12  20
ATOM     20  O   UNL     1       3.703   5.105  17.203  0.00  0.00    +0.000 OA
BRANCH  20  21
ATOM     21  S   UNL     1       5.247   4.644  16.885  0.00  0.00    +0.000 S 
ATOM     22  O   UNL     1       6.121   5.235  17.881  0.00  0.00    +0.000 OA
ATOM     23  O   UNL     1       5.274   3.224  16.593  0.00  0.00    +0.000 OA
BRANCH  21  24
ATOM     24  C   UNL     1       5.542   5.499  15.327  0.00  0.00    +0.000 C 
BRANCH  24  25
ATOM     25  C   UNL     1       5.378   4.480  14.189  0.00  0.00    +0.000 C 
BRANCH  25  26
ATOM     26  C   UNL     1       6.685   3.970  13.585  0.00  0.00    +0.000 C 
BRANCH  26  27
ATOM     27  C   UNL     1       6.535   3.629  12.105  0.00  0.00    +0.000 C 
ATOM     28  F   UNL     1       5.249   3.646  11.697  0.00  0.00    +0.000 F 
ATOM     29  F   UNL     1       7.216   4.510  11.340  0.00  0.00    +0.000 F 
ATOM     30  F   UNL     1       7.029   2.399  11.846  0.00  0.00    +0.000 F 
ENDBRANCH  26  27
ENDBRANCH  25  26
ENDBRANCH  24  25
ENDBRANCH  21  24
ENDBRANCH  20  21
ENDBRANCH  12  20
TORSDOF 8
ENDMDL
MODEL 8
REMARK VINA RESULT:      -7.9      2.890      3.428
REMARK  Name = 
REMARK  8 active torsions:
REMARK  status: ('A' for Active; 'I' for Inactive)
REMARK    1  A    between atoms: C_2  and  C_3
REMARK    2  A    between atoms: C_4  and  C_5
REMARK    3  A    between atoms: C_18  and  O_19
REMARK    4  A    between atoms: O_19  and  S_20
REMARK    5  A    between atoms: S_20  and  C_23
REMARK    6  A    between atoms: C_23  and  C_24
REMARK    7  A    between atoms: C_24  and  C_25
REMARK    8  A    between atoms: C_25  and  C_26
REMARK                            x       y       z     vdW  Elec       q    Type
REMARK                         _______ _______ _______ _____ _____    ______ ____
ROOT
ATOM      1  C   UNL     1       1.366   8.457  20.295  0.00  0.00    +0.000 A 
ATOM      2  C   UNL     1       1.481   9.289  19.171  0.00  0.00    +0.000 A 
ATOM      3  C   UNL     1       1.959   8.742  17.960  0.00  0.00    +0.000 A 
ATOM      4  C   UNL     1       2.325   7.387  17.841  0.00  0.00    +0.000 A 
ATOM      5  C   UNL     1       2.210   6.548  18.964  0.00  0.00    +0.000 A 
ATOM      6  C   UNL     1       1.735   7.116  20.146  0.00  0.00    +0.000 A 
ATOM      7  O   UNL     1       1.682   6.179  21.126  0.00  0.00    +0.000 OA
ATOM      8  C   UNL     1       2.120   5.011  20.596  0.00  0.00    +0.000 A 
ATOM      9  C   UNL     1       2.206   3.827  21.320  0.00  0.00    +0.000 A 
ATOM     10  C   UNL     1       2.671   2.717  20.629  0.00  0.00    +0.000 A 
ATOM     11  C   UNL     1       3.032   2.813  19.282  0.00  0.00    +0.000 A 
ATOM     12  C   UNL     1       2.964   4.029  18.564  0.00  0.00    +0.000 A 
ATOM     13  C   UNL     1       2.469   5.165  19.254  0.00  0.00    +0.000 A 
ENDROOT
BRANCH   2  14
ATOM     14  C   UNL     1       1.111  10.755  19.209  0.00  0.00    +0.000 C 
ATOM     15  F   UNL     1      -0.221  11.017  19.189  0.00  0.00    +0.000 F 
ATOM     16  F   UNL     1       1.591  11.370  20.323  0.00  0.00    +0.000 F 
ATOM     17  F   UNL     1       1.636  11.436  18.152  0.00  0.00    +0.000 F 
ENDBRANCH   2  14
BRANCH   1  19
ATOM     18  N   UNL     1       0.524   9.190  22.632  0.00  0.00    +0.000 NA
ATOM     19  C   UNL     1       0.900   8.873  21.583  0.00  0.00    +0.000 C 
ENDBRANCH   1  19
BRANCH  12  20
ATOM     20  O   UNL     1       3.350   4.124  17.229  0.00  0.00    +0.000 OA
BRANCH  20  21
ATOM     21  S   UNL     1       4.893   4.557  16.872  0.00  0.00    +0.000 S 
ATOM     22  O   UNL     1       5.469   3.544  16.006  0.00  0.00    +0.000 OA
ATOM     23  O   UNL     1       4.931   5.965  16.528  0.00  0.00    +0.000 OA
BRANCH  21  24
ATOM     24  C   UNL     1       5.673   4.398  18.489  0.00  0.00    +0.000 C 
BRANCH  24  25
ATOM     25  C   UNL     1       6.184   5.786  18.906  0.00  0.00    +0.000 C 
BRANCH  25  26
ATOM     26  C   UNL     1       7.620   6.097  18.487  0.00  0.00    +0.000 C 
BRANCH  26  27
ATOM     27  C   UNL     1       7.752   7.500  17.900  0.00  0.00    +0.000 C 
ATOM     28  F   UNL     1       8.620   8.270  18.589  0.00  0.00    +0.000 F 
ATOM     29  F   UNL     1       8.183   7.445  16.621  0.00  0.00    +0.000 F 
ATOM     30  F   UNL     1       6.557   8.132  17.900  0.00  0.00    +0.000 F 
ENDBRANCH  26  27
ENDBRANCH  25  26
ENDBRANCH  24  25
ENDBRANCH  21  24
ENDBRANCH  20  21
ENDBRANCH  12  20
TORSDOF 8
ENDMDL
MODEL 9
REMARK VINA RESULT:      -7.8      4.529      7.965
REMARK  Name = 
REMARK  8 active torsions:
REMARK  status: ('A' for Active; 'I' for Inactive)
REMARK    1  A    between atoms: C_2  and  C_3
REMARK    2  A    between atoms: C_4  and  C_5
REMARK    3  A    between atoms: C_18  and  O_19
REMARK    4  A    between atoms: O_19  and  S_20
REMARK    5  A    between atoms: S_20  and  C_23
REMARK    6  A    between atoms: C_23  and  C_24
REMARK    7  A    between atoms: C_24  and  C_25
REMARK    8  A    between atoms: C_25  and  C_26
REMARK                            x       y       z     vdW  Elec       q    Type
REMARK                         _______ _______ _______ _____ _____    ______ ____
ROOT
ATOM      1  C   UNL     1       2.183   6.731  19.784  0.00  0.00    +0.000 A 
ATOM      2  C   UNL     1       2.750   6.952  18.519  0.00  0.00    +0.000 A 
ATOM      3  C   UNL     1       2.608   8.221  17.916  0.00  0.00    +0.000 A 
ATOM      4  C   UNL     1       1.915   9.275  18.542  0.00  0.00    +0.000 A 
ATOM      5  C   UNL     1       1.346   9.060  19.811  0.00  0.00    +0.000 A 
ATOM      6  C   UNL     1       1.503   7.798  20.381  0.00  0.00    +0.000 A 
ATOM      7  O   UNL     1       0.902   7.756  21.597  0.00  0.00    +0.000 OA
ATOM      8  C   UNL     1       0.355   8.975  21.821  0.00  0.00    +0.000 A 
ATOM      9  C   UNL     1      -0.350   9.296  22.976  0.00  0.00    +0.000 A 
ATOM     10  C   UNL     1      -0.845  10.590  23.054  0.00  0.00    +0.000 A 
ATOM     11  C   UNL     1      -0.638  11.499  22.013  0.00  0.00    +0.000 A 
ATOM     12  C   UNL     1       0.058  11.151  20.831  0.00  0.00    +0.000 A 
ATOM     13  C   UNL     1       0.588   9.839  20.751  0.00  0.00    +0.000 A 
ENDROOT
BRANCH   2  14
ATOM     14  C   UNL     1       3.511   5.877  17.775  0.00  0.00    +0.000 C 
ATOM     15  F   UNL     1       4.158   6.293  16.657  0.00  0.00    +0.000 F 
ATOM     16  F   UNL     1       4.462   5.296  18.557  0.00  0.00    +0.000 F 
ATOM     17  F   UNL     1       2.692   4.866  17.372  0.00  0.00    +0.000 F 
ENDBRANCH   2  14
BRANCH   1  19
ATOM     18  N   UNL     1       2.305   4.514  21.116  0.00  0.00    +0.000 NA
ATOM     19  C   UNL     1       2.247   5.500  20.511  0.00  0.00    +0.000 C 
ENDBRANCH   1  19
BRANCH  12  20
ATOM     20  O   UNL     1       0.239  12.053  19.785  0.00  0.00    +0.000 OA
BRANCH  20  21
ATOM     21  S   UNL     1      -1.049  12.464  18.853  0.00  0.00    +0.000 S 
ATOM     22  O   UNL     1      -2.157  12.815  19.723  0.00  0.00    +0.000 OA
ATOM     23  O   UNL     1      -0.610  13.342  17.787  0.00  0.00    +0.000 OA
BRANCH  21  24
ATOM     24  C   UNL     1      -1.437  10.878  18.091  0.00  0.00    +0.000 C 
BRANCH  24  25
ATOM     25  C   UNL     1      -2.797  11.010  17.389  0.00  0.00    +0.000 C 
BRANCH  25  26
ATOM     26  C   UNL     1      -2.724  11.276  15.887  0.00  0.00    +0.000 C 
BRANCH  26  27
ATOM     27  C   UNL     1      -3.149  10.057  15.071  0.00  0.00    +0.000 C 
ATOM     28  F   UNL     1      -2.973   8.899  15.740  0.00  0.00    +0.000 F 
ATOM     29  F   UNL     1      -4.455  10.138  14.735  0.00  0.00    +0.000 F 
ATOM     30  F   UNL     1      -2.438   9.979  13.925  0.00  0.00    +0.000 F 
ENDBRANCH  26  27
ENDBRANCH  25  26
ENDBRANCH  24  25
ENDBRANCH  21  24
ENDBRANCH  20  21
ENDBRANCH  12  20
TORSDOF 8
ENDMDL
