MODEL 1
REMARK VINA RESULT:      -7.7      0.000      0.000
REMARK  Name = 
REMARK  13 active torsions:
REMARK  status: ('A' for Active; 'I' for Inactive)
REMARK    1  A    between atoms: N_1  and  C_2
REMARK    2  A    between atoms: C_5  and  C_6
REMARK    3  A    between atoms: C_6  and  CA_7
REMARK    4  A    between atoms: CA_7  and  N_8
REMARK    5  A    between atoms: CA_7  and  C_29
REMARK    6  A    between atoms: C_9  and  C_11
REMARK    7  A    between atoms: C_11  and  N_12
REMARK    8  A    between atoms: C_13  and  C_15
REMARK    9  A    between atoms: C_15  and  N_16
REMARK   10  A    between atoms: C_17  and  C_19
REMARK   11  A    between atoms: C_22  and  S_23
REMARK   12  A    between atoms: S_23  and  N_24
REMARK   13  A    between atoms: C_29  and  OXT_31
REMARK                            x       y       z     vdW  Elec       q    Type
REMARK                         _______ _______ _______ _____ _____    ______ ____
ROOT
ATOM      1  N   UNL     1       1.686   7.585  19.497  0.00  0.00    +0.000 N 
ATOM      2  C   UNL     1       2.623   7.861  18.531  0.00  0.00    +0.000 C 
ATOM      3  O   UNL     1       3.644   7.188  18.403  0.00  0.00    +0.000 OA
ATOM      4  H   UNL     1       0.785   8.055  19.452  0.00  0.00    +0.000 HD
ENDROOT
BRANCH   1   5
ATOM      5  C   UNL     1       1.927   6.641  20.574  0.00  0.00    +0.000 C 
BRANCH   5   7
ATOM      6  N   UNL     1       3.165   4.638  19.803  0.00  0.00    +0.000 N 
ATOM      7  C   UNL     1       1.956   5.159  20.191  0.00  0.00    +0.000 C 
ATOM      8  O   UNL     1       0.978   4.436  20.381  0.00  0.00    +0.000 OA
ATOM      9  H   UNL     1       3.956   5.263  19.676  0.00  0.00    +0.000 HD
BRANCH   6  10
ATOM     10  CA  UNL     1       3.290   3.224  19.396  0.00  0.00    +0.000 C 
BRANCH  10  11
ATOM     11  C   UNL     1       3.869   2.354  20.530  0.00  0.00    +0.000 C 
ATOM     12  O   UNL     1       3.403   2.224  21.652  0.00  0.00    +0.000 OA
BRANCH  11  13
ATOM     13  OXT UNL     1       5.062   1.799  20.192  0.00  0.00    +0.000 OA
ATOM     14  HXT UNL     1       5.246   1.014  20.744  0.00  0.00    +0.000 HD
ENDBRANCH  11  13
ENDBRANCH  10  11
BRANCH  10  15
ATOM     15  C   UNL     1       3.864   3.060  17.979  0.00  0.00    +0.000 C 
BRANCH  15  19
ATOM     16  C   UNL     1       6.731   5.206  15.723  0.00  0.00    +0.000 A 
ATOM     17  C   UNL     1       7.087   4.648  16.940  0.00  0.00    +0.000 A 
ATOM     18  C   UNL     1       6.109   4.191  17.801  0.00  0.00    +0.000 A 
ATOM     19  C   UNL     1       4.788   4.099  17.389  0.00  0.00    +0.000 A 
ATOM     20  C   UNL     1       4.403   4.752  16.195  0.00  0.00    +0.000 A 
ATOM     21  C   UNL     1       5.382   5.323  15.382  0.00  0.00    +0.000 A 
BRANCH  16  22
ATOM     22  N   UNL     1       7.736   5.449  14.784  0.00  0.00    +0.000 N 
ATOM     23  H   UNL     1       8.161   6.364  14.894  0.00  0.00    +0.000 HD
ATOM     24  H   UNL     1       7.371   5.323  13.838  0.00  0.00    +0.000 HD
ENDBRANCH  16  22
ENDBRANCH  15  19
ENDBRANCH  10  15
ENDBRANCH   6  10
ENDBRANCH   5   7
ENDBRANCH   1   5
BRANCH   2  25
ATOM     25  C   UNL     1       2.226   8.964  17.547  0.00  0.00    +0.000 C 
BRANCH  25  26
ATOM     26  N   UNL     1       0.846   9.386  17.797  0.00  0.00    +0.000 N 
ATOM     27  C   UNL     1       0.559  10.562  18.439  0.00  0.00    +0.000 C 
ATOM     28  O   UNL     1       1.411  11.308  18.884  0.00  0.00    +0.000 OA
ATOM     29  H   UNL     1       0.120   8.798  17.414  0.00  0.00    +0.000 HD
BRANCH  27  30
ATOM     30  C   UNL     1      -0.907  10.915  18.546  0.00  0.00    +0.000 A 
ATOM     31  C   UNL     1      -1.381  11.920  19.403  0.00  0.00    +0.000 A 
ATOM     32  C   UNL     1      -2.756  12.203  19.483  0.00  0.00    +0.000 A 
ATOM     33  C   UNL     1      -3.666  11.526  18.666  0.00  0.00    +0.000 A 
ATOM     34  C   UNL     1      -3.201  10.516  17.812  0.00  0.00    +0.000 A 
ATOM     35  C   UNL     1      -1.832  10.213  17.759  0.00  0.00    +0.000 A 
BRANCH  33  36
ATOM     36  S   UNL     1      -5.422  11.791  18.830  0.00  0.00    +0.000 S 
ATOM     37  O   UNL     1      -6.119  10.903  17.932  0.00  0.00    +0.000 OA
ATOM     38  O   UNL     1      -5.736  11.876  20.238  0.00  0.00    +0.000 OA
BRANCH  36  39
ATOM     39  N   UNL     1      -5.743  13.329  18.222  0.00  0.00    +0.000 NA
ATOM     40  H   UNL     1      -4.897  13.905  18.258  0.00  0.00    +0.000 HD
ATOM     41  H   UNL     1      -6.086  13.222  17.258  0.00  0.00    +0.000 HD
ENDBRANCH  36  39
ENDBRANCH  33  36
ENDBRANCH  27  30
ENDBRANCH  25  26
ENDBRANCH   2  25
TORSDOF 13
ENDMDL
MODEL 2
REMARK VINA RESULT:      -7.5      3.799     11.228
REMARK  Name = 
REMARK  13 active torsions:
REMARK  status: ('A' for Active; 'I' for Inactive)
REMARK    1  A    between atoms: N_1  and  C_2
REMARK    2  A    between atoms: C_5  and  C_6
REMARK    3  A    between atoms: C_6  and  CA_7
REMARK    4  A    between atoms: CA_7  and  N_8
REMARK    5  A    between atoms: CA_7  and  C_29
REMARK    6  A    between atoms: C_9  and  C_11
REMARK    7  A    between atoms: C_11  and  N_12
REMARK    8  A    between atoms: C_13  and  C_15
REMARK    9  A    between atoms: C_15  and  N_16
REMARK   10  A    between atoms: C_17  and  C_19
REMARK   11  A    between atoms: C_22  and  S_23
REMARK   12  A    between atoms: S_23  and  N_24
REMARK   13  A    between atoms: C_29  and  OXT_31
REMARK                            x       y       z     vdW  Elec       q    Type
REMARK                         _______ _______ _______ _____ _____    ______ ____
ROOT
ATOM      1  N   UNL     1       0.931  10.227  19.719  0.00  0.00    +0.000 N 
ATOM      2  C   UNL     1       0.860   9.786  21.018  0.00  0.00    +0.000 C 
ATOM      3  O   UNL     1       0.648  10.553  21.956  0.00  0.00    +0.000 OA
ATOM      4  H   UNL     1       0.935   9.540  18.969  0.00  0.00    +0.000 HD
ENDROOT
BRANCH   1   5
ATOM      5  C   UNL     1       0.992  11.637  19.373  0.00  0.00    +0.000 C 
BRANCH   5   7
ATOM      6  N   UNL     1      -0.801  13.007  20.397  0.00  0.00    +0.000 N 
ATOM      7  C   UNL     1      -0.347  12.373  19.268  0.00  0.00    +0.000 C 
ATOM      8  O   UNL     1      -0.902  12.525  18.180  0.00  0.00    +0.000 OA
ATOM      9  H   UNL     1      -0.304  12.874  21.274  0.00  0.00    +0.000 HD
BRANCH   6  10
ATOM     10  CA  UNL     1      -2.090  13.727  20.400  0.00  0.00    +0.000 C 
BRANCH  10  11
ATOM     11  C   UNL     1      -1.912  15.212  20.774  0.00  0.00    +0.000 C 
ATOM     12  O   UNL     1      -1.989  15.690  21.896  0.00  0.00    +0.000 OA
BRANCH  11  13
ATOM     13  OXT UNL     1      -1.757  16.002  19.679  0.00  0.00    +0.000 OA
ATOM     14  HXT UNL     1      -2.469  15.835  19.030  0.00  0.00    +0.000 HD
ENDBRANCH  11  13
ENDBRANCH  10  11
BRANCH  10  15
ATOM     15  C   UNL     1      -3.216  12.929  21.077  0.00  0.00    +0.000 C 
BRANCH  15  19
ATOM     16  C   UNL     1      -6.493  10.934  19.290  0.00  0.00    +0.000 A 
ATOM     17  C   UNL     1      -5.343  11.167  18.555  0.00  0.00    +0.000 A 
ATOM     18  C   UNL     1      -4.388  12.044  19.029  0.00  0.00    +0.000 A 
ATOM     19  C   UNL     1      -4.465  12.549  20.318  0.00  0.00    +0.000 A 
ATOM     20  C   UNL     1      -5.676  12.397  21.034  0.00  0.00    +0.000 A 
ATOM     21  C   UNL     1      -6.692  11.606  20.497  0.00  0.00    +0.000 A 
BRANCH  16  22
ATOM     22  N   UNL     1      -7.328   9.883  18.903  0.00  0.00    +0.000 N 
ATOM     23  H   UNL     1      -7.991   9.624  19.626  0.00  0.00    +0.000 HD
ATOM     24  H   UNL     1      -6.768   9.080  18.609  0.00  0.00    +0.000 HD
ENDBRANCH  16  22
ENDBRANCH  15  19
ENDBRANCH  10  15
ENDBRANCH   6  10
ENDBRANCH   5   7
ENDBRANCH   1   5
BRANCH   2  25
ATOM     25  C   UNL     1       0.917   8.266  21.186  0.00  0.00    +0.000 C 
BRANCH  25  26
ATOM     26  N   UNL     1       2.046   7.721  20.428  0.00  0.00    +0.000 N 
ATOM     27  C   UNL     1       2.148   6.382  20.151  0.00  0.00    +0.000 C 
ATOM     28  O   UNL     1       1.348   5.554  20.546  0.00  0.00    +0.000 OA
ATOM     29  H   UNL     1       2.709   8.391  20.066  0.00  0.00    +0.000 HD
BRANCH  27  30
ATOM     30  C   UNL     1       3.315   5.974  19.283  0.00  0.00    +0.000 A 
ATOM     31  C   UNL     1       4.282   5.047  19.704  0.00  0.00    +0.000 A 
ATOM     32  C   UNL     1       5.361   4.709  18.868  0.00  0.00    +0.000 A 
ATOM     33  C   UNL     1       5.456   5.249  17.582  0.00  0.00    +0.000 A 
ATOM     34  C   UNL     1       4.498   6.181  17.158  0.00  0.00    +0.000 A 
ATOM     35  C   UNL     1       3.441   6.541  18.006  0.00  0.00    +0.000 A 
BRANCH  33  36
ATOM     36  S   UNL     1       6.873   4.919  16.551  0.00  0.00    +0.000 S 
ATOM     37  O   UNL     1       6.517   3.929  15.564  0.00  0.00    +0.000 OA
ATOM     38  O   UNL     1       7.479   6.183  16.199  0.00  0.00    +0.000 OA
BRANCH  36  39
ATOM     39  N   UNL     1       8.013   4.146  17.520  0.00  0.00    +0.000 NA
ATOM     40  H   UNL     1       8.956   4.309  17.152  0.00  0.00    +0.000 HD
ATOM     41  H   UNL     1       7.913   4.509  18.476  0.00  0.00    +0.000 HD
ENDBRANCH  36  39
ENDBRANCH  33  36
ENDBRANCH  27  30
ENDBRANCH  25  26
ENDBRANCH   2  25
TORSDOF 13
ENDMDL
MODEL 3
REMARK VINA RESULT:      -7.4      2.894      4.596
REMARK  Name = 
REMARK  13 active torsions:
REMARK  status: ('A' for Active; 'I' for Inactive)
REMARK    1  A    between atoms: N_1  and  C_2
REMARK    2  A    between atoms: C_5  and  C_6
REMARK    3  A    between atoms: C_6  and  CA_7
REMARK    4  A    between atoms: CA_7  and  N_8
REMARK    5  A    between atoms: CA_7  and  C_29
REMARK    6  A    between atoms: C_9  and  C_11
REMARK    7  A    between atoms: C_11  and  N_12
REMARK    8  A    between atoms: C_13  and  C_15
REMARK    9  A    between atoms: C_15  and  N_16
REMARK   10  A    between atoms: C_17  and  C_19
REMARK   11  A    between atoms: C_22  and  S_23
REMARK   12  A    between atoms: S_23  and  N_24
REMARK   13  A    between atoms: C_29  and  OXT_31
REMARK                            x       y       z     vdW  Elec       q    Type
REMARK                         _______ _______ _______ _____ _____    ______ ____
ROOT
ATOM      1  N   UNL     1       1.834   8.056  20.053  0.00  0.00    +0.000 N 
ATOM      2  C   UNL     1       1.102   9.197  20.278  0.00  0.00    +0.000 C 
ATOM      3  O   UNL     1       0.478   9.759  19.380  0.00  0.00    +0.000 OA
ATOM      4  H   UNL     1       2.185   7.535  20.853  0.00  0.00    +0.000 HD
ENDROOT
BRANCH   1   5
ATOM      5  C   UNL     1       2.116   7.559  18.718  0.00  0.00    +0.000 C 
BRANCH   5   7
ATOM      6  N   UNL     1       3.749   6.320  17.325  0.00  0.00    +0.000 N 
ATOM      7  C   UNL     1       3.275   6.566  18.589  0.00  0.00    +0.000 C 
ATOM      8  O   UNL     1       3.856   6.139  19.586  0.00  0.00    +0.000 OA
ATOM      9  H   UNL     1       3.254   6.707  16.526  0.00  0.00    +0.000 HD
BRANCH   6  10
ATOM     10  CA  UNL     1       4.850   5.363  17.097  0.00  0.00    +0.000 C 
BRANCH  10  11
ATOM     11  C   UNL     1       5.953   5.966  16.205  0.00  0.00    +0.000 C 
ATOM     12  O   UNL     1       7.145   6.029  16.469  0.00  0.00    +0.000 OA
BRANCH  11  13
ATOM     13  OXT UNL     1       5.447   6.549  15.087  0.00  0.00    +0.000 OA
ATOM     14  HXT UNL     1       4.551   6.207  14.895  0.00  0.00    +0.000 HD
ENDBRANCH  11  13
ENDBRANCH  10  11
BRANCH  10  15
ATOM     15  C   UNL     1       4.350   3.942  16.787  0.00  0.00    +0.000 C 
BRANCH  15  19
ATOM     16  C   UNL     1       1.702   2.824  19.894  0.00  0.00    +0.000 A 
ATOM     17  C   UNL     1       3.062   2.598  20.031  0.00  0.00    +0.000 A 
ATOM     18  C   UNL     1       3.892   2.702  18.932  0.00  0.00    +0.000 A 
ATOM     19  C   UNL     1       3.422   3.220  17.735  0.00  0.00    +0.000 A 
ATOM     20  C   UNL     1       2.026   3.359  17.557  0.00  0.00    +0.000 A 
ATOM     21  C   UNL     1       1.175   3.135  18.640  0.00  0.00    +0.000 A 
BRANCH  16  22
ATOM     22  N   UNL     1       0.927   2.934  21.050  0.00  0.00    +0.000 N 
ATOM     23  H   UNL     1       0.074   3.463  20.900  0.00  0.00    +0.000 HD
ATOM     24  H   UNL     1       1.482   3.336  21.809  0.00  0.00    +0.000 HD
ENDBRANCH  16  22
ENDBRANCH  15  19
ENDBRANCH  10  15
ENDBRANCH   6  10
ENDBRANCH   5   7
ENDBRANCH   1   5
BRANCH   2  25
ATOM     25  C   UNL     1       1.006   9.620  21.746  0.00  0.00    +0.000 C 
BRANCH  25  26
ATOM     26  N   UNL     1      -0.312  10.200  22.015  0.00  0.00    +0.000 N 
ATOM     27  C   UNL     1      -0.500  11.556  22.085  0.00  0.00    +0.000 C 
ATOM     28  O   UNL     1       0.403  12.364  21.979  0.00  0.00    +0.000 OA
ATOM     29  H   UNL     1      -1.083   9.552  22.080  0.00  0.00    +0.000 HD
BRANCH  27  30
ATOM     30  C   UNL     1      -1.927  12.016  22.276  0.00  0.00    +0.000 A 
ATOM     31  C   UNL     1      -2.555  12.030  23.532  0.00  0.00    +0.000 A 
ATOM     32  C   UNL     1      -3.890  12.451  23.660  0.00  0.00    +0.000 A 
ATOM     33  C   UNL     1      -4.595  12.915  22.546  0.00  0.00    +0.000 A 
ATOM     34  C   UNL     1      -3.978  12.897  21.287  0.00  0.00    +0.000 A 
ATOM     35  C   UNL     1      -2.656  12.445  21.157  0.00  0.00    +0.000 A 
BRANCH  33  36
ATOM     36  S   UNL     1      -6.321  13.347  22.667  0.00  0.00    +0.000 S 
ATOM     37  O   UNL     1      -6.650  14.273  21.611  0.00  0.00    +0.000 OA
ATOM     38  O   UNL     1      -7.075  12.136  22.901  0.00  0.00    +0.000 OA
BRANCH  36  39
ATOM     39  N   UNL     1      -6.501  14.249  24.078  0.00  0.00    +0.000 NA
ATOM     40  H   UNL     1      -7.337  13.944  24.586  0.00  0.00    +0.000 HD
ATOM     41  H   UNL     1      -5.650  14.127  24.642  0.00  0.00    +0.000 HD
ENDBRANCH  36  39
ENDBRANCH  33  36
ENDBRANCH  27  30
ENDBRANCH  25  26
ENDBRANCH   2  25
TORSDOF 13
ENDMDL
MODEL 4
REMARK VINA RESULT:      -7.4      0.903      1.575
REMARK  Name = 
REMARK  13 active torsions:
REMARK  status: ('A' for Active; 'I' for Inactive)
REMARK    1  A    between atoms: N_1  and  C_2
REMARK    2  A    between atoms: C_5  and  C_6
REMARK    3  A    between atoms: C_6  and  CA_7
REMARK    4  A    between atoms: CA_7  and  N_8
REMARK    5  A    between atoms: CA_7  and  C_29
REMARK    6  A    between atoms: C_9  and  C_11
REMARK    7  A    between atoms: C_11  and  N_12
REMARK    8  A    between atoms: C_13  and  C_15
REMARK    9  A    between atoms: C_15  and  N_16
REMARK   10  A    between atoms: C_17  and  C_19
REMARK   11  A    between atoms: C_22  and  S_23
REMARK   12  A    between atoms: S_23  and  N_24
REMARK   13  A    between atoms: C_29  and  OXT_31
REMARK                            x       y       z     vdW  Elec       q    Type
REMARK                         _______ _______ _______ _____ _____    ______ ____
ROOT
ATOM      1  N   UNL     1       1.743   8.069  19.817  0.00  0.00    +0.000 N 
ATOM      2  C   UNL     1       2.361   8.166  18.595  0.00  0.00    +0.000 C 
ATOM      3  O   UNL     1       3.080   7.270  18.154  0.00  0.00    +0.000 OA
ATOM      4  H   UNL     1       1.027   8.750  20.059  0.00  0.00    +0.000 HD
ENDROOT
BRANCH   1   5
ATOM      5  C   UNL     1       2.063   7.025  20.775  0.00  0.00    +0.000 C 
BRANCH   5   7
ATOM      6  N   UNL     1       3.179   5.027  19.823  0.00  0.00    +0.000 N 
ATOM      7  C   UNL     1       2.003   5.584  20.261  0.00  0.00    +0.000 C 
ATOM      8  O   UNL     1       0.983   4.907  20.391  0.00  0.00    +0.000 OA
ATOM      9  H   UNL     1       4.006   5.613  19.749  0.00  0.00    +0.000 HD
BRANCH   6  10
ATOM     10  CA  UNL     1       3.218   3.651  19.292  0.00  0.00    +0.000 C 
BRANCH  10  11
ATOM     11  C   UNL     1       3.749   2.651  20.339  0.00  0.00    +0.000 C 
ATOM     12  O   UNL     1       4.756   1.966  20.242  0.00  0.00    +0.000 OA
BRANCH  11  13
ATOM     13  OXT UNL     1       2.899   2.511  21.391  0.00  0.00    +0.000 OA
ATOM     14  HXT UNL     1       3.377   2.186  22.179  0.00  0.00    +0.000 HD
ENDBRANCH  11  13
ENDBRANCH  10  11
BRANCH  10  15
ATOM     15  C   UNL     1       3.777   3.580  17.861  0.00  0.00    +0.000 C 
BRANCH  15  19
ATOM     16  C   UNL     1       6.765   6.500  17.188  0.00  0.00    +0.000 A 
ATOM     17  C   UNL     1       5.864   6.191  16.184  0.00  0.00    +0.000 A 
ATOM     18  C   UNL     1       5.072   5.065  16.290  0.00  0.00    +0.000 A 
ATOM     19  C   UNL     1       5.021   4.344  17.473  0.00  0.00    +0.000 A 
ATOM     20  C   UNL     1       6.002   4.590  18.461  0.00  0.00    +0.000 A 
ATOM     21  C   UNL     1       6.885   5.658  18.295  0.00  0.00    +0.000 A 
BRANCH  16  22
ATOM     22  N   UNL     1       7.385   7.752  17.164  0.00  0.00    +0.000 N 
ATOM     23  H   UNL     1       6.887   8.424  16.589  0.00  0.00    +0.000 HD
ATOM     24  H   UNL     1       8.357   7.657  16.864  0.00  0.00    +0.000 HD
ENDBRANCH  16  22
ENDBRANCH  15  19
ENDBRANCH  10  15
ENDBRANCH   6  10
ENDBRANCH   5   7
ENDBRANCH   1   5
BRANCH   2  25
ATOM     25  C   UNL     1       1.970   9.396  17.772  0.00  0.00    +0.000 C 
BRANCH  25  26
ATOM     26  N   UNL     1       0.551   9.702  17.972  0.00  0.00    +0.000 N 
ATOM     27  C   UNL     1       0.143  10.875  18.550  0.00  0.00    +0.000 C 
ATOM     28  O   UNL     1       0.913  11.716  18.977  0.00  0.00    +0.000 OA
ATOM     29  H   UNL     1      -0.109   9.033  17.602  0.00  0.00    +0.000 HD
BRANCH  27  30
ATOM     30  C   UNL     1      -1.351  11.098  18.610  0.00  0.00    +0.000 A 
ATOM     31  C   UNL     1      -2.255  10.371  17.820  0.00  0.00    +0.000 A 
ATOM     32  C   UNL     1      -3.636  10.624  17.897  0.00  0.00    +0.000 A 
ATOM     33  C   UNL     1      -4.134  11.565  18.803  0.00  0.00    +0.000 A 
ATOM     34  C   UNL     1      -3.236  12.300  19.590  0.00  0.00    +0.000 A 
ATOM     35  C   UNL     1      -1.856  12.069  19.488  0.00  0.00    +0.000 A 
BRANCH  33  36
ATOM     36  S   UNL     1      -5.868  11.978  18.837  0.00  0.00    +0.000 S 
ATOM     37  O   UNL     1      -6.568  11.152  17.884  0.00  0.00    +0.000 OA
ATOM     38  O   UNL     1      -6.279  12.090  20.217  0.00  0.00    +0.000 OA
BRANCH  36  39
ATOM     39  N   UNL     1      -6.011  13.537  18.215  0.00  0.00    +0.000 NA
ATOM     40  H   UNL     1      -6.770  13.573  17.527  0.00  0.00    +0.000 HD
ATOM     41  H   UNL     1      -6.182  14.177  19.001  0.00  0.00    +0.000 HD
ENDBRANCH  36  39
ENDBRANCH  33  36
ENDBRANCH  27  30
ENDBRANCH  25  26
ENDBRANCH   2  25
TORSDOF 13
ENDMDL
MODEL 5
REMARK VINA RESULT:      -7.3      6.955      9.021
REMARK  Name = 
REMARK  13 active torsions:
REMARK  status: ('A' for Active; 'I' for Inactive)
REMARK    1  A    between atoms: N_1  and  C_2
REMARK    2  A    between atoms: C_5  and  C_6
REMARK    3  A    between atoms: C_6  and  CA_7
REMARK    4  A    between atoms: CA_7  and  N_8
REMARK    5  A    between atoms: CA_7  and  C_29
REMARK    6  A    between atoms: C_9  and  C_11
REMARK    7  A    between atoms: C_11  and  N_12
REMARK    8  A    between atoms: C_13  and  C_15
REMARK    9  A    between atoms: C_15  and  N_16
REMARK   10  A    between atoms: C_17  and  C_19
REMARK   11  A    between atoms: C_22  and  S_23
REMARK   12  A    between atoms: S_23  and  N_24
REMARK   13  A    between atoms: C_29  and  OXT_31
REMARK                            x       y       z     vdW  Elec       q    Type
REMARK                         _______ _______ _______ _____ _____    ______ ____
ROOT
ATOM      1  N   UNL     1       8.316   7.083  18.812  0.00  0.00    +0.000 N 
ATOM      2  C   UNL     1       7.821   7.893  17.820  0.00  0.00    +0.000 C 
ATOM      3  O   UNL     1       6.716   7.704  17.315  0.00  0.00    +0.000 OA
ATOM      4  H   UNL     1       9.149   7.380  19.315  0.00  0.00    +0.000 HD
ENDROOT
BRANCH   1   5
ATOM      5  C   UNL     1       7.693   5.823  19.178  0.00  0.00    +0.000 C 
BRANCH   5   7
ATOM      6  N   UNL     1       5.858   4.982  17.741  0.00  0.00    +0.000 N 
ATOM      7  C   UNL     1       7.200   4.944  18.025  0.00  0.00    +0.000 C 
ATOM      8  O   UNL     1       7.996   4.362  17.288  0.00  0.00    +0.000 OA
ATOM      9  H   UNL     1       5.234   5.492  18.360  0.00  0.00    +0.000 HD
BRANCH   6  10
ATOM     10  CA  UNL     1       5.285   4.155  16.660  0.00  0.00    +0.000 C 
BRANCH  10  11
ATOM     11  C   UNL     1       5.877   4.526  15.285  0.00  0.00    +0.000 C 
ATOM     12  O   UNL     1       5.870   5.634  14.768  0.00  0.00    +0.000 OA
BRANCH  11  13
ATOM     13  OXT UNL     1       6.339   3.438  14.615  0.00  0.00    +0.000 OA
ATOM     14  HXT UNL     1       7.102   3.044  15.081  0.00  0.00    +0.000 HD
ENDBRANCH  11  13
ENDBRANCH  10  11
BRANCH  10  15
ATOM     15  C   UNL     1       3.762   3.988  16.782  0.00  0.00    +0.000 C 
BRANCH  15  19
ATOM     16  C   UNL     1       2.407   2.996  20.667  0.00  0.00    +0.000 A 
ATOM     17  C   UNL     1       3.598   2.469  20.196  0.00  0.00    +0.000 A 
ATOM     18  C   UNL     1       3.909   2.561  18.854  0.00  0.00    +0.000 A 
ATOM     19  C   UNL     1       3.146   3.342  18.000  0.00  0.00    +0.000 A 
ATOM     20  C   UNL     1       1.883   3.799  18.446  0.00  0.00    +0.000 A 
ATOM     21  C   UNL     1       1.516   3.598  19.777  0.00  0.00    +0.000 A 
BRANCH  16  22
ATOM     22  N   UNL     1       2.221   3.091  22.048  0.00  0.00    +0.000 N 
ATOM     23  H   UNL     1       2.024   4.039  22.352  0.00  0.00    +0.000 HD
ATOM     24  H   UNL     1       3.031   2.706  22.539  0.00  0.00    +0.000 HD
ENDBRANCH  16  22
ENDBRANCH  15  19
ENDBRANCH  10  15
ENDBRANCH   6  10
ENDBRANCH   5   7
ENDBRANCH   1   5
BRANCH   2  25
ATOM     25  C   UNL     1       8.678   9.122  17.505  0.00  0.00    +0.000 C 
BRANCH  25  26
ATOM     26  N   UNL     1       8.618  10.073  18.616  0.00  0.00    +0.000 N 
ATOM     27  C   UNL     1       9.468  11.145  18.692  0.00  0.00    +0.000 C 
ATOM     28  O   UNL     1      10.352  11.359  17.883  0.00  0.00    +0.000 OA
ATOM     29  H   UNL     1       7.876   9.934  19.287  0.00  0.00    +0.000 HD
BRANCH  27  30
ATOM     30  C   UNL     1       9.233  12.095  19.844  0.00  0.00    +0.000 A 
ATOM     31  C   UNL     1       8.954  13.457  19.655  0.00  0.00    +0.000 A 
ATOM     32  C   UNL     1       8.758  14.308  20.758  0.00  0.00    +0.000 A 
ATOM     33  C   UNL     1       8.783  13.796  22.059  0.00  0.00    +0.000 A 
ATOM     34  C   UNL     1       9.069  12.438  22.256  0.00  0.00    +0.000 A 
ATOM     35  C   UNL     1       9.296  11.599  21.155  0.00  0.00    +0.000 A 
BRANCH  33  36
ATOM     36  S   UNL     1       8.648  14.875  23.472  0.00  0.00    +0.000 S 
ATOM     37  O   UNL     1       7.592  15.829  23.236  0.00  0.00    +0.000 OA
ATOM     38  O   UNL     1       8.709  14.065  24.667  0.00  0.00    +0.000 OA
BRANCH  36  39
ATOM     39  N   UNL     1      10.048  15.810  23.509  0.00  0.00    +0.000 NA
ATOM     40  H   UNL     1       9.985  16.566  22.821  0.00  0.00    +0.000 HD
ATOM     41  H   UNL     1      10.159  16.175  24.464  0.00  0.00    +0.000 HD
ENDBRANCH  36  39
ENDBRANCH  33  36
ENDBRANCH  27  30
ENDBRANCH  25  26
ENDBRANCH   2  25
TORSDOF 13
ENDMDL
MODEL 6
REMARK VINA RESULT:      -7.2      2.055      3.253
REMARK  Name = 
REMARK  13 active torsions:
REMARK  status: ('A' for Active; 'I' for Inactive)
REMARK    1  A    between atoms: N_1  and  C_2
REMARK    2  A    between atoms: C_5  and  C_6
REMARK    3  A    between atoms: C_6  and  CA_7
REMARK    4  A    between atoms: CA_7  and  N_8
REMARK    5  A    between atoms: CA_7  and  C_29
REMARK    6  A    between atoms: C_9  and  C_11
REMARK    7  A    between atoms: C_11  and  N_12
REMARK    8  A    between atoms: C_13  and  C_15
REMARK    9  A    between atoms: C_15  and  N_16
REMARK   10  A    between atoms: C_17  and  C_19
REMARK   11  A    between atoms: C_22  and  S_23
REMARK   12  A    between atoms: S_23  and  N_24
REMARK   13  A    between atoms: C_29  and  OXT_31
REMARK                            x       y       z     vdW  Elec       q    Type
REMARK                         _______ _______ _______ _____ _____    ______ ____
ROOT
ATOM      1  N   UNL     1       2.592   7.154  17.750  0.00  0.00    +0.000 N 
ATOM      2  C   UNL     1       2.160   8.198  18.532  0.00  0.00    +0.000 C 
ATOM      3  O   UNL     1       2.116   8.118  19.759  0.00  0.00    +0.000 OA
ATOM      4  H   UNL     1       2.774   7.326  16.764  0.00  0.00    +0.000 HD
ENDROOT
BRANCH   1   5
ATOM      5  C   UNL     1       2.808   5.818  18.277  0.00  0.00    +0.000 C 
BRANCH   5   7
ATOM      6  N   UNL     1       5.225   6.163  17.853  0.00  0.00    +0.000 N 
ATOM      7  C   UNL     1       4.264   5.373  18.434  0.00  0.00    +0.000 C 
ATOM      8  O   UNL     1       4.565   4.444  19.184  0.00  0.00    +0.000 OA
ATOM      9  H   UNL     1       4.938   6.934  17.258  0.00  0.00    +0.000 HD
BRANCH   6  10
ATOM     10  CA  UNL     1       6.655   5.806  17.934  0.00  0.00    +0.000 C 
BRANCH  10  11
ATOM     11  C   UNL     1       7.553   7.058  17.969  0.00  0.00    +0.000 C 
ATOM     12  O   UNL     1       8.411   7.311  18.803  0.00  0.00    +0.000 OA
BRANCH  11  13
ATOM     13  OXT UNL     1       7.221   7.955  17.004  0.00  0.00    +0.000 OA
ATOM     14  HXT UNL     1       6.417   8.451  17.255  0.00  0.00    +0.000 HD
ENDBRANCH  11  13
ENDBRANCH  10  11
BRANCH  10  15
ATOM     15  C   UNL     1       7.036   4.656  16.987  0.00  0.00    +0.000 C 
BRANCH  15  19
ATOM     16  C   UNL     1       6.606   3.969  12.833  0.00  0.00    +0.000 A 
ATOM     17  C   UNL     1       7.518   4.907  13.286  0.00  0.00    +0.000 A 
ATOM     18  C   UNL     1       7.474   5.332  14.599  0.00  0.00    +0.000 A 
ATOM     19  C   UNL     1       6.661   4.696  15.524  0.00  0.00    +0.000 A 
ATOM     20  C   UNL     1       5.662   3.812  15.054  0.00  0.00    +0.000 A 
ATOM     21  C   UNL     1       5.631   3.475  13.701  0.00  0.00    +0.000 A 
BRANCH  16  22
ATOM     22  N   UNL     1       6.812   3.393  11.577  0.00  0.00    +0.000 N 
ATOM     23  H   UNL     1       7.068   2.413  11.634  0.00  0.00    +0.000 HD
ATOM     24  H   UNL     1       7.511   3.927  11.056  0.00  0.00    +0.000 HD
ENDBRANCH  16  22
ENDBRANCH  15  19
ENDBRANCH  10  15
ENDBRANCH   6  10
ENDBRANCH   5   7
ENDBRANCH   1   5
BRANCH   2  25
ATOM     25  C   UNL     1       1.884   9.498  17.774  0.00  0.00    +0.000 C 
BRANCH  25  26
ATOM     26  N   UNL     1       0.446   9.781  17.771  0.00  0.00    +0.000 N 
ATOM     27  C   UNL     1      -0.123  10.625  18.688  0.00  0.00    +0.000 C 
ATOM     28  O   UNL     1       0.501  11.158  19.586  0.00  0.00    +0.000 OA
ATOM     29  H   UNL     1      -0.090   9.372  17.019  0.00  0.00    +0.000 HD
BRANCH  27  30
ATOM     30  C   UNL     1      -1.599  10.896  18.509  0.00  0.00    +0.000 A 
ATOM     31  C   UNL     1      -2.387  10.206  17.575  0.00  0.00    +0.000 A 
ATOM     32  C   UNL     1      -3.754  10.503  17.432  0.00  0.00    +0.000 A 
ATOM     33  C   UNL     1      -4.361  11.452  18.259  0.00  0.00    +0.000 A 
ATOM     34  C   UNL     1      -3.580  12.152  19.189  0.00  0.00    +0.000 A 
ATOM     35  C   UNL     1      -2.209  11.876  19.307  0.00  0.00    +0.000 A 
BRANCH  33  36
ATOM     36  S   UNL     1      -6.065  11.922  18.019  0.00  0.00    +0.000 S 
ATOM     37  O   UNL     1      -6.181  12.656  16.782  0.00  0.00    +0.000 OA
ATOM     38  O   UNL     1      -6.896  10.780  18.324  0.00  0.00    +0.000 OA
BRANCH  36  39
ATOM     39  N   UNL     1      -6.431  13.056  19.209  0.00  0.00    +0.000 NA
ATOM     40  H   UNL     1      -6.712  12.582  20.072  0.00  0.00    +0.000 HD
ATOM     41  H   UNL     1      -5.600  13.643  19.353  0.00  0.00    +0.000 HD
ENDBRANCH  36  39
ENDBRANCH  33  36
ENDBRANCH  27  30
ENDBRANCH  25  26
ENDBRANCH   2  25
TORSDOF 13
ENDMDL
MODEL 7
REMARK VINA RESULT:      -7.1      2.187      3.837
REMARK  Name = 
REMARK  13 active torsions:
REMARK  status: ('A' for Active; 'I' for Inactive)
REMARK    1  A    between atoms: N_1  and  C_2
REMARK    2  A    between atoms: C_5  and  C_6
REMARK    3  A    between atoms: C_6  and  CA_7
REMARK    4  A    between atoms: CA_7  and  N_8
REMARK    5  A    between atoms: CA_7  and  C_29
REMARK    6  A    between atoms: C_9  and  C_11
REMARK    7  A    between atoms: C_11  and  N_12
REMARK    8  A    between atoms: C_13  and  C_15
REMARK    9  A    between atoms: C_15  and  N_16
REMARK   10  A    between atoms: C_17  and  C_19
REMARK   11  A    between atoms: C_22  and  S_23
REMARK   12  A    between atoms: S_23  and  N_24
REMARK   13  A    between atoms: C_29  and  OXT_31
REMARK                            x       y       z     vdW  Elec       q    Type
REMARK                         _______ _______ _______ _____ _____    ______ ____
ROOT
ATOM      1  N   UNL     1       2.569   8.838  18.305  0.00  0.00    +0.000 N 
ATOM      2  C   UNL     1       1.329   9.422  18.211  0.00  0.00    +0.000 C 
ATOM      3  O   UNL     1       0.516   9.091  17.349  0.00  0.00    +0.000 OA
ATOM      4  H   UNL     1       3.133   9.019  19.132  0.00  0.00    +0.000 HD
ENDROOT
BRANCH   1   5
ATOM      5  C   UNL     1       3.103   7.964  17.275  0.00  0.00    +0.000 C 
BRANCH   5   7
ATOM      6  N   UNL     1       4.839   6.229  16.937  0.00  0.00    +0.000 N 
ATOM      7  C   UNL     1       3.852   6.718  17.756  0.00  0.00    +0.000 C 
ATOM      8  O   UNL     1       3.687   6.280  18.894  0.00  0.00    +0.000 OA
ATOM      9  H   UNL     1       4.960   6.631  16.011  0.00  0.00    +0.000 HD
BRANCH   6  10
ATOM     10  CA  UNL     1       5.603   5.021  17.305  0.00  0.00    +0.000 C 
BRANCH  10  11
ATOM     11  C   UNL     1       7.104   5.179  16.990  0.00  0.00    +0.000 C 
ATOM     12  O   UNL     1       7.969   4.328  17.135  0.00  0.00    +0.000 OA
BRANCH  11  13
ATOM     13  OXT UNL     1       7.419   6.448  16.617  0.00  0.00    +0.000 OA
ATOM     14  HXT UNL     1       6.865   6.734  15.865  0.00  0.00    +0.000 HD
ENDBRANCH  11  13
ENDBRANCH  10  11
BRANCH  10  15
ATOM     15  C   UNL     1       4.899   3.720  16.886  0.00  0.00    +0.000 C 
BRANCH  15  19
ATOM     16  C   UNL     1       1.745   2.983  19.610  0.00  0.00    +0.000 A 
ATOM     17  C   UNL     1       3.056   2.759  19.996  0.00  0.00    +0.000 A 
ATOM     18  C   UNL     1       4.058   2.731  19.047  0.00  0.00    +0.000 A 
ATOM     19  C   UNL     1       3.808   3.117  17.738  0.00  0.00    +0.000 A 
ATOM     20  C   UNL     1       2.464   3.250  17.316  0.00  0.00    +0.000 A 
ATOM     21  C   UNL     1       1.440   3.157  18.259  0.00  0.00    +0.000 A 
BRANCH  16  22
ATOM     22  N   UNL     1       0.793   3.230  20.602  0.00  0.00    +0.000 N 
ATOM     23  H   UNL     1       0.553   2.397  21.130  0.00  0.00    +0.000 HD
ATOM     24  H   UNL     1      -0.039   3.660  20.192  0.00  0.00    +0.000 HD
ENDBRANCH  16  22
ENDBRANCH  15  19
ENDBRANCH  10  15
ENDBRANCH   6  10
ENDBRANCH   5   7
ENDBRANCH   1   5
BRANCH   2  25
ATOM     25  C   UNL     1       0.990  10.397  19.341  0.00  0.00    +0.000 C 
BRANCH  25  26
ATOM     26  N   UNL     1      -0.442  10.703  19.325  0.00  0.00    +0.000 N 
ATOM     27  C   UNL     1      -0.931  11.883  19.822  0.00  0.00    +0.000 C 
ATOM     28  O   UNL     1      -0.233  12.730  20.347  0.00  0.00    +0.000 OA
ATOM     29  H   UNL     1      -1.041  10.028  18.871  0.00  0.00    +0.000 HD
BRANCH  27  30
ATOM     30  C   UNL     1      -2.417  12.104  19.657  0.00  0.00    +0.000 A 
ATOM     31  C   UNL     1      -3.161  12.919  20.524  0.00  0.00    +0.000 A 
ATOM     32  C   UNL     1      -4.546  13.083  20.341  0.00  0.00    +0.000 A 
ATOM     33  C   UNL     1      -5.192  12.480  19.258  0.00  0.00    +0.000 A 
ATOM     34  C   UNL     1      -4.457  11.659  18.392  0.00  0.00    +0.000 A 
ATOM     35  C   UNL     1      -3.082  11.471  18.596  0.00  0.00    +0.000 A 
BRANCH  33  36
ATOM     36  S   UNL     1      -6.963  12.584  19.073  0.00  0.00    +0.000 S 
ATOM     37  O   UNL     1      -7.268  13.188  17.798  0.00  0.00    +0.000 OA
ATOM     38  O   UNL     1      -7.536  11.326  19.493  0.00  0.00    +0.000 OA
BRANCH  36  39
ATOM     39  N   UNL     1      -7.507  13.708  20.203  0.00  0.00    +0.000 NA
ATOM     40  H   UNL     1      -7.685  13.246  21.100  0.00  0.00    +0.000 HD
ATOM     41  H   UNL     1      -6.792  14.441  20.290  0.00  0.00    +0.000 HD
ENDBRANCH  36  39
ENDBRANCH  33  36
ENDBRANCH  27  30
ENDBRANCH  25  26
ENDBRANCH   2  25
TORSDOF 13
ENDMDL
MODEL 8
REMARK VINA RESULT:      -7.1      3.175      5.389
REMARK  Name = 
REMARK  13 active torsions:
REMARK  status: ('A' for Active; 'I' for Inactive)
REMARK    1  A    between atoms: N_1  and  C_2
REMARK    2  A    between atoms: C_5  and  C_6
REMARK    3  A    between atoms: C_6  and  CA_7
REMARK    4  A    between atoms: CA_7  and  N_8
REMARK    5  A    between atoms: CA_7  and  C_29
REMARK    6  A    between atoms: C_9  and  C_11
REMARK    7  A    between atoms: C_11  and  N_12
REMARK    8  A    between atoms: C_13  and  C_15
REMARK    9  A    between atoms: C_15  and  N_16
REMARK   10  A    between atoms: C_17  and  C_19
REMARK   11  A    between atoms: C_22  and  S_23
REMARK   12  A    between atoms: S_23  and  N_24
REMARK   13  A    between atoms: C_29  and  OXT_31
REMARK                            x       y       z     vdW  Elec       q    Type
REMARK                         _______ _______ _______ _____ _____    ______ ____
ROOT
ATOM      1  N   UNL     1       2.965   3.379  18.728  0.00  0.00    +0.000 N 
ATOM      2  C   UNL     1       1.717   3.010  19.166  0.00  0.00    +0.000 C 
ATOM      3  O   UNL     1       1.023   2.200  18.553  0.00  0.00    +0.000 OA
ATOM      4  H   UNL     1       3.565   3.911  19.353  0.00  0.00    +0.000 HD
ENDROOT
BRANCH   1   5
ATOM      5  C   UNL     1       3.466   3.030  17.410  0.00  0.00    +0.000 C 
BRANCH   5   7
ATOM      6  N   UNL     1       5.608   3.324  16.199  0.00  0.00    +0.000 N 
ATOM      7  C   UNL     1       4.554   3.937  16.829  0.00  0.00    +0.000 C 
ATOM      8  O   UNL     1       4.404   5.158  16.787  0.00  0.00    +0.000 OA
ATOM      9  H   UNL     1       5.687   2.312  16.237  0.00  0.00    +0.000 HD
BRANCH   6  10
ATOM     10  CA  UNL     1       6.716   4.113  15.625  0.00  0.00    +0.000 C 
BRANCH  10  11
ATOM     11  C   UNL     1       7.476   4.901  16.711  0.00  0.00    +0.000 C 
ATOM     12  O   UNL     1       7.968   4.440  17.730  0.00  0.00    +0.000 OA
BRANCH  11  13
ATOM     13  OXT UNL     1       7.460   6.240  16.478  0.00  0.00    +0.000 OA
ATOM     14  HXT UNL     1       6.940   6.446  15.677  0.00  0.00    +0.000 HD
ENDBRANCH  11  13
ENDBRANCH  10  11
BRANCH  10  15
ATOM     15  C   UNL     1       6.318   4.843  14.331  0.00  0.00    +0.000 C 
BRANCH  15  19
ATOM     16  C   UNL     1       6.060   1.943  11.259  0.00  0.00    +0.000 A 
ATOM     17  C   UNL     1       7.284   2.509  11.573  0.00  0.00    +0.000 A 
ATOM     18  C   UNL     1       7.339   3.636  12.368  0.00  0.00    +0.000 A 
ATOM     19  C   UNL     1       6.207   4.100  13.021  0.00  0.00    +0.000 A 
ATOM     20  C   UNL     1       4.945   3.593  12.633  0.00  0.00    +0.000 A 
ATOM     21  C   UNL     1       4.884   2.530  11.732  0.00  0.00    +0.000 A 
BRANCH  16  22
ATOM     22  N   UNL     1       6.044   0.687  10.649  0.00  0.00    +0.000 N 
ATOM     23  H   UNL     1       6.930   0.453  10.212  0.00  0.00    +0.000 HD
ATOM     24  H   UNL     1       5.276   0.632   9.977  0.00  0.00    +0.000 HD
ENDBRANCH  16  22
ENDBRANCH  15  19
ENDBRANCH  10  15
ENDBRANCH   6  10
ENDBRANCH   5   7
ENDBRANCH   1   5
BRANCH   2  25
ATOM     25  C   UNL     1       1.327   3.565  20.538  0.00  0.00    +0.000 C 
BRANCH  25  26
ATOM     26  N   UNL     1       1.073   5.004  20.442  0.00  0.00    +0.000 N 
ATOM     27  C   UNL     1       2.096   5.912  20.352  0.00  0.00    +0.000 C 
ATOM     28  O   UNL     1       3.272   5.601  20.393  0.00  0.00    +0.000 OA
ATOM     29  H   UNL     1       0.105   5.287  20.379  0.00  0.00    +0.000 HD
BRANCH  27  30
ATOM     30  C   UNL     1       1.686   7.354  20.165  0.00  0.00    +0.000 A 
ATOM     31  C   UNL     1       1.097   8.111  21.189  0.00  0.00    +0.000 A 
ATOM     32  C   UNL     1       0.716   9.446  20.965  0.00  0.00    +0.000 A 
ATOM     33  C   UNL     1       0.972  10.057  19.734  0.00  0.00    +0.000 A 
ATOM     34  C   UNL     1       1.554   9.305  18.704  0.00  0.00    +0.000 A 
ATOM     35  C   UNL     1       1.902   7.964  18.920  0.00  0.00    +0.000 A 
BRANCH  33  36
ATOM     36  S   UNL     1       0.398  11.711  19.394  0.00  0.00    +0.000 S 
ATOM     37  O   UNL     1       1.536  12.588  19.269  0.00  0.00    +0.000 OA
ATOM     38  O   UNL     1      -0.635  11.632  18.386  0.00  0.00    +0.000 OA
BRANCH  36  39
ATOM     39  N   UNL     1      -0.390  12.250  20.781  0.00  0.00    +0.000 NA
ATOM     40  H   UNL     1      -0.627  11.455  21.382  0.00  0.00    +0.000 HD
ATOM     41  H   UNL     1       0.232  12.914  21.260  0.00  0.00    +0.000 HD
ENDBRANCH  36  39
ENDBRANCH  33  36
ENDBRANCH  27  30
ENDBRANCH  25  26
ENDBRANCH   2  25
TORSDOF 13
ENDMDL
MODEL 9
REMARK VINA RESULT:      -7.1      3.920     11.426
REMARK  Name = 
REMARK  13 active torsions:
REMARK  status: ('A' for Active; 'I' for Inactive)
REMARK    1  A    between atoms: N_1  and  C_2
REMARK    2  A    between atoms: C_5  and  C_6
REMARK    3  A    between atoms: C_6  and  CA_7
REMARK    4  A    between atoms: CA_7  and  N_8
REMARK    5  A    between atoms: CA_7  and  C_29
REMARK    6  A    between atoms: C_9  and  C_11
REMARK    7  A    between atoms: C_11  and  N_12
REMARK    8  A    between atoms: C_13  and  C_15
REMARK    9  A    between atoms: C_15  and  N_16
REMARK   10  A    between atoms: C_17  and  C_19
REMARK   11  A    between atoms: C_22  and  S_23
REMARK   12  A    between atoms: S_23  and  N_24
REMARK   13  A    between atoms: C_29  and  OXT_31
REMARK                            x       y       z     vdW  Elec       q    Type
REMARK                         _______ _______ _______ _____ _____    ______ ____
ROOT
ATOM      1  N   UNL     1      -0.808  10.544  19.969  0.00  0.00    +0.000 N 
ATOM      2  C   UNL     1       0.355  10.060  19.423  0.00  0.00    +0.000 C 
ATOM      3  O   UNL     1       0.861  10.558  18.418  0.00  0.00    +0.000 OA
ATOM      4  H   UNL     1      -1.089  10.214  20.889  0.00  0.00    +0.000 HD
ENDROOT
BRANCH   1   5
ATOM      5  C   UNL     1      -1.647  11.516  19.290  0.00  0.00    +0.000 C 
BRANCH   5   7
ATOM      6  N   UNL     1      -3.090  12.300  21.145  0.00  0.00    +0.000 N 
ATOM      7  C   UNL     1      -2.213  12.650  20.149  0.00  0.00    +0.000 C 
ATOM      8  O   UNL     1      -1.773  13.796  20.055  0.00  0.00    +0.000 OA
ATOM      9  H   UNL     1      -3.414  11.339  21.205  0.00  0.00    +0.000 HD
BRANCH   6  10
ATOM     10  CA  UNL     1      -3.704  13.324  22.014  0.00  0.00    +0.000 C 
BRANCH  10  11
ATOM     11  C   UNL     1      -3.705  12.889  23.493  0.00  0.00    +0.000 C 
ATOM     12  O   UNL     1      -4.307  11.937  23.967  0.00  0.00    +0.000 OA
BRANCH  11  13
ATOM     13  OXT UNL     1      -3.030  13.763  24.285  0.00  0.00    +0.000 OA
ATOM     14  HXT UNL     1      -2.097  13.488  24.386  0.00  0.00    +0.000 HD
ENDBRANCH  11  13
ENDBRANCH  10  11
BRANCH  10  15
ATOM     15  C   UNL     1      -4.994  13.912  21.420  0.00  0.00    +0.000 C 
BRANCH  15  19
ATOM     16  C   UNL     1      -7.120  10.721  19.628  0.00  0.00    +0.000 A 
ATOM     17  C   UNL     1      -6.320  11.540  18.850  0.00  0.00    +0.000 A 
ATOM     18  C   UNL     1      -5.847  12.731  19.363  0.00  0.00    +0.000 A 
ATOM     19  C   UNL     1      -5.995  13.033  20.709  0.00  0.00    +0.000 A 
ATOM     20  C   UNL     1      -6.888  12.256  21.483  0.00  0.00    +0.000 A 
ATOM     21  C   UNL     1      -7.463  11.115  20.923  0.00  0.00    +0.000 A 
BRANCH  16  22
ATOM     22  N   UNL     1      -7.395   9.430  19.171  0.00  0.00    +0.000 N 
ATOM     23  H   UNL     1      -7.859   9.425  18.269  0.00  0.00    +0.000 HD
ATOM     24  H   UNL     1      -7.938   8.918  19.869  0.00  0.00    +0.000 HD
ENDBRANCH  16  22
ENDBRANCH  15  19
ENDBRANCH  10  15
ENDBRANCH   6  10
ENDBRANCH   5   7
ENDBRANCH   1   5
BRANCH   2  25
ATOM     25  C   UNL     1       1.042   8.961  20.239  0.00  0.00    +0.000 C 
BRANCH  25  26
ATOM     26  N   UNL     1       2.028   8.264  19.410  0.00  0.00    +0.000 N 
ATOM     27  C   UNL     1       2.309   6.935  19.591  0.00  0.00    +0.000 C 
ATOM     28  O   UNL     1       1.806   6.257  20.468  0.00  0.00    +0.000 OA
ATOM     29  H   UNL     1       2.440   8.797  18.658  0.00  0.00    +0.000 HD
BRANCH  27  30
ATOM     30  C   UNL     1       3.279   6.324  18.606  0.00  0.00    +0.000 A 
ATOM     31  C   UNL     1       3.540   4.946  18.558  0.00  0.00    +0.000 A 
ATOM     32  C   UNL     1       4.463   4.424  17.634  0.00  0.00    +0.000 A 
ATOM     33  C   UNL     1       5.092   5.265  16.711  0.00  0.00    +0.000 A 
ATOM     34  C   UNL     1       4.842   6.643  16.758  0.00  0.00    +0.000 A 
ATOM     35  C   UNL     1       3.945   7.165  17.702  0.00  0.00    +0.000 A 
BRANCH  33  36
ATOM     36  S   UNL     1       6.346   4.640  15.608  0.00  0.00    +0.000 S 
ATOM     37  O   UNL     1       6.040   3.271  15.274  0.00  0.00    +0.000 OA
ATOM     38  O   UNL     1       6.605   5.646  14.603  0.00  0.00    +0.000 OA
BRANCH  36  39
ATOM     39  N   UNL     1       7.773   4.540  16.497  0.00  0.00    +0.000 NA
ATOM     40  H   UNL     1       7.560   4.408  17.491  0.00  0.00    +0.000 HD
ATOM     41  H   UNL     1       8.325   3.757  16.122  0.00  0.00    +0.000 HD
ENDBRANCH  36  39
ENDBRANCH  33  36
ENDBRANCH  27  30
ENDBRANCH  25  26
ENDBRANCH   2  25
TORSDOF 13
ENDMDL
