MODEL 1
REMARK VINA RESULT:      -7.6      0.000      0.000
REMARK  Name = 
REMARK  5 active torsions:
REMARK  status: ('A' for Active; 'I' for Inactive)
REMARK    1  A    between atoms: C_1  and  N_2
REMARK    2  A    between atoms: C_3  and  S_4
REMARK    3  A    between atoms: S_4  and  C_5
REMARK    4  A    between atoms: C_5  and  C_6
REMARK    5  A    between atoms: C_6  and  C_8
REMARK                            x       y       z     vdW  Elec       q    Type
REMARK                         _______ _______ _______ _____ _____    ______ ____
ROOT
ATOM      1  C   UNL     1       7.358   6.308  16.868  0.00  0.00    +0.000 C 
ATOM      2  N   UNL     1       6.576   5.368  16.106  0.00  0.00    +0.000 N 
ATOM      3  C   UNL     1       5.475   4.631  16.469  0.00  0.00    +0.000 A 
ATOM      4  N   UNL     1       5.031   3.881  15.481  0.00  0.00    +0.000 NA
ATOM      5  C   UNL     1       5.884   4.133  14.435  0.00  0.00    +0.000 A 
ATOM      6  C   UNL     1       5.926   3.630  13.130  0.00  0.00    +0.000 A 
ATOM      7  C   UNL     1       6.945   4.098  12.296  0.00  0.00    +0.000 A 
ATOM      8  C   UNL     1       7.855   5.028  12.789  0.00  0.00    +0.000 A 
ATOM      9  N   UNL     1       7.857   5.546  14.041  0.00  0.00    +0.000 NA
ATOM     10  C   UNL     1       6.856   5.057  14.800  0.00  0.00    +0.000 A 
ENDROOT
BRANCH   3  11
ATOM     11  S   UNL     1       4.764   4.689  18.053  0.00  0.00    +0.000 S 
BRANCH  11  12
ATOM     12  C   UNL     1       3.529   6.014  17.836  0.00  0.00    +0.000 C 
BRANCH  12  13
ATOM     13  C   UNL     1       2.601   6.147  19.041  0.00  0.00    +0.000 C 
ATOM     14  O   UNL     1       2.262   7.220  19.539  0.00  0.00    +0.000 OA
BRANCH  13  15
ATOM     15  C   UNL     1       2.113   4.890  19.694  0.00  0.00    +0.000 A 
ATOM     16  C   UNL     1       2.445   4.659  21.038  0.00  0.00    +0.000 A 
ATOM     17  C   UNL     1       2.005   3.506  21.692  0.00  0.00    +0.000 A 
ATOM     18  C   UNL     1       1.218   2.578  21.011  0.00  0.00    +0.000 A 
ATOM     19  C   UNL     1       0.875   2.803  19.679  0.00  0.00    +0.000 A 
ATOM     20  C   UNL     1       1.322   3.952  19.018  0.00  0.00    +0.000 A 
ENDBRANCH  13  15
ENDBRANCH  12  13
ENDBRANCH  11  12
ENDBRANCH   3  11
TORSDOF 4
ENDMDL
MODEL 2
REMARK VINA RESULT:      -7.6      0.789      1.353
REMARK  Name = 
REMARK  5 active torsions:
REMARK  status: ('A' for Active; 'I' for Inactive)
REMARK    1  A    between atoms: C_1  and  N_2
REMARK    2  A    between atoms: C_3  and  S_4
REMARK    3  A    between atoms: S_4  and  C_5
REMARK    4  A    between atoms: C_5  and  C_6
REMARK    5  A    between atoms: C_6  and  C_8
REMARK                            x       y       z     vdW  Elec       q    Type
REMARK                         _______ _______ _______ _____ _____    ______ ____
ROOT
ATOM      1  C   UNL     1       7.501   6.655  17.322  0.00  0.00    +0.000 C 
ATOM      2  N   UNL     1       6.595   5.682  16.769  0.00  0.00    +0.000 N 
ATOM      3  C   UNL     1       5.502   5.067  17.332  0.00  0.00    +0.000 A 
ATOM      4  N   UNL     1       4.917   4.232  16.496  0.00  0.00    +0.000 NA
ATOM      5  C   UNL     1       5.665   4.299  15.347  0.00  0.00    +0.000 A 
ATOM      6  C   UNL     1       5.541   3.639  14.119  0.00  0.00    +0.000 A 
ATOM      7  C   UNL     1       6.487   3.936  13.134  0.00  0.00    +0.000 A 
ATOM      8  C   UNL     1       7.492   4.859  13.411  0.00  0.00    +0.000 A 
ATOM      9  N   UNL     1       7.654   5.524  14.580  0.00  0.00    +0.000 NA
ATOM     10  C   UNL     1       6.717   5.197  15.491  0.00  0.00    +0.000 A 
ENDROOT
BRANCH   3  11
ATOM     11  S   UNL     1       4.969   5.362  18.958  0.00  0.00    +0.000 S 
BRANCH  11  12
ATOM     12  C   UNL     1       3.583   6.513  18.670  0.00  0.00    +0.000 C 
BRANCH  12  13
ATOM     13  C   UNL     1       2.405   6.249  19.605  0.00  0.00    +0.000 C 
ATOM     14  O   UNL     1       1.879   7.105  20.314  0.00  0.00    +0.000 OA
BRANCH  13  15
ATOM     15  C   UNL     1       1.889   4.846  19.705  0.00  0.00    +0.000 A 
ATOM     16  C   UNL     1       1.571   4.162  18.522  0.00  0.00    +0.000 A 
ATOM     17  C   UNL     1       1.095   2.849  18.564  0.00  0.00    +0.000 A 
ATOM     18  C   UNL     1       0.944   2.204  19.791  0.00  0.00    +0.000 A 
ATOM     19  C   UNL     1       1.265   2.872  20.972  0.00  0.00    +0.000 A 
ATOM     20  C   UNL     1       1.733   4.191  20.933  0.00  0.00    +0.000 A 
ENDBRANCH  13  15
ENDBRANCH  12  13
ENDBRANCH  11  12
ENDBRANCH   3  11
TORSDOF 4
ENDMDL
MODEL 3
REMARK VINA RESULT:      -7.2      2.708      6.878
REMARK  Name = 
REMARK  5 active torsions:
REMARK  status: ('A' for Active; 'I' for Inactive)
REMARK    1  A    between atoms: C_1  and  N_2
REMARK    2  A    between atoms: C_3  and  S_4
REMARK    3  A    between atoms: S_4  and  C_5
REMARK    4  A    between atoms: C_5  and  C_6
REMARK    5  A    between atoms: C_6  and  C_8
REMARK                            x       y       z     vdW  Elec       q    Type
REMARK                         _______ _______ _______ _____ _____    ______ ____
ROOT
ATOM      1  C   UNL     1       3.290   6.798  18.105  0.00  0.00    +0.000 C 
ATOM      2  N   UNL     1       3.792   5.493  18.450  0.00  0.00    +0.000 N 
ATOM      3  C   UNL     1       5.081   5.065  18.656  0.00  0.00    +0.000 A 
ATOM      4  N   UNL     1       5.137   3.785  18.967  0.00  0.00    +0.000 NA
ATOM      5  C   UNL     1       3.830   3.362  18.955  0.00  0.00    +0.000 A 
ATOM      6  C   UNL     1       3.260   2.108  19.199  0.00  0.00    +0.000 A 
ATOM      7  C   UNL     1       1.869   2.007  19.101  0.00  0.00    +0.000 A 
ATOM      8  C   UNL     1       1.126   3.138  18.774  0.00  0.00    +0.000 A 
ATOM      9  N   UNL     1       1.630   4.372  18.530  0.00  0.00    +0.000 NA
ATOM     10  C   UNL     1       2.973   4.408  18.636  0.00  0.00    +0.000 A 
ENDROOT
BRANCH   3  11
ATOM     11  S   UNL     1       6.469   6.101  18.513  0.00  0.00    +0.000 S 
BRANCH  11  12
ATOM     12  C   UNL     1       6.650   6.198  16.700  0.00  0.00    +0.000 C 
BRANCH  12  13
ATOM     13  C   UNL     1       7.286   4.941  16.112  0.00  0.00    +0.000 C 
ATOM     14  O   UNL     1       8.059   4.206  16.725  0.00  0.00    +0.000 OA
BRANCH  13  15
ATOM     15  C   UNL     1       6.995   4.609  14.681  0.00  0.00    +0.000 A 
ATOM     16  C   UNL     1       5.868   3.824  14.391  0.00  0.00    +0.000 A 
ATOM     17  C   UNL     1       5.549   3.496  13.071  0.00  0.00    +0.000 A 
ATOM     18  C   UNL     1       6.349   3.960  12.027  0.00  0.00    +0.000 A 
ATOM     19  C   UNL     1       7.465   4.748  12.304  0.00  0.00    +0.000 A 
ATOM     20  C   UNL     1       7.792   5.071  13.626  0.00  0.00    +0.000 A 
ENDBRANCH  13  15
ENDBRANCH  12  13
ENDBRANCH  11  12
ENDBRANCH   3  11
TORSDOF 4
ENDMDL
MODEL 4
REMARK VINA RESULT:      -7.2      2.501      7.421
REMARK  Name = 
REMARK  5 active torsions:
REMARK  status: ('A' for Active; 'I' for Inactive)
REMARK    1  A    between atoms: C_1  and  N_2
REMARK    2  A    between atoms: C_3  and  S_4
REMARK    3  A    between atoms: S_4  and  C_5
REMARK    4  A    between atoms: C_5  and  C_6
REMARK    5  A    between atoms: C_6  and  C_8
REMARK                            x       y       z     vdW  Elec       q    Type
REMARK                         _______ _______ _______ _____ _____    ______ ____
ROOT
ATOM      1  C   UNL     1       3.680   6.310  18.215  0.00  0.00    +0.000 C 
ATOM      2  N   UNL     1       3.876   5.089  18.955  0.00  0.00    +0.000 N 
ATOM      3  C   UNL     1       5.018   4.359  19.173  0.00  0.00    +0.000 A 
ATOM      4  N   UNL     1       4.793   3.293  19.915  0.00  0.00    +0.000 NA
ATOM      5  C   UNL     1       3.447   3.327  20.183  0.00  0.00    +0.000 A 
ATOM      6  C   UNL     1       2.624   2.463  20.915  0.00  0.00    +0.000 A 
ATOM      7  C   UNL     1       1.267   2.787  20.996  0.00  0.00    +0.000 A 
ATOM      8  C   UNL     1       0.801   3.934  20.360  0.00  0.00    +0.000 A 
ATOM      9  N   UNL     1       1.555   4.802  19.641  0.00  0.00    +0.000 NA
ATOM     10  C   UNL     1       2.852   4.438  19.595  0.00  0.00    +0.000 A 
ENDROOT
BRANCH   3  11
ATOM     11  S   UNL     1       6.573   4.798  18.533  0.00  0.00    +0.000 S 
BRANCH  11  12
ATOM     12  C   UNL     1       6.440   4.171  16.825  0.00  0.00    +0.000 C 
BRANCH  12  13
ATOM     13  C   UNL     1       6.773   5.240  15.787  0.00  0.00    +0.000 C 
ATOM     14  O   UNL     1       6.929   6.432  16.048  0.00  0.00    +0.000 OA
BRANCH  13  15
ATOM     15  C   UNL     1       6.865   4.821  14.352  0.00  0.00    +0.000 A 
ATOM     16  C   UNL     1       6.009   3.809  13.893  0.00  0.00    +0.000 A 
ATOM     17  C   UNL     1       6.051   3.391  12.560  0.00  0.00    +0.000 A 
ATOM     18  C   UNL     1       6.943   3.990  11.672  0.00  0.00    +0.000 A 
ATOM     19  C   UNL     1       7.791   5.003  12.116  0.00  0.00    +0.000 A 
ATOM     20  C   UNL     1       7.758   5.418  13.453  0.00  0.00    +0.000 A 
ENDBRANCH  13  15
ENDBRANCH  12  13
ENDBRANCH  11  12
ENDBRANCH   3  11
TORSDOF 4
ENDMDL
MODEL 5
REMARK VINA RESULT:      -7.1      2.693      6.852
REMARK  Name = 
REMARK  5 active torsions:
REMARK  status: ('A' for Active; 'I' for Inactive)
REMARK    1  A    between atoms: C_1  and  N_2
REMARK    2  A    between atoms: C_3  and  S_4
REMARK    3  A    between atoms: S_4  and  C_5
REMARK    4  A    between atoms: C_5  and  C_6
REMARK    5  A    between atoms: C_6  and  C_8
REMARK                            x       y       z     vdW  Elec       q    Type
REMARK                         _______ _______ _______ _____ _____    ______ ____
ROOT
ATOM      1  C   UNL     1       3.135   6.705  18.505  0.00  0.00    +0.000 C 
ATOM      2  N   UNL     1       3.657   5.373  18.669  0.00  0.00    +0.000 N 
ATOM      3  C   UNL     1       4.957   4.933  18.744  0.00  0.00    +0.000 A 
ATOM      4  N   UNL     1       5.031   3.627  18.905  0.00  0.00    +0.000 NA
ATOM      5  C   UNL     1       3.727   3.199  18.926  0.00  0.00    +0.000 A 
ATOM      6  C   UNL     1       3.172   1.921  19.062  0.00  0.00    +0.000 A 
ATOM      7  C   UNL     1       1.778   1.823  19.040  0.00  0.00    +0.000 A 
ATOM      8  C   UNL     1       1.016   2.978  18.889  0.00  0.00    +0.000 A 
ATOM      9  N   UNL     1       1.504   4.236  18.755  0.00  0.00    +0.000 NA
ATOM     10  C   UNL     1       2.851   4.269  18.781  0.00  0.00    +0.000 A 
ENDROOT
BRANCH   3  11
ATOM     11  S   UNL     1       6.333   5.988  18.633  0.00  0.00    +0.000 S 
BRANCH  11  12
ATOM     12  C   UNL     1       6.496   6.164  16.825  0.00  0.00    +0.000 C 
BRANCH  12  13
ATOM     13  C   UNL     1       7.208   4.974  16.188  0.00  0.00    +0.000 C 
ATOM     14  O   UNL     1       8.084   4.312  16.745  0.00  0.00    +0.000 OA
BRANCH  13  15
ATOM     15  C   UNL     1       6.858   4.618  14.776  0.00  0.00    +0.000 A 
ATOM     16  C   UNL     1       7.700   5.062  13.744  0.00  0.00    +0.000 A 
ATOM     17  C   UNL     1       7.420   4.748  12.412  0.00  0.00    +0.000 A 
ATOM     18  C   UNL     1       6.301   3.976  12.100  0.00  0.00    +0.000 A 
ATOM     19  C   UNL     1       5.463   3.523  13.119  0.00  0.00    +0.000 A 
ATOM     20  C   UNL     1       5.736   3.845  14.453  0.00  0.00    +0.000 A 
ENDBRANCH  13  15
ENDBRANCH  12  13
ENDBRANCH  11  12
ENDBRANCH   3  11
TORSDOF 4
ENDMDL
MODEL 6
REMARK VINA RESULT:      -7.0      1.918      2.129
REMARK  Name = 
REMARK  5 active torsions:
REMARK  status: ('A' for Active; 'I' for Inactive)
REMARK    1  A    between atoms: C_1  and  N_2
REMARK    2  A    between atoms: C_3  and  S_4
REMARK    3  A    between atoms: S_4  and  C_5
REMARK    4  A    between atoms: C_5  and  C_6
REMARK    5  A    between atoms: C_6  and  C_8
REMARK                            x       y       z     vdW  Elec       q    Type
REMARK                         _______ _______ _______ _____ _____    ______ ____
ROOT
ATOM      1  C   UNL     1       7.301   6.332  17.381  0.00  0.00    +0.000 C 
ATOM      2  N   UNL     1       6.459   5.457  16.607  0.00  0.00    +0.000 N 
ATOM      3  C   UNL     1       5.302   4.804  16.954  0.00  0.00    +0.000 A 
ATOM      4  N   UNL     1       4.813   4.094  15.957  0.00  0.00    +0.000 NA
ATOM      5  C   UNL     1       5.694   4.286  14.921  0.00  0.00    +0.000 A 
ATOM      6  C   UNL     1       5.711   3.787  13.614  0.00  0.00    +0.000 A 
ATOM      7  C   UNL     1       6.771   4.181  12.793  0.00  0.00    +0.000 A 
ATOM      8  C   UNL     1       7.744   5.038  13.300  0.00  0.00    +0.000 A 
ATOM      9  N   UNL     1       7.772   5.548  14.556  0.00  0.00    +0.000 NA
ATOM     10  C   UNL     1       6.729   5.133  15.301  0.00  0.00    +0.000 A 
ENDROOT
BRANCH   3  11
ATOM     11  S   UNL     1       4.580   4.907  18.531  0.00  0.00    +0.000 S 
BRANCH  11  12
ATOM     12  C   UNL     1       5.503   3.612  19.425  0.00  0.00    +0.000 C 
BRANCH  12  13
ATOM     13  C   UNL     1       4.582   2.672  20.199  0.00  0.00    +0.000 C 
ATOM     14  O   UNL     1       4.973   1.834  21.011  0.00  0.00    +0.000 OA
BRANCH  13  15
ATOM     15  C   UNL     1       3.113   2.736  19.915  0.00  0.00    +0.000 A 
ATOM     16  C   UNL     1       2.287   3.434  20.810  0.00  0.00    +0.000 A 
ATOM     17  C   UNL     1       0.912   3.530  20.583  0.00  0.00    +0.000 A 
ATOM     18  C   UNL     1       0.351   2.938  19.452  0.00  0.00    +0.000 A 
ATOM     19  C   UNL     1       1.165   2.250  18.552  0.00  0.00    +0.000 A 
ATOM     20  C   UNL     1       2.541   2.145  18.782  0.00  0.00    +0.000 A 
ENDBRANCH  13  15
ENDBRANCH  12  13
ENDBRANCH  11  12
ENDBRANCH   3  11
TORSDOF 4
ENDMDL
MODEL 7
REMARK VINA RESULT:      -7.0      1.844      3.147
REMARK  Name = 
REMARK  5 active torsions:
REMARK  status: ('A' for Active; 'I' for Inactive)
REMARK    1  A    between atoms: C_1  and  N_2
REMARK    2  A    between atoms: C_3  and  S_4
REMARK    3  A    between atoms: S_4  and  C_5
REMARK    4  A    between atoms: C_5  and  C_6
REMARK    5  A    between atoms: C_6  and  C_8
REMARK                            x       y       z     vdW  Elec       q    Type
REMARK                         _______ _______ _______ _____ _____    ______ ____
ROOT
ATOM      1  C   UNL     1       7.359   6.168  17.059  0.00  0.00    +0.000 C 
ATOM      2  N   UNL     1       6.587   5.263  16.247  0.00  0.00    +0.000 N 
ATOM      3  C   UNL     1       5.479   4.514  16.561  0.00  0.00    +0.000 A 
ATOM      4  N   UNL     1       5.049   3.808  15.535  0.00  0.00    +0.000 NA
ATOM      5  C   UNL     1       5.918   4.104  14.513  0.00  0.00    +0.000 A 
ATOM      6  C   UNL     1       5.978   3.658  13.188  0.00  0.00    +0.000 A 
ATOM      7  C   UNL     1       7.009   4.159  12.390  0.00  0.00    +0.000 A 
ATOM      8  C   UNL     1       7.914   5.065  12.936  0.00  0.00    +0.000 A 
ATOM      9  N   UNL     1       7.898   5.528  14.210  0.00  0.00    +0.000 NA
ATOM     10  C   UNL     1       6.886   5.009  14.932  0.00  0.00    +0.000 A 
ENDROOT
BRANCH   3  11
ATOM     11  S   UNL     1       4.745   4.504  18.136  0.00  0.00    +0.000 S 
BRANCH  11  12
ATOM     12  C   UNL     1       3.556   5.878  17.977  0.00  0.00    +0.000 C 
BRANCH  12  13
ATOM     13  C   UNL     1       2.859   6.197  19.297  0.00  0.00    +0.000 C 
ATOM     14  O   UNL     1       2.798   5.424  20.252  0.00  0.00    +0.000 OA
BRANCH  13  15
ATOM     15  C   UNL     1       2.159   7.516  19.421  0.00  0.00    +0.000 A 
ATOM     16  C   UNL     1       2.116   8.360  18.301  0.00  0.00    +0.000 A 
ATOM     17  C   UNL     1       1.467   9.596  18.366  0.00  0.00    +0.000 A 
ATOM     18  C   UNL     1       0.843   9.993  19.548  0.00  0.00    +0.000 A 
ATOM     19  C   UNL     1       0.872   9.156  20.664  0.00  0.00    +0.000 A 
ATOM     20  C   UNL     1       1.530   7.923  20.605  0.00  0.00    +0.000 A 
ENDBRANCH  13  15
ENDBRANCH  12  13
ENDBRANCH  11  12
ENDBRANCH   3  11
TORSDOF 4
ENDMDL
MODEL 8
REMARK VINA RESULT:      -7.0      1.735      2.608
REMARK  Name = 
REMARK  5 active torsions:
REMARK  status: ('A' for Active; 'I' for Inactive)
REMARK    1  A    between atoms: C_1  and  N_2
REMARK    2  A    between atoms: C_3  and  S_4
REMARK    3  A    between atoms: S_4  and  C_5
REMARK    4  A    between atoms: C_5  and  C_6
REMARK    5  A    between atoms: C_6  and  C_8
REMARK                            x       y       z     vdW  Elec       q    Type
REMARK                         _______ _______ _______ _____ _____    ______ ____
ROOT
ATOM      1  C   UNL     1       7.224   5.523  18.466  0.00  0.00    +0.000 C 
ATOM      2  N   UNL     1       6.385   4.793  17.550  0.00  0.00    +0.000 N 
ATOM      3  C   UNL     1       5.284   4.008  17.790  0.00  0.00    +0.000 A 
ATOM      4  N   UNL     1       4.777   3.510  16.680  0.00  0.00    +0.000 NA
ATOM      5  C   UNL     1       5.587   3.985  15.677  0.00  0.00    +0.000 A 
ATOM      6  C   UNL     1       5.556   3.795  14.291  0.00  0.00    +0.000 A 
ATOM      7  C   UNL     1       6.546   4.429  13.536  0.00  0.00    +0.000 A 
ATOM      8  C   UNL     1       7.501   5.209  14.182  0.00  0.00    +0.000 A 
ATOM      9  N   UNL     1       7.574   5.425  15.518  0.00  0.00    +0.000 NA
ATOM     10  C   UNL     1       6.597   4.788  16.195  0.00  0.00    +0.000 A 
ENDROOT
BRANCH   3  11
ATOM     11  S   UNL     1       4.648   3.709  19.379  0.00  0.00    +0.000 S 
BRANCH  11  12
ATOM     12  C   UNL     1       3.086   2.857  18.977  0.00  0.00    +0.000 C 
BRANCH  12  13
ATOM     13  C   UNL     1       2.027   3.813  18.434  0.00  0.00    +0.000 C 
ATOM     14  O   UNL     1       1.212   3.518  17.561  0.00  0.00    +0.000 OA
BRANCH  13  15
ATOM     15  C   UNL     1       2.011   5.216  18.958  0.00  0.00    +0.000 A 
ATOM     16  C   UNL     1       1.643   5.428  20.296  0.00  0.00    +0.000 A 
ATOM     17  C   UNL     1       1.622   6.717  20.833  0.00  0.00    +0.000 A 
ATOM     18  C   UNL     1       1.981   7.807  20.039  0.00  0.00    +0.000 A 
ATOM     19  C   UNL     1       2.357   7.605  18.712  0.00  0.00    +0.000 A 
ATOM     20  C   UNL     1       2.370   6.316  18.168  0.00  0.00    +0.000 A 
ENDBRANCH  13  15
ENDBRANCH  12  13
ENDBRANCH  11  12
ENDBRANCH   3  11
TORSDOF 4
ENDMDL
MODEL 9
REMARK VINA RESULT:      -7.0      2.476      7.407
REMARK  Name = 
REMARK  5 active torsions:
REMARK  status: ('A' for Active; 'I' for Inactive)
REMARK    1  A    between atoms: C_1  and  N_2
REMARK    2  A    between atoms: C_3  and  S_4
REMARK    3  A    between atoms: S_4  and  C_5
REMARK    4  A    between atoms: C_5  and  C_6
REMARK    5  A    between atoms: C_6  and  C_8
REMARK                            x       y       z     vdW  Elec       q    Type
REMARK                         _______ _______ _______ _____ _____    ______ ____
ROOT
ATOM      1  C   UNL     1       3.175   5.889  17.905  0.00  0.00    +0.000 C 
ATOM      2  N   UNL     1       3.602   4.869  18.828  0.00  0.00    +0.000 N 
ATOM      3  C   UNL     1       4.862   4.403  19.114  0.00  0.00    +0.000 A 
ATOM      4  N   UNL     1       4.845   3.458  20.033  0.00  0.00    +0.000 NA
ATOM      5  C   UNL     1       3.519   3.296  20.350  0.00  0.00    +0.000 A 
ATOM      6  C   UNL     1       2.879   2.438  21.251  0.00  0.00    +0.000 A 
ATOM      7  C   UNL     1       1.487   2.523  21.337  0.00  0.00    +0.000 A 
ATOM      8  C   UNL     1       0.810   3.441  20.539  0.00  0.00    +0.000 A 
ATOM      9  N   UNL     1       1.382   4.293  19.654  0.00  0.00    +0.000 NA
ATOM     10  C   UNL     1       2.723   4.165  19.612  0.00  0.00    +0.000 A 
ENDROOT
BRANCH   3  11
ATOM     11  S   UNL     1       6.301   4.997  18.343  0.00  0.00    +0.000 S 
BRANCH  11  12
ATOM     12  C   UNL     1       6.189   4.181  16.715  0.00  0.00    +0.000 C 
BRANCH  12  13
ATOM     13  C   UNL     1       6.197   5.181  15.563  0.00  0.00    +0.000 C 
ATOM     14  O   UNL     1       6.021   6.392  15.696  0.00  0.00    +0.000 OA
BRANCH  13  15
ATOM     15  C   UNL     1       6.378   4.652  14.173  0.00  0.00    +0.000 A 
ATOM     16  C   UNL     1       7.489   5.082  13.431  0.00  0.00    +0.000 A 
ATOM     17  C   UNL     1       7.706   4.609  12.135  0.00  0.00    +0.000 A 
ATOM     18  C   UNL     1       6.820   3.691  11.572  0.00  0.00    +0.000 A 
ATOM     19  C   UNL     1       5.718   3.251  12.305  0.00  0.00    +0.000 A 
ATOM     20  C   UNL     1       5.493   3.730  13.600  0.00  0.00    +0.000 A 
ENDBRANCH  13  15
ENDBRANCH  12  13
ENDBRANCH  11  12
ENDBRANCH   3  11
TORSDOF 4
ENDMDL
