MODEL 1
REMARK VINA RESULT:      -8.0      0.000      0.000
REMARK  Name = 
REMARK  6 active torsions:
REMARK  status: ('A' for Active; 'I' for Inactive)
REMARK    1  A    between atoms: C_1  and  C_2
REMARK    2  A    between atoms: C_2  and  C_3
REMARK    3  A    between atoms: C_3  and  C_4
REMARK    4  A    between atoms: C_4  and  O_6
REMARK    5  A    between atoms: O_6  and  C_7
REMARK    6  A    between atoms: C_14  and  C_15
REMARK                            x       y       z     vdW  Elec       q    Type
REMARK                         _______ _______ _______ _____ _____    ______ ____
ROOT
ATOM      1  C   UNL     1       5.854   5.265  18.377  0.00  0.00    +0.000 C 
ATOM      2  C   UNL     1       4.580   4.986  19.182  0.00  0.00    +0.000 C 
ATOM      3  C   UNL     1       3.323   5.411  18.431  0.00  0.00    +0.000 C 
ATOM      4  N   UNL     1       3.443   6.774  17.923  0.00  0.00    +0.000 N 
ATOM      5  C   UNL     1       2.619   7.765  18.426  0.00  0.00    +0.000 A 
ATOM      6  C   UNL     1       2.244   8.846  17.640  0.00  0.00    +0.000 A 
ATOM      7  C   UNL     1       1.349   9.806  18.120  0.00  0.00    +0.000 A 
ATOM      8  C   UNL     1       0.840   9.705  19.408  0.00  0.00    +0.000 A 
ATOM      9  N   UNL     1       1.241   8.672  20.171  0.00  0.00    +0.000 NA
ATOM     10  N   UNL     1       2.107   7.690  19.668  0.00  0.00    +0.000 NA
ATOM     11  C   UNL     1       4.624   7.099  17.137  0.00  0.00    +0.000 C 
ATOM     12  C   UNL     1       5.888   6.718  17.903  0.00  0.00    +0.000 C 
ENDROOT
BRANCH   8  13
ATOM     13  C   UNL     1      -0.120  10.682  19.974  0.00  0.00    +0.000 A 
ATOM     14  C   UNL     1       0.215  11.373  21.165  0.00  0.00    +0.000 A 
ATOM     15  C   UNL     1      -0.612  12.356  21.720  0.00  0.00    +0.000 A 
ATOM     16  C   UNL     1      -1.819  12.667  21.114  0.00  0.00    +0.000 A 
ATOM     17  C   UNL     1      -2.196  11.990  19.957  0.00  0.00    +0.000 A 
ATOM     18  C   UNL     1      -1.361  11.014  19.387  0.00  0.00    +0.000 A 
ATOM     19 CL   UNL     1      -1.937  10.317  17.908  0.00  0.00    +0.000 Cl
ENDBRANCH   8  13
BRANCH   1  20
ATOM     20  O   UNL     1       5.929   4.405  17.217  0.00  0.00    +0.000 OA
BRANCH  20  21
ATOM     21  C   UNL     1       7.111   4.427  16.539  0.00  0.00    +0.000 C 
ATOM     22  O   UNL     1       8.205   4.153  17.014  0.00  0.00    +0.000 OA
BRANCH  21  23
ATOM     23  C   UNL     1       6.893   4.815  15.096  0.00  0.00    +0.000 C 
BRANCH  23  25
ATOM     24  C   UNL     1       6.135   3.634  12.984  0.00  0.00    +0.000 C 
ATOM     25  C   UNL     1       5.818   3.957  14.437  0.00  0.00    +0.000 C 
ENDBRANCH  23  25
ENDBRANCH  21  23
ENDBRANCH  20  21
ENDBRANCH   1  20
TORSDOF 5
ENDMDL
MODEL 2
REMARK VINA RESULT:      -7.9      1.171      1.325
REMARK  Name = 
REMARK  6 active torsions:
REMARK  status: ('A' for Active; 'I' for Inactive)
REMARK    1  A    between atoms: C_1  and  C_2
REMARK    2  A    between atoms: C_2  and  C_3
REMARK    3  A    between atoms: C_3  and  C_4
REMARK    4  A    between atoms: C_4  and  O_6
REMARK    5  A    between atoms: O_6  and  C_7
REMARK    6  A    between atoms: C_14  and  C_15
REMARK                            x       y       z     vdW  Elec       q    Type
REMARK                         _______ _______ _______ _____ _____    ______ ____
ROOT
ATOM      1  C   UNL     1       5.671   4.837  17.850  0.00  0.00    +0.000 C 
ATOM      2  C   UNL     1       4.512   4.445  18.773  0.00  0.00    +0.000 C 
ATOM      3  C   UNL     1       3.175   4.980  18.272  0.00  0.00    +0.000 C 
ATOM      4  N   UNL     1       3.255   6.402  17.957  0.00  0.00    +0.000 N 
ATOM      5  C   UNL     1       2.530   7.310  18.707  0.00  0.00    +0.000 A 
ATOM      6  C   UNL     1       2.076   8.497  18.146  0.00  0.00    +0.000 A 
ATOM      7  C   UNL     1       1.276   9.377  18.880  0.00  0.00    +0.000 A 
ATOM      8  C   UNL     1       0.945   9.088  20.197  0.00  0.00    +0.000 A 
ATOM      9  N   UNL     1       1.422   7.953  20.738  0.00  0.00    +0.000 NA
ATOM     10  N   UNL     1       2.190   7.054  19.984  0.00  0.00    +0.000 NA
ATOM     11  C   UNL     1       4.326   6.837  17.072  0.00  0.00    +0.000 C 
ATOM     12  C   UNL     1       5.673   6.344  17.594  0.00  0.00    +0.000 C 
ENDROOT
BRANCH   8  13
ATOM     13  C   UNL     1       0.093   9.973  21.025  0.00  0.00    +0.000 A 
ATOM     14  C   UNL     1      -0.266   9.564  22.334  0.00  0.00    +0.000 A 
ATOM     15  C   UNL     1      -1.012  10.376  23.196  0.00  0.00    +0.000 A 
ATOM     16  C   UNL     1      -1.447  11.621  22.769  0.00  0.00    +0.000 A 
ATOM     17  C   UNL     1      -1.138  12.047  21.480  0.00  0.00    +0.000 A 
ATOM     18  C   UNL     1      -0.376  11.242  20.617  0.00  0.00    +0.000 A 
ATOM     19 CL   UNL     1      -0.013  11.945  19.074  0.00  0.00    +0.000 Cl
ENDBRANCH   8  13
BRANCH   1  20
ATOM     20  O   UNL     1       5.569   4.157  16.579  0.00  0.00    +0.000 OA
BRANCH  20  21
ATOM     21  C   UNL     1       6.542   4.450  15.670  0.00  0.00    +0.000 C 
ATOM     22  O   UNL     1       7.747   4.388  15.879  0.00  0.00    +0.000 OA
BRANCH  21  23
ATOM     23  C   UNL     1       5.936   4.846  14.345  0.00  0.00    +0.000 C 
BRANCH  23  25
ATOM     24  C   UNL     1       5.875   3.278  12.353  0.00  0.00    +0.000 C 
ATOM     25  C   UNL     1       6.709   4.253  13.173  0.00  0.00    +0.000 C 
ENDBRANCH  23  25
ENDBRANCH  21  23
ENDBRANCH  20  21
ENDBRANCH   1  20
TORSDOF 5
ENDMDL
MODEL 3
REMARK VINA RESULT:      -7.8      1.370      1.658
REMARK  Name = 
REMARK  6 active torsions:
REMARK  status: ('A' for Active; 'I' for Inactive)
REMARK    1  A    between atoms: C_1  and  C_2
REMARK    2  A    between atoms: C_2  and  C_3
REMARK    3  A    between atoms: C_3  and  C_4
REMARK    4  A    between atoms: C_4  and  O_6
REMARK    5  A    between atoms: O_6  and  C_7
REMARK    6  A    between atoms: C_14  and  C_15
REMARK                            x       y       z     vdW  Elec       q    Type
REMARK                         _______ _______ _______ _____ _____    ______ ____
ROOT
ATOM      1  C   UNL     1       5.789   4.900  17.949  0.00  0.00    +0.000 C 
ATOM      2  C   UNL     1       4.632   4.601  18.909  0.00  0.00    +0.000 C 
ATOM      3  C   UNL     1       3.288   5.048  18.342  0.00  0.00    +0.000 C 
ATOM      4  N   UNL     1       3.345   6.423  17.859  0.00  0.00    +0.000 N 
ATOM      5  C   UNL     1       2.600   7.402  18.493  0.00  0.00    +0.000 A 
ATOM      6  C   UNL     1       2.129   8.504  17.792  0.00  0.00    +0.000 A 
ATOM      7  C   UNL     1       1.310   9.452  18.412  0.00  0.00    +0.000 A 
ATOM      8  C   UNL     1       0.976   9.317  19.753  0.00  0.00    +0.000 A 
ATOM      9  N   UNL     1       1.471   8.264  20.429  0.00  0.00    +0.000 NA
ATOM     10  N   UNL     1       2.258   7.295  19.790  0.00  0.00    +0.000 NA
ATOM     11  C   UNL     1       4.412   6.768  16.931  0.00  0.00    +0.000 C 
ATOM     12  C   UNL     1       5.766   6.366  17.513  0.00  0.00    +0.000 C 
ENDROOT
BRANCH   8  13
ATOM     13  C   UNL     1       0.105  10.279  20.467  0.00  0.00    +0.000 A 
ATOM     14  C   UNL     1      -0.715  11.160  19.718  0.00  0.00    +0.000 A 
ATOM     15  C   UNL     1      -1.611  12.048  20.324  0.00  0.00    +0.000 A 
ATOM     16  C   UNL     1      -1.701  12.105  21.706  0.00  0.00    +0.000 A 
ATOM     17  C   UNL     1      -0.892  11.275  22.477  0.00  0.00    +0.000 A 
ATOM     18  C   UNL     1      -0.003  10.369  21.873  0.00  0.00    +0.000 A 
ATOM     19 CL   UNL     1       0.879   9.354  22.967  0.00  0.00    +0.000 Cl
ENDBRANCH   8  13
BRANCH   1  20
ATOM     20  O   UNL     1       5.705   4.071  16.767  0.00  0.00    +0.000 OA
BRANCH  20  21
ATOM     21  C   UNL     1       6.550   4.401  15.750  0.00  0.00    +0.000 C 
ATOM     22  O   UNL     1       7.757   4.571  15.860  0.00  0.00    +0.000 OA
BRANCH  21  23
ATOM     23  C   UNL     1       5.799   4.511  14.445  0.00  0.00    +0.000 C 
BRANCH  23  25
ATOM     24  C   UNL     1       5.588   3.375  12.188  0.00  0.00    +0.000 C 
ATOM     25  C   UNL     1       6.523   3.786  13.316  0.00  0.00    +0.000 C 
ENDBRANCH  23  25
ENDBRANCH  21  23
ENDBRANCH  20  21
ENDBRANCH   1  20
TORSDOF 5
ENDMDL
MODEL 4
REMARK VINA RESULT:      -7.3      2.498      3.146
REMARK  Name = 
REMARK  6 active torsions:
REMARK  status: ('A' for Active; 'I' for Inactive)
REMARK    1  A    between atoms: C_1  and  C_2
REMARK    2  A    between atoms: C_2  and  C_3
REMARK    3  A    between atoms: C_3  and  C_4
REMARK    4  A    between atoms: C_4  and  O_6
REMARK    5  A    between atoms: O_6  and  C_7
REMARK    6  A    between atoms: C_14  and  C_15
REMARK                            x       y       z     vdW  Elec       q    Type
REMARK                         _______ _______ _______ _____ _____    ______ ____
ROOT
ATOM      1  C   UNL     1       4.656   4.695  19.538  0.00  0.00    +0.000 C 
ATOM      2  C   UNL     1       3.352   4.967  20.296  0.00  0.00    +0.000 C 
ATOM      3  C   UNL     1       2.251   5.482  19.374  0.00  0.00    +0.000 C 
ATOM      4  N   UNL     1       2.723   6.589  18.549  0.00  0.00    +0.000 N 
ATOM      5  C   UNL     1       2.185   7.851  18.726  0.00  0.00    +0.000 A 
ATOM      6  C   UNL     1       2.108   8.747  17.668  0.00  0.00    +0.000 A 
ATOM      7  C   UNL     1       1.493   9.992  17.826  0.00  0.00    +0.000 A 
ATOM      8  C   UNL     1       0.972  10.363  19.059  0.00  0.00    +0.000 A 
ATOM      9  N   UNL     1       1.088   9.500  20.084  0.00  0.00    +0.000 NA
ATOM     10  N   UNL     1       1.669   8.236  19.908  0.00  0.00    +0.000 NA
ATOM     11  C   UNL     1       3.950   6.388  17.791  0.00  0.00    +0.000 C 
ATOM     12  C   UNL     1       5.069   5.917  18.716  0.00  0.00    +0.000 C 
ENDROOT
BRANCH   8  13
ATOM     13  C   UNL     1       0.300  11.663  19.290  0.00  0.00    +0.000 A 
ATOM     14  C   UNL     1      -1.025  11.678  19.793  0.00  0.00    +0.000 A 
ATOM     15  C   UNL     1      -1.698  12.867  20.097  0.00  0.00    +0.000 A 
ATOM     16  C   UNL     1      -1.076  14.087  19.887  0.00  0.00    +0.000 A 
ATOM     17  C   UNL     1       0.216  14.115  19.369  0.00  0.00    +0.000 A 
ATOM     18  C   UNL     1       0.902  12.923  19.077  0.00  0.00    +0.000 A 
ATOM     19 CL   UNL     1       2.528  13.123  18.510  0.00  0.00    +0.000 Cl
ENDBRANCH   8  13
BRANCH   1  20
ATOM     20  O   UNL     1       4.506   3.571  18.642  0.00  0.00    +0.000 OA
BRANCH  20  21
ATOM     21  C   UNL     1       4.359   2.354  19.236  0.00  0.00    +0.000 C 
ATOM     22  O   UNL     1       4.836   2.032  20.317  0.00  0.00    +0.000 OA
BRANCH  21  23
ATOM     23  C   UNL     1       3.498   1.446  18.392  0.00  0.00    +0.000 C 
BRANCH  23  25
ATOM     24  C   UNL     1       1.115   2.226  18.765  0.00  0.00    +0.000 C 
ATOM     25  C   UNL     1       2.299   2.185  17.810  0.00  0.00    +0.000 C 
ENDBRANCH  23  25
ENDBRANCH  21  23
ENDBRANCH  20  21
ENDBRANCH   1  20
TORSDOF 5
ENDMDL
MODEL 5
REMARK VINA RESULT:      -7.2      1.493      2.418
REMARK  Name = 
REMARK  6 active torsions:
REMARK  status: ('A' for Active; 'I' for Inactive)
REMARK    1  A    between atoms: C_1  and  C_2
REMARK    2  A    between atoms: C_2  and  C_3
REMARK    3  A    between atoms: C_3  and  C_4
REMARK    4  A    between atoms: C_4  and  O_6
REMARK    5  A    between atoms: O_6  and  C_7
REMARK    6  A    between atoms: C_14  and  C_15
REMARK                            x       y       z     vdW  Elec       q    Type
REMARK                         _______ _______ _______ _____ _____    ______ ____
ROOT
ATOM      1  C   UNL     1       4.366   4.731  16.813  0.00  0.00    +0.000 C 
ATOM      2  C   UNL     1       4.526   6.223  16.503  0.00  0.00    +0.000 C 
ATOM      3  C   UNL     1       4.553   7.072  17.770  0.00  0.00    +0.000 C 
ATOM      4  N   UNL     1       3.438   6.745  18.653  0.00  0.00    +0.000 N 
ATOM      5  C   UNL     1       2.457   7.689  18.892  0.00  0.00    +0.000 A 
ATOM      6  C   UNL     1       1.765   7.707  20.096  0.00  0.00    +0.000 A 
ATOM      7  C   UNL     1       0.829   8.709  20.371  0.00  0.00    +0.000 A 
ATOM      8  C   UNL     1       0.558   9.690  19.426  0.00  0.00    +0.000 A 
ATOM      9  N   UNL     1       1.209   9.638  18.250  0.00  0.00    +0.000 NA
ATOM     10  N   UNL     1       2.176   8.654  17.998  0.00  0.00    +0.000 NA
ATOM     11  C   UNL     1       3.242   5.344  18.998  0.00  0.00    +0.000 C 
ATOM     12  C   UNL     1       3.167   4.495  17.732  0.00  0.00    +0.000 C 
ENDROOT
BRANCH   8  13
ATOM     13  C   UNL     1      -0.414  10.784  19.658  0.00  0.00    +0.000 A 
ATOM     14  C   UNL     1      -0.145  11.750  20.660  0.00  0.00    +0.000 A 
ATOM     15  C   UNL     1      -0.983  12.846  20.890  0.00  0.00    +0.000 A 
ATOM     16  C   UNL     1      -2.137  13.003  20.138  0.00  0.00    +0.000 A 
ATOM     17  C   UNL     1      -2.451  12.061  19.162  0.00  0.00    +0.000 A 
ATOM     18  C   UNL     1      -1.603  10.967  18.917  0.00  0.00    +0.000 A 
ATOM     19 CL   UNL     1      -2.092   9.926  17.621  0.00  0.00    +0.000 Cl
ENDBRANCH   8  13
BRANCH   1  20
ATOM     20  O   UNL     1       5.548   4.210  17.462  0.00  0.00    +0.000 OA
BRANCH  20  21
ATOM     21  C   UNL     1       6.719   4.376  16.784  0.00  0.00    +0.000 C 
ATOM     22  O   UNL     1       6.831   4.418  15.565  0.00  0.00    +0.000 OA
BRANCH  21  23
ATOM     23  C   UNL     1       7.876   4.529  17.741  0.00  0.00    +0.000 C 
BRANCH  23  25
ATOM     24  C   UNL     1       7.946   7.018  18.220  0.00  0.00    +0.000 C 
ATOM     25  C   UNL     1       7.622   5.633  18.761  0.00  0.00    +0.000 C 
ENDBRANCH  23  25
ENDBRANCH  21  23
ENDBRANCH  20  21
ENDBRANCH   1  20
TORSDOF 5
ENDMDL
MODEL 6
REMARK VINA RESULT:      -7.1      1.536      2.193
REMARK  Name = 
REMARK  6 active torsions:
REMARK  status: ('A' for Active; 'I' for Inactive)
REMARK    1  A    between atoms: C_1  and  C_2
REMARK    2  A    between atoms: C_2  and  C_3
REMARK    3  A    between atoms: C_3  and  C_4
REMARK    4  A    between atoms: C_4  and  O_6
REMARK    5  A    between atoms: O_6  and  C_7
REMARK    6  A    between atoms: C_14  and  C_15
REMARK                            x       y       z     vdW  Elec       q    Type
REMARK                         _______ _______ _______ _____ _____    ______ ____
ROOT
ATOM      1  C   UNL     1       4.493   4.771  16.628  0.00  0.00    +0.000 C 
ATOM      2  C   UNL     1       4.575   6.238  16.194  0.00  0.00    +0.000 C 
ATOM      3  C   UNL     1       4.635   7.186  17.388  0.00  0.00    +0.000 C 
ATOM      4  N   UNL     1       3.584   6.890  18.355  0.00  0.00    +0.000 N 
ATOM      5  C   UNL     1       2.579   7.814  18.576  0.00  0.00    +0.000 A 
ATOM      6  C   UNL     1       1.953   7.904  19.812  0.00  0.00    +0.000 A 
ATOM      7  C   UNL     1       0.994   8.889  20.061  0.00  0.00    +0.000 A 
ATOM      8  C   UNL     1       0.632   9.780  19.060  0.00  0.00    +0.000 A 
ATOM      9  N   UNL     1       1.220   9.658  17.857  0.00  0.00    +0.000 NA
ATOM     10  N   UNL     1       2.212   8.694  17.627  0.00  0.00    +0.000 NA
ATOM     11  C   UNL     1       3.464   5.516  18.819  0.00  0.00    +0.000 C 
ATOM     12  C   UNL     1       3.356   4.565  17.629  0.00  0.00    +0.000 C 
ENDROOT
BRANCH   8  13
ATOM     13  C   UNL     1      -0.370  10.854  19.261  0.00  0.00    +0.000 A 
ATOM     14  C   UNL     1      -1.661  10.712  18.695  0.00  0.00    +0.000 A 
ATOM     15  C   UNL     1      -2.677  11.653  18.898  0.00  0.00    +0.000 A 
ATOM     16  C   UNL     1      -2.428  12.785  19.659  0.00  0.00    +0.000 A 
ATOM     17  C   UNL     1      -1.164  12.973  20.211  0.00  0.00    +0.000 A 
ATOM     18  C   UNL     1      -0.146  12.023  20.022  0.00  0.00    +0.000 A 
ATOM     19 CL   UNL     1       1.347  12.365  20.834  0.00  0.00    +0.000 Cl
ENDBRANCH   8  13
BRANCH   1  20
ATOM     20  O   UNL     1       5.729   4.347  17.247  0.00  0.00    +0.000 OA
BRANCH  20  21
ATOM     21  C   UNL     1       6.791   4.196  16.407  0.00  0.00    +0.000 C 
ATOM     22  O   UNL     1       7.941   4.539  16.651  0.00  0.00    +0.000 OA
BRANCH  21  23
ATOM     23  C   UNL     1       6.369   3.521  15.124  0.00  0.00    +0.000 C 
BRANCH  23  25
ATOM     24  C   UNL     1       6.334   3.685  12.594  0.00  0.00    +0.000 C 
ATOM     25  C   UNL     1       6.736   4.353  13.901  0.00  0.00    +0.000 C 
ENDBRANCH  23  25
ENDBRANCH  21  23
ENDBRANCH  20  21
ENDBRANCH   1  20
TORSDOF 5
ENDMDL
MODEL 7
REMARK VINA RESULT:      -6.9      2.241      2.930
REMARK  Name = 
REMARK  6 active torsions:
REMARK  status: ('A' for Active; 'I' for Inactive)
REMARK    1  A    between atoms: C_1  and  C_2
REMARK    2  A    between atoms: C_2  and  C_3
REMARK    3  A    between atoms: C_3  and  C_4
REMARK    4  A    between atoms: C_4  and  O_6
REMARK    5  A    between atoms: O_6  and  C_7
REMARK    6  A    between atoms: C_14  and  C_15
REMARK                            x       y       z     vdW  Elec       q    Type
REMARK                         _______ _______ _______ _____ _____    ______ ____
ROOT
ATOM      1  C   UNL     1       4.748   4.851  19.253  0.00  0.00    +0.000 C 
ATOM      2  C   UNL     1       3.535   5.060  20.165  0.00  0.00    +0.000 C 
ATOM      3  C   UNL     1       2.320   5.567  19.393  0.00  0.00    +0.000 C 
ATOM      4  N   UNL     1       2.662   6.710  18.553  0.00  0.00    +0.000 N 
ATOM      5  C   UNL     1       2.113   7.949  18.830  0.00  0.00    +0.000 A 
ATOM      6  C   UNL     1       1.888   8.871  17.817  0.00  0.00    +0.000 A 
ATOM      7  C   UNL     1       1.261  10.091  18.083  0.00  0.00    +0.000 A 
ATOM      8  C   UNL     1       0.878  10.412  19.378  0.00  0.00    +0.000 A 
ATOM      9  N   UNL     1       1.136   9.525  20.356  0.00  0.00    +0.000 NA
ATOM     10  N   UNL     1       1.728   8.285  20.075  0.00  0.00    +0.000 NA
ATOM     11  C   UNL     1       3.797   6.568  17.653  0.00  0.00    +0.000 C 
ATOM     12  C   UNL     1       5.029   6.107  18.428  0.00  0.00    +0.000 C 
ENDROOT
BRANCH   8  13
ATOM     13  C   UNL     1       0.201  11.683  19.726  0.00  0.00    +0.000 A 
ATOM     14  C   UNL     1       0.918  12.679  20.435  0.00  0.00    +0.000 A 
ATOM     15  C   UNL     1       0.364  13.928  20.740  0.00  0.00    +0.000 A 
ATOM     16  C   UNL     1      -0.939  14.217  20.365  0.00  0.00    +0.000 A 
ATOM     17  C   UNL     1      -1.685  13.254  19.690  0.00  0.00    +0.000 A 
ATOM     18  C   UNL     1      -1.128  12.004  19.368  0.00  0.00    +0.000 A 
ATOM     19 CL   UNL     1      -2.158  10.945  18.463  0.00  0.00    +0.000 Cl
ENDBRANCH   8  13
BRANCH   1  20
ATOM     20  O   UNL     1       4.527   3.748  18.346  0.00  0.00    +0.000 OA
BRANCH  20  21
ATOM     21  C   UNL     1       4.225   2.553  18.927  0.00  0.00    +0.000 C 
ATOM     22  O   UNL     1       4.833   2.048  19.862  0.00  0.00    +0.000 OA
BRANCH  21  23
ATOM     23  C   UNL     1       3.012   1.932  18.278  0.00  0.00    +0.000 C 
BRANCH  23  25
ATOM     24  C   UNL     1       0.583   2.538  18.683  0.00  0.00    +0.000 C 
ATOM     25  C   UNL     1       1.830   1.866  19.239  0.00  0.00    +0.000 C 
ENDBRANCH  23  25
ENDBRANCH  21  23
ENDBRANCH  20  21
ENDBRANCH   1  20
TORSDOF 5
ENDMDL
MODEL 8
REMARK VINA RESULT:      -6.9      4.218      9.693
REMARK  Name = 
REMARK  6 active torsions:
REMARK  status: ('A' for Active; 'I' for Inactive)
REMARK    1  A    between atoms: C_1  and  C_2
REMARK    2  A    between atoms: C_2  and  C_3
REMARK    3  A    between atoms: C_3  and  C_4
REMARK    4  A    between atoms: C_4  and  O_6
REMARK    5  A    between atoms: O_6  and  C_7
REMARK    6  A    between atoms: C_14  and  C_15
REMARK                            x       y       z     vdW  Elec       q    Type
REMARK                         _______ _______ _______ _____ _____    ______ ____
ROOT
ATOM      1  C   UNL     1      -1.451  12.002  21.275  0.00  0.00    +0.000 C 
ATOM      2  C   UNL     1      -0.414  11.154  22.019  0.00  0.00    +0.000 C 
ATOM      3  C   UNL     1       0.936  11.145  21.307  0.00  0.00    +0.000 C 
ATOM      4  N   UNL     1       0.788  10.832  19.890  0.00  0.00    +0.000 N 
ATOM      5  C   UNL     1       1.318   9.655  19.392  0.00  0.00    +0.000 A 
ATOM      6  C   UNL     1       1.751   9.571  18.075  0.00  0.00    +0.000 A 
ATOM      7  C   UNL     1       2.360   8.409  17.593  0.00  0.00    +0.000 A 
ATOM      8  C   UNL     1       2.515   7.306  18.423  0.00  0.00    +0.000 A 
ATOM      9  N   UNL     1       2.057   7.390  19.685  0.00  0.00    +0.000 NA
ATOM     10  N   UNL     1       1.485   8.573  20.173  0.00  0.00    +0.000 NA
ATOM     11  C   UNL     1      -0.172  11.614  19.124  0.00  0.00    +0.000 C 
ATOM     12  C   UNL     1      -1.537  11.587  19.806  0.00  0.00    +0.000 C 
ENDROOT
BRANCH   8  13
ATOM     13  C   UNL     1       3.160   6.048  17.978  0.00  0.00    +0.000 A 
ATOM     14  C   UNL     1       4.341   6.113  17.197  0.00  0.00    +0.000 A 
ATOM     15  C   UNL     1       5.040   4.969  16.797  0.00  0.00    +0.000 A 
ATOM     16  C   UNL     1       4.567   3.713  17.146  0.00  0.00    +0.000 A 
ATOM     17  C   UNL     1       3.395   3.607  17.890  0.00  0.00    +0.000 A 
ATOM     18  C   UNL     1       2.699   4.754  18.307  0.00  0.00    +0.000 A 
ATOM     19 CL   UNL     1       1.302   4.457  19.289  0.00  0.00    +0.000 Cl
ENDBRANCH   8  13
BRANCH   1  20
ATOM     20  O   UNL     1      -1.107  13.405  21.334  0.00  0.00    +0.000 OA
BRANCH  20  21
ATOM     21  C   UNL     1      -1.344  14.024  22.525  0.00  0.00    +0.000 C 
ATOM     22  O   UNL     1      -0.484  14.418  23.301  0.00  0.00    +0.000 OA
BRANCH  21  23
ATOM     23  C   UNL     1      -2.827  14.187  22.758  0.00  0.00    +0.000 C 
BRANCH  23  25
ATOM     24  C   UNL     1      -3.962  12.486  24.257  0.00  0.00    +0.000 C 
ATOM     25  C   UNL     1      -3.218  13.811  24.183  0.00  0.00    +0.000 C 
ENDBRANCH  23  25
ENDBRANCH  21  23
ENDBRANCH  20  21
ENDBRANCH   1  20
TORSDOF 5
ENDMDL
MODEL 9
REMARK VINA RESULT:      -6.9      4.364      9.805
REMARK  Name = 
REMARK  6 active torsions:
REMARK  status: ('A' for Active; 'I' for Inactive)
REMARK    1  A    between atoms: C_1  and  C_2
REMARK    2  A    between atoms: C_2  and  C_3
REMARK    3  A    between atoms: C_3  and  C_4
REMARK    4  A    between atoms: C_4  and  O_6
REMARK    5  A    between atoms: O_6  and  C_7
REMARK    6  A    between atoms: C_14  and  C_15
REMARK                            x       y       z     vdW  Elec       q    Type
REMARK                         _______ _______ _______ _____ _____    ______ ____
ROOT
ATOM      1  C   UNL     1      -1.439  11.831  21.277  0.00  0.00    +0.000 C 
ATOM      2  C   UNL     1      -0.389  10.989  22.010  0.00  0.00    +0.000 C 
ATOM      3  C   UNL     1       0.948  10.975  21.277  0.00  0.00    +0.000 C 
ATOM      4  N   UNL     1       0.777  10.650  19.865  0.00  0.00    +0.000 N 
ATOM      5  C   UNL     1       1.300   9.470  19.368  0.00  0.00    +0.000 A 
ATOM      6  C   UNL     1       1.712   9.375  18.045  0.00  0.00    +0.000 A 
ATOM      7  C   UNL     1       2.313   8.209  17.563  0.00  0.00    +0.000 A 
ATOM      8  C   UNL     1       2.482   7.113  18.398  0.00  0.00    +0.000 A 
ATOM      9  N   UNL     1       2.044   7.207  19.667  0.00  0.00    +0.000 NA
ATOM     10  N   UNL     1       1.480   8.394  20.155  0.00  0.00    +0.000 NA
ATOM     11  C   UNL     1      -0.195  11.426  19.108  0.00  0.00    +0.000 C 
ATOM     12  C   UNL     1      -1.549  11.404  19.813  0.00  0.00    +0.000 C 
ENDROOT
BRANCH   8  13
ATOM     13  C   UNL     1       3.121   5.853  17.953  0.00  0.00    +0.000 A 
ATOM     14  C   UNL     1       2.374   4.648  17.986  0.00  0.00    +0.000 A 
ATOM     15  C   UNL     1       2.890   3.434  17.520  0.00  0.00    +0.000 A 
ATOM     16  C   UNL     1       4.183   3.376  17.024  0.00  0.00    +0.000 A 
ATOM     17  C   UNL     1       4.958   4.533  17.001  0.00  0.00    +0.000 A 
ATOM     18  C   UNL     1       4.439   5.758  17.453  0.00  0.00    +0.000 A 
ATOM     19 CL   UNL     1       5.500   7.118  17.289  0.00  0.00    +0.000 Cl
ENDBRANCH   8  13
BRANCH   1  20
ATOM     20  O   UNL     1      -1.095  13.234  21.319  0.00  0.00    +0.000 OA
BRANCH  20  21
ATOM     21  C   UNL     1      -2.009  14.051  21.914  0.00  0.00    +0.000 C 
ATOM     22  O   UNL     1      -2.824  14.748  21.323  0.00  0.00    +0.000 OA
BRANCH  21  23
ATOM     23  C   UNL     1      -1.905  13.969  23.417  0.00  0.00    +0.000 C 
BRANCH  23  25
ATOM     24  C   UNL     1      -3.910  12.613  24.172  0.00  0.00    +0.000 C 
ATOM     25  C   UNL     1      -3.277  13.994  24.081  0.00  0.00    +0.000 C 
ENDBRANCH  23  25
ENDBRANCH  21  23
ENDBRANCH  20  21
ENDBRANCH   1  20
TORSDOF 5
ENDMDL
