MODEL 1
REMARK VINA RESULT:      -8.7      0.000      0.000
REMARK  Name = 
REMARK  9 active torsions:
REMARK  status: ('A' for Active; 'I' for Inactive)
REMARK    1  A    between atoms: C_1  and  O_2
REMARK    2  A    between atoms: O_2  and  C_3
REMARK    3  A    between atoms: C_3  and  C_4
REMARK    4  A    between atoms: C_4  and  N_5
REMARK    5  A    between atoms: C_9  and  C_10
REMARK    6  A    between atoms: C_14  and  C_15
REMARK    7  A    between atoms: C_19  and  N_20
REMARK    8  A    between atoms: N_23  and  C_24
REMARK    9  A    between atoms: C_24  and  C_25
REMARK                            x       y       z     vdW  Elec       q    Type
REMARK                         _______ _______ _______ _____ _____    ______ ____
ROOT
ATOM      1  C   UNL     1       0.236  10.111  20.877  0.00  0.00    +0.000 A 
ATOM      2  C   UNL     1       0.607   8.827  21.491  0.00  0.00    +0.000 A 
ATOM      3  C   UNL     1       1.358   7.943  20.814  0.00  0.00    +0.000 A 
ATOM      4  N   UNL     1       1.764   8.228  19.510  0.00  0.00    +0.000 N 
ATOM      5  C   UNL     1       2.493   7.474  18.591  0.00  0.00    +0.000 A 
ATOM      6  C   UNL     1       2.609   8.312  17.493  0.00  0.00    +0.000 A 
ATOM      7  N   UNL     1       1.973   9.510  17.687  0.00  0.00    +0.000 NA
ATOM      8  C   UNL     1       1.463   9.440  18.894  0.00  0.00    +0.000 A 
ATOM      9  C   UNL     1       0.682  10.384  19.625  0.00  0.00    +0.000 A 
ENDROOT
BRANCH   1  14
ATOM     10  N   UNL     1      -2.784  12.899  23.945  0.00  0.00    +0.000 N 
ATOM     11  C   UNL     1      -1.980  12.425  22.965  0.00  0.00    +0.000 A 
ATOM     12  N   UNL     1      -1.701  13.041  21.840  0.00  0.00    +0.000 NA
ATOM     13  N   UNL     1      -0.887  12.302  21.012  0.00  0.00    +0.000 NA
ATOM     14  C   UNL     1      -0.560  11.126  21.517  0.00  0.00    +0.000 A 
ATOM     15  S   UNL     1      -1.248  10.877  23.092  0.00  0.00    +0.000 S 
ATOM     16  H   UNL     1      -3.126  12.209  24.613  0.00  0.00    +0.000 HD
BRANCH  10  17
ATOM     17  C   UNL     1      -3.844  13.828  23.554  0.00  0.00    +0.000 C 
BRANCH  17  18
ATOM     18  C   UNL     1      -5.205  13.128  23.620  0.00  0.00    +0.000 C 
BRANCH  18  20
ATOM     19  C   UNL     1      -5.388  13.109  21.264  0.00  0.00    +0.000 C 
ATOM     20  O   UNL     1      -5.346  12.319  22.445  0.00  0.00    +0.000 OA
ENDBRANCH  18  20
ENDBRANCH  17  18
ENDBRANCH  10  17
ENDBRANCH   1  14
BRANCH   5  21
ATOM     21  C   UNL     1       2.979   6.100  18.775  0.00  0.00    +0.000 A 
ATOM     22  C   UNL     1       2.638   5.369  19.921  0.00  0.00    +0.000 A 
ATOM     23  C   UNL     1       3.131   4.085  20.120  0.00  0.00    +0.000 A 
ATOM     24  C   UNL     1       3.924   3.487  19.145  0.00  0.00    +0.000 A 
ATOM     25  C   UNL     1       4.234   4.154  17.961  0.00  0.00    +0.000 A 
ATOM     26  C   UNL     1       3.767   5.470  17.788  0.00  0.00    +0.000 A 
BRANCH  25  27
ATOM     27  N   UNL     1       5.016   3.563  16.938  0.00  0.00    +0.000 N 
ATOM     28  C   UNL     1       5.556   4.210  15.844  0.00  0.00    +0.000 C 
ATOM     29  O   UNL     1       5.503   5.403  15.590  0.00  0.00    +0.000 OA
ATOM     30  N   UNL     1       6.159   3.341  14.960  0.00  0.00    +0.000 N 
ATOM     31  H   UNL     1       5.193   2.573  17.016  0.00  0.00    +0.000 HD
ATOM     32  H   UNL     1       6.600   2.521  15.350  0.00  0.00    +0.000 HD
BRANCH  30  33
ATOM     33  C   UNL     1       6.764   3.915  13.749  0.00  0.00    +0.000 C 
BRANCH  33  34
ATOM     34  C   UNL     1       6.088   3.554  12.417  0.00  0.00    +0.000 C 
ATOM     35  F   UNL     1       4.745   3.713  12.467  0.00  0.00    +0.000 F 
ATOM     36  F   UNL     1       6.541   4.379  11.437  0.00  0.00    +0.000 F 
ATOM     37  F   UNL     1       6.352   2.291  12.027  0.00  0.00    +0.000 F 
ENDBRANCH  33  34
ENDBRANCH  30  33
ENDBRANCH  25  27
ENDBRANCH   5  21
TORSDOF 8
ENDMDL
MODEL 2
REMARK VINA RESULT:      -8.3      1.629      1.854
REMARK  Name = 
REMARK  9 active torsions:
REMARK  status: ('A' for Active; 'I' for Inactive)
REMARK    1  A    between atoms: C_1  and  O_2
REMARK    2  A    between atoms: O_2  and  C_3
REMARK    3  A    between atoms: C_3  and  C_4
REMARK    4  A    between atoms: C_4  and  N_5
REMARK    5  A    between atoms: C_9  and  C_10
REMARK    6  A    between atoms: C_14  and  C_15
REMARK    7  A    between atoms: C_19  and  N_20
REMARK    8  A    between atoms: N_23  and  C_24
REMARK    9  A    between atoms: C_24  and  C_25
REMARK                            x       y       z     vdW  Elec       q    Type
REMARK                         _______ _______ _______ _____ _____    ______ ____
ROOT
ATOM      1  C   UNL     1       0.008  10.919  21.762  0.00  0.00    +0.000 A 
ATOM      2  C   UNL     1       0.350   9.658  22.437  0.00  0.00    +0.000 A 
ATOM      3  C   UNL     1       0.964   8.672  21.764  0.00  0.00    +0.000 A 
ATOM      4  N   UNL     1       1.254   8.829  20.408  0.00  0.00    +0.000 N 
ATOM      5  C   UNL     1       1.830   7.956  19.486  0.00  0.00    +0.000 A 
ATOM      6  C   UNL     1       1.891   8.701  18.318  0.00  0.00    +0.000 A 
ATOM      7  N   UNL     1       1.362   9.955  18.476  0.00  0.00    +0.000 NA
ATOM      8  C   UNL     1       0.975  10.013  19.729  0.00  0.00    +0.000 A 
ATOM      9  C   UNL     1       0.340  11.065  20.454  0.00  0.00    +0.000 A 
ENDROOT
BRANCH   1  14
ATOM     10  N   UNL     1      -3.193  14.144  24.141  0.00  0.00    +0.000 N 
ATOM     11  C   UNL     1      -2.158  13.541  23.510  0.00  0.00    +0.000 A 
ATOM     12  N   UNL     1      -1.081  14.141  23.062  0.00  0.00    +0.000 NA
ATOM     13  N   UNL     1      -0.214  13.283  22.426  0.00  0.00    +0.000 NA
ATOM     14  C   UNL     1      -0.647  12.035  22.392  0.00  0.00    +0.000 A 
ATOM     15  S   UNL     1      -2.181  11.856  23.185  0.00  0.00    +0.000 S 
ATOM     16  H   UNL     1      -4.063  13.614  24.176  0.00  0.00    +0.000 HD
BRANCH  10  17
ATOM     17  C   UNL     1      -3.442  15.551  23.827  0.00  0.00    +0.000 C 
BRANCH  17  18
ATOM     18  C   UNL     1      -4.917  15.888  24.071  0.00  0.00    +0.000 C 
BRANCH  18  20
ATOM     19  C   UNL     1      -6.972  15.697  22.921  0.00  0.00    +0.000 C 
ATOM     20  O   UNL     1      -5.708  15.097  23.175  0.00  0.00    +0.000 OA
ENDBRANCH  18  20
ENDBRANCH  17  18
ENDBRANCH  10  17
ENDBRANCH   1  14
BRANCH   5  21
ATOM     21  C   UNL     1       2.236   6.566  19.731  0.00  0.00    +0.000 A 
ATOM     22  C   UNL     1       1.616   5.808  20.733  0.00  0.00    +0.000 A 
ATOM     23  C   UNL     1       2.027   4.506  20.998  0.00  0.00    +0.000 A 
ATOM     24  C   UNL     1       3.024   3.921  20.222  0.00  0.00    +0.000 A 
ATOM     25  C   UNL     1       3.621   4.618  19.174  0.00  0.00    +0.000 A 
ATOM     26  C   UNL     1       3.231   5.950  18.942  0.00  0.00    +0.000 A 
BRANCH  25  27
ATOM     27  N   UNL     1       4.619   4.042  18.350  0.00  0.00    +0.000 N 
ATOM     28  C   UNL     1       5.447   4.717  17.474  0.00  0.00    +0.000 C 
ATOM     29  O   UNL     1       5.505   5.923  17.292  0.00  0.00    +0.000 OA
ATOM     30  N   UNL     1       6.226   3.866  16.720  0.00  0.00    +0.000 N 
ATOM     31  H   UNL     1       4.734   3.042  18.406  0.00  0.00    +0.000 HD
ATOM     32  H   UNL     1       6.521   3.005  17.157  0.00  0.00    +0.000 HD
BRANCH  30  33
ATOM     33  C   UNL     1       7.144   4.470  15.743  0.00  0.00    +0.000 C 
BRANCH  33  34
ATOM     34  C   UNL     1       6.627   4.574  14.300  0.00  0.00    +0.000 C 
ATOM     35  F   UNL     1       6.356   3.361  13.766  0.00  0.00    +0.000 F 
ATOM     36  F   UNL     1       5.465   5.276  14.281  0.00  0.00    +0.000 F 
ATOM     37  F   UNL     1       7.491   5.213  13.485  0.00  0.00    +0.000 F 
ENDBRANCH  33  34
ENDBRANCH  30  33
ENDBRANCH  25  27
ENDBRANCH   5  21
TORSDOF 8
ENDMDL
MODEL 3
REMARK VINA RESULT:      -8.3      1.681      2.099
REMARK  Name = 
REMARK  9 active torsions:
REMARK  status: ('A' for Active; 'I' for Inactive)
REMARK    1  A    between atoms: C_1  and  O_2
REMARK    2  A    between atoms: O_2  and  C_3
REMARK    3  A    between atoms: C_3  and  C_4
REMARK    4  A    between atoms: C_4  and  N_5
REMARK    5  A    between atoms: C_9  and  C_10
REMARK    6  A    between atoms: C_14  and  C_15
REMARK    7  A    between atoms: C_19  and  N_20
REMARK    8  A    between atoms: N_23  and  C_24
REMARK    9  A    between atoms: C_24  and  C_25
REMARK                            x       y       z     vdW  Elec       q    Type
REMARK                         _______ _______ _______ _____ _____    ______ ____
ROOT
ATOM      1  C   UNL     1       0.155  10.143  21.151  0.00  0.00    +0.000 A 
ATOM      2  C   UNL     1       0.571   8.850  21.717  0.00  0.00    +0.000 A 
ATOM      3  C   UNL     1       1.303   7.993  20.987  0.00  0.00    +0.000 A 
ATOM      4  N   UNL     1       1.647   8.314  19.673  0.00  0.00    +0.000 N 
ATOM      5  C   UNL     1       2.344   7.593  18.705  0.00  0.00    +0.000 A 
ATOM      6  C   UNL     1       2.400   8.459  17.623  0.00  0.00    +0.000 A 
ATOM      7  N   UNL     1       1.756   9.641  17.873  0.00  0.00    +0.000 NA
ATOM      8  C   UNL     1       1.301   9.536  19.100  0.00  0.00    +0.000 A 
ATOM      9  C   UNL     1       0.541  10.451  19.887  0.00  0.00    +0.000 A 
ENDROOT
BRANCH   1  14
ATOM     10  N   UNL     1      -2.131  14.390  22.893  0.00  0.00    +0.000 N 
ATOM     11  C   UNL     1      -1.693  13.131  22.659  0.00  0.00    +0.000 A 
ATOM     12  N   UNL     1      -1.930  12.086  23.417  0.00  0.00    +0.000 NA
ATOM     13  N   UNL     1      -1.324  10.940  22.955  0.00  0.00    +0.000 NA
ATOM     14  C   UNL     1      -0.626  11.130  21.850  0.00  0.00    +0.000 A 
ATOM     15  S   UNL     1      -0.703  12.776  21.303  0.00  0.00    +0.000 S 
ATOM     16  H   UNL     1      -1.646  15.131  22.389  0.00  0.00    +0.000 HD
BRANCH  10  17
ATOM     17  C   UNL     1      -2.375  14.769  24.285  0.00  0.00    +0.000 C 
BRANCH  17  18
ATOM     18  C   UNL     1      -1.113  15.398  24.886  0.00  0.00    +0.000 C 
BRANCH  18  20
ATOM     19  C   UNL     1      -2.404  17.344  25.242  0.00  0.00    +0.000 C 
ATOM     20  O   UNL     1      -1.196  16.817  24.709  0.00  0.00    +0.000 OA
ENDBRANCH  18  20
ENDBRANCH  17  18
ENDBRANCH  10  17
ENDBRANCH   1  14
BRANCH   5  21
ATOM     21  C   UNL     1       2.857   6.222  18.835  0.00  0.00    +0.000 A 
ATOM     22  C   UNL     1       2.658   5.494  20.014  0.00  0.00    +0.000 A 
ATOM     23  C   UNL     1       3.179   4.214  20.158  0.00  0.00    +0.000 A 
ATOM     24  C   UNL     1       3.856   3.617  19.098  0.00  0.00    +0.000 A 
ATOM     25  C   UNL     1       4.020   4.282  17.884  0.00  0.00    +0.000 A 
ATOM     26  C   UNL     1       3.528   5.594  17.764  0.00  0.00    +0.000 A 
BRANCH  25  27
ATOM     27  N   UNL     1       4.680   3.692  16.778  0.00  0.00    +0.000 N 
ATOM     28  C   UNL     1       5.494   4.340  15.870  0.00  0.00    +0.000 C 
ATOM     29  O   UNL     1       5.830   5.514  15.884  0.00  0.00    +0.000 OA
ATOM     30  N   UNL     1       5.886   3.522  14.833  0.00  0.00    +0.000 N 
ATOM     31  H   UNL     1       4.541   2.703  16.640  0.00  0.00    +0.000 HD
ATOM     32  H   UNL     1       6.019   2.543  15.044  0.00  0.00    +0.000 HD
BRANCH  30  33
ATOM     33  C   UNL     1       6.750   4.106  13.795  0.00  0.00    +0.000 C 
BRANCH  33  34
ATOM     34  C   UNL     1       6.444   3.695  12.347  0.00  0.00    +0.000 C 
ATOM     35  F   UNL     1       7.084   4.478  11.448  0.00  0.00    +0.000 F 
ATOM     36  F   UNL     1       6.873   2.425  12.132  0.00  0.00    +0.000 F 
ATOM     37  F   UNL     1       5.125   3.722  12.068  0.00  0.00    +0.000 F 
ENDBRANCH  33  34
ENDBRANCH  30  33
ENDBRANCH  25  27
ENDBRANCH   5  21
TORSDOF 8
ENDMDL
MODEL 4
REMARK VINA RESULT:      -8.3      1.685      1.982
REMARK  Name = 
REMARK  9 active torsions:
REMARK  status: ('A' for Active; 'I' for Inactive)
REMARK    1  A    between atoms: C_1  and  O_2
REMARK    2  A    between atoms: O_2  and  C_3
REMARK    3  A    between atoms: C_3  and  C_4
REMARK    4  A    between atoms: C_4  and  N_5
REMARK    5  A    between atoms: C_9  and  C_10
REMARK    6  A    between atoms: C_14  and  C_15
REMARK    7  A    between atoms: C_19  and  N_20
REMARK    8  A    between atoms: N_23  and  C_24
REMARK    9  A    between atoms: C_24  and  C_25
REMARK                            x       y       z     vdW  Elec       q    Type
REMARK                         _______ _______ _______ _____ _____    ______ ____
ROOT
ATOM      1  C   UNL     1       0.119  10.298  21.112  0.00  0.00    +0.000 A 
ATOM      2  C   UNL     1       0.504   9.007  21.701  0.00  0.00    +0.000 A 
ATOM      3  C   UNL     1       1.227   8.126  20.991  0.00  0.00    +0.000 A 
ATOM      4  N   UNL     1       1.590   8.420  19.676  0.00  0.00    +0.000 N 
ATOM      5  C   UNL     1       2.282   7.671  18.726  0.00  0.00    +0.000 A 
ATOM      6  C   UNL     1       2.364   8.519  17.631  0.00  0.00    +0.000 A 
ATOM      7  N   UNL     1       1.740   9.717  17.857  0.00  0.00    +0.000 NA
ATOM      8  C   UNL     1       1.272   9.639  19.081  0.00  0.00    +0.000 A 
ATOM      9  C   UNL     1       0.521  10.580  19.847  0.00  0.00    +0.000 A 
ENDROOT
BRANCH   1  14
ATOM     10  N   UNL     1      -3.044  14.104  22.462  0.00  0.00    +0.000 N 
ATOM     11  C   UNL     1      -2.139  13.098  22.410  0.00  0.00    +0.000 A 
ATOM     12  N   UNL     1      -1.356  12.722  23.394  0.00  0.00    +0.000 NA
ATOM     13  N   UNL     1      -0.507  11.698  23.042  0.00  0.00    +0.000 NA
ATOM     14  C   UNL     1      -0.651  11.310  21.788  0.00  0.00    +0.000 A 
ATOM     15  S   UNL     1      -1.891  12.205  20.966  0.00  0.00    +0.000 S 
ATOM     16  H   UNL     1      -3.368  14.458  21.563  0.00  0.00    +0.000 HD
BRANCH  10  17
ATOM     17  C   UNL     1      -2.780  15.196  23.398  0.00  0.00    +0.000 C 
BRANCH  17  18
ATOM     18  C   UNL     1      -2.073  16.347  22.675  0.00  0.00    +0.000 C 
BRANCH  18  20
ATOM     19  C   UNL     1       0.063  16.604  23.651  0.00  0.00    +0.000 C 
ATOM     20  O   UNL     1      -1.283  17.058  23.637  0.00  0.00    +0.000 OA
ENDBRANCH  18  20
ENDBRANCH  17  18
ENDBRANCH  10  17
ENDBRANCH   1  14
BRANCH   5  21
ATOM     21  C   UNL     1       2.768   6.293  18.881  0.00  0.00    +0.000 A 
ATOM     22  C   UNL     1       2.556   5.592  20.075  0.00  0.00    +0.000 A 
ATOM     23  C   UNL     1       3.053   4.304  20.242  0.00  0.00    +0.000 A 
ATOM     24  C   UNL     1       3.715   3.674  19.193  0.00  0.00    +0.000 A 
ATOM     25  C   UNL     1       3.890   4.312  17.966  0.00  0.00    +0.000 A 
ATOM     26  C   UNL     1       3.424   5.631  17.821  0.00  0.00    +0.000 A 
BRANCH  25  27
ATOM     27  N   UNL     1       4.537   3.688  16.871  0.00  0.00    +0.000 N 
ATOM     28  C   UNL     1       5.388   4.295  15.969  0.00  0.00    +0.000 C 
ATOM     29  O   UNL     1       5.775   5.453  15.982  0.00  0.00    +0.000 OA
ATOM     30  N   UNL     1       5.756   3.455  14.940  0.00  0.00    +0.000 N 
ATOM     31  H   UNL     1       4.355   2.705  16.735  0.00  0.00    +0.000 HD
ATOM     32  H   UNL     1       5.843   2.473  15.157  0.00  0.00    +0.000 HD
BRANCH  30  33
ATOM     33  C   UNL     1       6.657   3.995  13.910  0.00  0.00    +0.000 C 
BRANCH  33  34
ATOM     34  C   UNL     1       6.322   3.628  12.456  0.00  0.00    +0.000 C 
ATOM     35  F   UNL     1       4.994   3.699  12.205  0.00  0.00    +0.000 F 
ATOM     36  F   UNL     1       6.925   4.505  11.613  0.00  0.00    +0.000 F 
ATOM     37  F   UNL     1       6.752   2.395  12.121  0.00  0.00    +0.000 F 
ENDBRANCH  33  34
ENDBRANCH  30  33
ENDBRANCH  25  27
ENDBRANCH   5  21
TORSDOF 8
ENDMDL
MODEL 5
REMARK VINA RESULT:      -8.2      1.906      3.053
REMARK  Name = 
REMARK  9 active torsions:
REMARK  status: ('A' for Active; 'I' for Inactive)
REMARK    1  A    between atoms: C_1  and  O_2
REMARK    2  A    between atoms: O_2  and  C_3
REMARK    3  A    between atoms: C_3  and  C_4
REMARK    4  A    between atoms: C_4  and  N_5
REMARK    5  A    between atoms: C_9  and  C_10
REMARK    6  A    between atoms: C_14  and  C_15
REMARK    7  A    between atoms: C_19  and  N_20
REMARK    8  A    between atoms: N_23  and  C_24
REMARK    9  A    between atoms: C_24  and  C_25
REMARK                            x       y       z     vdW  Elec       q    Type
REMARK                         _______ _______ _______ _____ _____    ______ ____
ROOT
ATOM      1  C   UNL     1       1.343   8.894  19.122  0.00  0.00    +0.000 A 
ATOM      2  C   UNL     1       2.496   8.877  18.209  0.00  0.00    +0.000 A 
ATOM      3  C   UNL     1       3.341   7.834  18.201  0.00  0.00    +0.000 A 
ATOM      4  N   UNL     1       3.144   6.771  19.084  0.00  0.00    +0.000 N 
ATOM      5  C   UNL     1       3.889   5.614  19.307  0.00  0.00    +0.000 A 
ATOM      6  C   UNL     1       3.163   4.934  20.273  0.00  0.00    +0.000 A 
ATOM      7  N   UNL     1       2.046   5.624  20.662  0.00  0.00    +0.000 NA
ATOM      8  C   UNL     1       2.054   6.726  19.950  0.00  0.00    +0.000 A 
ATOM      9  C   UNL     1       1.148   7.829  19.940  0.00  0.00    +0.000 A 
ENDROOT
BRANCH   1  14
ATOM     10  N   UNL     1      -1.385  13.088  20.252  0.00  0.00    +0.000 N 
ATOM     11  C   UNL     1      -0.893  11.933  19.746  0.00  0.00    +0.000 A 
ATOM     12  N   UNL     1      -1.516  11.139  18.907  0.00  0.00    +0.000 NA
ATOM     13  N   UNL     1      -0.789  10.013  18.594  0.00  0.00    +0.000 NA
ATOM     14  C   UNL     1       0.380   9.961  19.207  0.00  0.00    +0.000 A 
ATOM     15  S   UNL     1       0.653  11.349  20.213  0.00  0.00    +0.000 S 
ATOM     16  H   UNL     1      -0.919  13.442  21.087  0.00  0.00    +0.000 HD
BRANCH  10  17
ATOM     17  C   UNL     1      -2.838  13.206  20.365  0.00  0.00    +0.000 C 
BRANCH  17  18
ATOM     18  C   UNL     1      -3.298  12.718  21.743  0.00  0.00    +0.000 C 
BRANCH  18  20
ATOM     19  C   UNL     1      -3.678  14.909  22.543  0.00  0.00    +0.000 C 
ATOM     20  O   UNL     1      -4.266  13.650  22.244  0.00  0.00    +0.000 OA
ENDBRANCH  18  20
ENDBRANCH  17  18
ENDBRANCH  10  17
ENDBRANCH   1  14
BRANCH   5  21
ATOM     21  C   UNL     1       5.161   5.254  18.666  0.00  0.00    +0.000 A 
ATOM     22  C   UNL     1       6.382   5.578  19.270  0.00  0.00    +0.000 A 
ATOM     23  C   UNL     1       7.588   5.279  18.646  0.00  0.00    +0.000 A 
ATOM     24  C   UNL     1       7.591   4.593  17.435  0.00  0.00    +0.000 A 
ATOM     25  C   UNL     1       6.400   4.194  16.831  0.00  0.00    +0.000 A 
ATOM     26  C   UNL     1       5.184   4.541  17.448  0.00  0.00    +0.000 A 
BRANCH  25  27
ATOM     27  N   UNL     1       6.370   3.472  15.613  0.00  0.00    +0.000 N 
ATOM     28  C   UNL     1       6.228   4.007  14.348  0.00  0.00    +0.000 C 
ATOM     29  O   UNL     1       6.156   5.189  14.048  0.00  0.00    +0.000 OA
ATOM     30  N   UNL     1       6.108   3.039  13.374  0.00  0.00    +0.000 N 
ATOM     31  H   UNL     1       6.459   2.469  15.676  0.00  0.00    +0.000 HD
ATOM     32  H   UNL     1       6.609   2.175  13.520  0.00  0.00    +0.000 HD
BRANCH  30  33
ATOM     33  C   UNL     1       5.942   3.490  11.984  0.00  0.00    +0.000 C 
BRANCH  33  34
ATOM     34  C   UNL     1       4.584   3.191  11.331  0.00  0.00    +0.000 C 
ATOM     35  F   UNL     1       4.566   1.983  10.721  0.00  0.00    +0.000 F 
ATOM     36  F   UNL     1       3.616   3.161  12.283  0.00  0.00    +0.000 F 
ATOM     37  F   UNL     1       4.225   4.126  10.428  0.00  0.00    +0.000 F 
ENDBRANCH  33  34
ENDBRANCH  30  33
ENDBRANCH  25  27
ENDBRANCH   5  21
TORSDOF 8
ENDMDL
MODEL 6
REMARK VINA RESULT:      -8.1      1.901      2.304
REMARK  Name = 
REMARK  9 active torsions:
REMARK  status: ('A' for Active; 'I' for Inactive)
REMARK    1  A    between atoms: C_1  and  O_2
REMARK    2  A    between atoms: O_2  and  C_3
REMARK    3  A    between atoms: C_3  and  C_4
REMARK    4  A    between atoms: C_4  and  N_5
REMARK    5  A    between atoms: C_9  and  C_10
REMARK    6  A    between atoms: C_14  and  C_15
REMARK    7  A    between atoms: C_19  and  N_20
REMARK    8  A    between atoms: N_23  and  C_24
REMARK    9  A    between atoms: C_24  and  C_25
REMARK                            x       y       z     vdW  Elec       q    Type
REMARK                         _______ _______ _______ _____ _____    ______ ____
ROOT
ATOM      1  C   UNL     1      -0.427  10.874  21.263  0.00  0.00    +0.000 A 
ATOM      2  C   UNL     1      -0.194   9.600  21.959  0.00  0.00    +0.000 A 
ATOM      3  C   UNL     1       0.562   8.645  21.393  0.00  0.00    +0.000 A 
ATOM      4  N   UNL     1       1.106   8.848  20.123  0.00  0.00    +0.000 N 
ATOM      5  C   UNL     1       1.870   8.014  19.309  0.00  0.00    +0.000 A 
ATOM      6  C   UNL     1       2.140   8.795  18.195  0.00  0.00    +0.000 A 
ATOM      7  N   UNL     1       1.562  10.034  18.280  0.00  0.00    +0.000 NA
ATOM      8  C   UNL     1       0.937  10.047  19.434  0.00  0.00    +0.000 A 
ATOM      9  C   UNL     1       0.150  11.066  20.050  0.00  0.00    +0.000 A 
ENDROOT
BRANCH   1  14
ATOM     10  N   UNL     1      -3.264  15.081  22.010  0.00  0.00    +0.000 N 
ATOM     11  C   UNL     1      -2.549  13.938  22.122  0.00  0.00    +0.000 A 
ATOM     12  N   UNL     1      -2.192  13.366  23.248  0.00  0.00    +0.000 NA
ATOM     13  N   UNL     1      -1.434  12.233  23.057  0.00  0.00    +0.000 NA
ATOM     14  C   UNL     1      -1.217  11.959  21.783  0.00  0.00    +0.000 A 
ATOM     15  S   UNL     1      -1.978  13.112  20.729  0.00  0.00    +0.000 S 
ATOM     16  H   UNL     1      -3.223  15.546  21.104  0.00  0.00    +0.000 HD
BRANCH  10  17
ATOM     17  C   UNL     1      -3.162  16.046  23.105  0.00  0.00    +0.000 C 
BRANCH  17  18
ATOM     18  C   UNL     1      -4.555  16.346  23.670  0.00  0.00    +0.000 C 
BRANCH  18  20
ATOM     19  C   UNL     1      -4.826  17.918  25.413  0.00  0.00    +0.000 C 
ATOM     20  O   UNL     1      -4.420  16.598  25.074  0.00  0.00    +0.000 OA
ENDBRANCH  18  20
ENDBRANCH  17  18
ENDBRANCH  10  17
ENDBRANCH   1  14
BRANCH   5  21
ATOM     21  C   UNL     1       2.253   6.624  19.592  0.00  0.00    +0.000 A 
ATOM     22  C   UNL     1       1.756   5.964  20.723  0.00  0.00    +0.000 A 
ATOM     23  C   UNL     1       2.149   4.664  21.019  0.00  0.00    +0.000 A 
ATOM     24  C   UNL     1       2.999   3.981  20.153  0.00  0.00    +0.000 A 
ATOM     25  C   UNL     1       3.465   4.579  18.983  0.00  0.00    +0.000 A 
ATOM     26  C   UNL     1       3.097   5.910  18.715  0.00  0.00    +0.000 A 
BRANCH  25  27
ATOM     27  N   UNL     1       4.309   3.903  18.068  0.00  0.00    +0.000 N 
ATOM     28  C   UNL     1       5.311   4.470  17.307  0.00  0.00    +0.000 C 
ATOM     29  O   UNL     1       5.683   5.633  17.321  0.00  0.00    +0.000 OA
ATOM     30  N   UNL     1       5.870   3.577  16.418  0.00  0.00    +0.000 N 
ATOM     31  H   UNL     1       4.161   2.911  17.961  0.00  0.00    +0.000 HD
ATOM     32  H   UNL     1       5.920   2.611  16.707  0.00  0.00    +0.000 HD
BRANCH  30  33
ATOM     33  C   UNL     1       6.946   4.070  15.545  0.00  0.00    +0.000 C 
BRANCH  33  34
ATOM     34  C   UNL     1       6.531   4.479  14.123  0.00  0.00    +0.000 C 
ATOM     35  F   UNL     1       7.431   5.311  13.548  0.00  0.00    +0.000 F 
ATOM     36  F   UNL     1       6.462   3.376  13.333  0.00  0.00    +0.000 F 
ATOM     37  F   UNL     1       5.321   5.071  14.086  0.00  0.00    +0.000 F 
ENDBRANCH  33  34
ENDBRANCH  30  33
ENDBRANCH  25  27
ENDBRANCH   5  21
TORSDOF 8
ENDMDL
MODEL 7
REMARK VINA RESULT:      -8.1      6.247     12.655
REMARK  Name = 
REMARK  9 active torsions:
REMARK  status: ('A' for Active; 'I' for Inactive)
REMARK    1  A    between atoms: C_1  and  O_2
REMARK    2  A    between atoms: O_2  and  C_3
REMARK    3  A    between atoms: C_3  and  C_4
REMARK    4  A    between atoms: C_4  and  N_5
REMARK    5  A    between atoms: C_9  and  C_10
REMARK    6  A    between atoms: C_14  and  C_15
REMARK    7  A    between atoms: C_19  and  N_20
REMARK    8  A    between atoms: N_23  and  C_24
REMARK    9  A    between atoms: C_24  and  C_25
REMARK                            x       y       z     vdW  Elec       q    Type
REMARK                         _______ _______ _______ _____ _____    ______ ____
ROOT
ATOM      1  C   UNL     1       2.892   7.268  18.220  0.00  0.00    +0.000 A 
ATOM      2  C   UNL     1       2.450   8.539  17.627  0.00  0.00    +0.000 A 
ATOM      3  C   UNL     1       1.674   9.381  18.328  0.00  0.00    +0.000 A 
ATOM      4  N   UNL     1       1.257   9.038  19.615  0.00  0.00    +0.000 N 
ATOM      5  C   UNL     1       0.426   9.700  20.517  0.00  0.00    +0.000 A 
ATOM      6  C   UNL     1       0.431   8.880  21.636  0.00  0.00    +0.000 A 
ATOM      7  N   UNL     1       1.191   7.756  21.449  0.00  0.00    +0.000 NA
ATOM      8  C   UNL     1       1.671   7.859  20.231  0.00  0.00    +0.000 A 
ATOM      9  C   UNL     1       2.512   6.977  19.489  0.00  0.00    +0.000 A 
ENDROOT
BRANCH   1  14
ATOM     10  N   UNL     1       6.442   4.754  15.502  0.00  0.00    +0.000 N 
ATOM     11  C   UNL     1       5.397   5.130  16.276  0.00  0.00    +0.000 A 
ATOM     12  N   UNL     1       4.443   4.340  16.708  0.00  0.00    +0.000 NA
ATOM     13  N   UNL     1       3.487   5.005  17.443  0.00  0.00    +0.000 NA
ATOM     14  C   UNL     1       3.725   6.300  17.555  0.00  0.00    +0.000 A 
ATOM     15  S   UNL     1       5.192   6.767  16.752  0.00  0.00    +0.000 S 
ATOM     16  H   UNL     1       6.933   5.507  15.021  0.00  0.00    +0.000 HD
BRANCH  10  17
ATOM     17  C   UNL     1       6.245   3.603  14.621  0.00  0.00    +0.000 C 
BRANCH  17  18
ATOM     18  C   UNL     1       5.534   4.041  13.336  0.00  0.00    +0.000 C 
BRANCH  18  20
ATOM     19  C   UNL     1       5.833   2.337  11.728  0.00  0.00    +0.000 C 
ATOM     20  O   UNL     1       6.309   3.582  12.221  0.00  0.00    +0.000 OA
ENDBRANCH  18  20
ENDBRANCH  17  18
ENDBRANCH  10  17
ENDBRANCH   1  14
BRANCH   5  21
ATOM     21  C   UNL     1      -0.294  10.959  20.283  0.00  0.00    +0.000 A 
ATOM     22  C   UNL     1      -0.145  11.653  19.076  0.00  0.00    +0.000 A 
ATOM     23  C   UNL     1      -0.789  12.867  18.867  0.00  0.00    +0.000 A 
ATOM     24  C   UNL     1      -1.645  13.375  19.840  0.00  0.00    +0.000 A 
ATOM     25  C   UNL     1      -1.873  12.684  21.029  0.00  0.00    +0.000 A 
ATOM     26  C   UNL     1      -1.181  11.479  21.250  0.00  0.00    +0.000 A 
BRANCH  25  27
ATOM     27  N   UNL     1      -2.757  13.161  22.027  0.00  0.00    +0.000 N 
ATOM     28  C   UNL     1      -4.137  13.121  21.986  0.00  0.00    +0.000 C 
ATOM     29  O   UNL     1      -4.836  12.626  21.115  0.00  0.00    +0.000 OA
ATOM     30  N   UNL     1      -4.718  13.778  23.048  0.00  0.00    +0.000 N 
ATOM     31  H   UNL     1      -2.338  13.572  22.847  0.00  0.00    +0.000 HD
ATOM     32  H   UNL     1      -4.224  13.757  23.928  0.00  0.00    +0.000 HD
BRANCH  30  33
ATOM     33  C   UNL     1      -6.187  13.810  23.107  0.00  0.00    +0.000 C 
BRANCH  33  34
ATOM     34  C   UNL     1      -6.850  12.812  24.069  0.00  0.00    +0.000 C 
ATOM     35  F   UNL     1      -7.741  13.412  24.892  0.00  0.00    +0.000 F 
ATOM     36  F   UNL     1      -7.540  11.882  23.359  0.00  0.00    +0.000 F 
ATOM     37  F   UNL     1      -5.952  12.149  24.826  0.00  0.00    +0.000 F 
ENDBRANCH  33  34
ENDBRANCH  30  33
ENDBRANCH  25  27
ENDBRANCH   5  21
TORSDOF 8
ENDMDL
MODEL 8
REMARK VINA RESULT:      -7.9      1.976      2.469
REMARK  Name = 
REMARK  9 active torsions:
REMARK  status: ('A' for Active; 'I' for Inactive)
REMARK    1  A    between atoms: C_1  and  O_2
REMARK    2  A    between atoms: O_2  and  C_3
REMARK    3  A    between atoms: C_3  and  C_4
REMARK    4  A    between atoms: C_4  and  N_5
REMARK    5  A    between atoms: C_9  and  C_10
REMARK    6  A    between atoms: C_14  and  C_15
REMARK    7  A    between atoms: C_19  and  N_20
REMARK    8  A    between atoms: N_23  and  C_24
REMARK    9  A    between atoms: C_24  and  C_25
REMARK                            x       y       z     vdW  Elec       q    Type
REMARK                         _______ _______ _______ _____ _____    ______ ____
ROOT
ATOM      1  C   UNL     1      -0.432  11.228  20.895  0.00  0.00    +0.000 A 
ATOM      2  C   UNL     1      -0.249   9.977  21.648  0.00  0.00    +0.000 A 
ATOM      3  C   UNL     1       0.508   8.988  21.146  0.00  0.00    +0.000 A 
ATOM      4  N   UNL     1       1.101   9.131  19.891  0.00  0.00    +0.000 N 
ATOM      5  C   UNL     1       1.877   8.252  19.138  0.00  0.00    +0.000 A 
ATOM      6  C   UNL     1       2.202   8.985  18.005  0.00  0.00    +0.000 A 
ATOM      7  N   UNL     1       1.645  10.236  18.021  0.00  0.00    +0.000 NA
ATOM      8  C   UNL     1       0.980  10.305  19.151  0.00  0.00    +0.000 A 
ATOM      9  C   UNL     1       0.191  11.361  19.697  0.00  0.00    +0.000 A 
ENDROOT
BRANCH   1  14
ATOM     10  N   UNL     1      -2.217  15.608  22.879  0.00  0.00    +0.000 N 
ATOM     11  C   UNL     1      -2.046  14.406  22.279  0.00  0.00    +0.000 A 
ATOM     12  N   UNL     1      -3.007  13.609  21.876  0.00  0.00    +0.000 NA
ATOM     13  N   UNL     1      -2.537  12.432  21.338  0.00  0.00    +0.000 NA
ATOM     14  C   UNL     1      -1.219  12.346  21.344  0.00  0.00    +0.000 A 
ATOM     15  S   UNL     1      -0.476  13.764  22.018  0.00  0.00    +0.000 S 
ATOM     16  H   UNL     1      -1.409  15.975  23.380  0.00  0.00    +0.000 HD
BRANCH  10  17
ATOM     17  C   UNL     1      -3.449  15.808  23.641  0.00  0.00    +0.000 C 
BRANCH  17  18
ATOM     18  C   UNL     1      -3.207  15.495  25.121  0.00  0.00    +0.000 C 
BRANCH  18  20
ATOM     19  C   UNL     1      -1.164  15.685  26.293  0.00  0.00    +0.000 C 
ATOM     20  O   UNL     1      -2.191  16.384  25.603  0.00  0.00    +0.000 OA
ENDBRANCH  18  20
ENDBRANCH  17  18
ENDBRANCH  10  17
ENDBRANCH   1  14
BRANCH   5  21
ATOM     21  C   UNL     1       2.222   6.868  19.487  0.00  0.00    +0.000 A 
ATOM     22  C   UNL     1       1.674   6.262  20.625  0.00  0.00    +0.000 A 
ATOM     23  C   UNL     1       2.032   4.967  20.985  0.00  0.00    +0.000 A 
ATOM     24  C   UNL     1       2.897   4.236  20.175  0.00  0.00    +0.000 A 
ATOM     25  C   UNL     1       3.414   4.778  19.000  0.00  0.00    +0.000 A 
ATOM     26  C   UNL     1       3.082   6.104  18.668  0.00  0.00    +0.000 A 
BRANCH  25  27
ATOM     27  N   UNL     1       4.275   4.051  18.142  0.00  0.00    +0.000 N 
ATOM     28  C   UNL     1       5.297   4.573  17.374  0.00  0.00    +0.000 C 
ATOM     29  O   UNL     1       5.673   5.734  17.335  0.00  0.00    +0.000 OA
ATOM     30  N   UNL     1       5.871   3.632  16.548  0.00  0.00    +0.000 N 
ATOM     31  H   UNL     1       4.125   3.055  18.085  0.00  0.00    +0.000 HD
ATOM     32  H   UNL     1       5.910   2.682  16.889  0.00  0.00    +0.000 HD
BRANCH  30  33
ATOM     33  C   UNL     1       6.968   4.074  15.673  0.00  0.00    +0.000 C 
BRANCH  33  34
ATOM     34  C   UNL     1       6.571   4.511  14.255  0.00  0.00    +0.000 C 
ATOM     35  F   UNL     1       7.515   5.291  13.678  0.00  0.00    +0.000 F 
ATOM     36  F   UNL     1       6.433   3.417  13.461  0.00  0.00    +0.000 F 
ATOM     37  F   UNL     1       5.397   5.174  14.226  0.00  0.00    +0.000 F 
ENDBRANCH  33  34
ENDBRANCH  30  33
ENDBRANCH  25  27
ENDBRANCH   5  21
TORSDOF 8
ENDMDL
MODEL 9
REMARK VINA RESULT:      -7.9      6.526     12.839
REMARK  Name = 
REMARK  9 active torsions:
REMARK  status: ('A' for Active; 'I' for Inactive)
REMARK    1  A    between atoms: C_1  and  O_2
REMARK    2  A    between atoms: O_2  and  C_3
REMARK    3  A    between atoms: C_3  and  C_4
REMARK    4  A    between atoms: C_4  and  N_5
REMARK    5  A    between atoms: C_9  and  C_10
REMARK    6  A    between atoms: C_14  and  C_15
REMARK    7  A    between atoms: C_19  and  N_20
REMARK    8  A    between atoms: N_23  and  C_24
REMARK    9  A    between atoms: C_24  and  C_25
REMARK                            x       y       z     vdW  Elec       q    Type
REMARK                         _______ _______ _______ _____ _____    ______ ____
ROOT
ATOM      1  C   UNL     1       2.873   7.240  18.211  0.00  0.00    +0.000 A 
ATOM      2  C   UNL     1       2.390   8.512  17.655  0.00  0.00    +0.000 A 
ATOM      3  C   UNL     1       1.602   9.318  18.386  0.00  0.00    +0.000 A 
ATOM      4  N   UNL     1       1.213   8.933  19.670  0.00  0.00    +0.000 N 
ATOM      5  C   UNL     1       0.377   9.552  20.599  0.00  0.00    +0.000 A 
ATOM      6  C   UNL     1       0.419   8.705  21.697  0.00  0.00    +0.000 A 
ATOM      7  N   UNL     1       1.205   7.606  21.473  0.00  0.00    +0.000 NA
ATOM      8  C   UNL     1       1.665   7.751  20.252  0.00  0.00    +0.000 A 
ATOM      9  C   UNL     1       2.518   6.909  19.478  0.00  0.00    +0.000 A 
ENDROOT
BRANCH   1  14
ATOM     10  N   UNL     1       6.364   4.887  15.282  0.00  0.00    +0.000 N 
ATOM     11  C   UNL     1       5.364   5.216  16.133  0.00  0.00    +0.000 A 
ATOM     12  N   UNL     1       4.521   4.374  16.683  0.00  0.00    +0.000 NA
ATOM     13  N   UNL     1       3.583   4.996  17.475  0.00  0.00    +0.000 NA
ATOM     14  C   UNL     1       3.721   6.310  17.513  0.00  0.00    +0.000 A 
ATOM     15  S   UNL     1       5.067   6.852  16.559  0.00  0.00    +0.000 S 
ATOM     16  H   UNL     1       6.747   5.652  14.727  0.00  0.00    +0.000 HD
BRANCH  10  17
ATOM     17  C   UNL     1       6.187   3.683  14.471  0.00  0.00    +0.000 C 
BRANCH  17  18
ATOM     18  C   UNL     1       6.421   4.008  12.991  0.00  0.00    +0.000 C 
BRANCH  18  20
ATOM     19  C   UNL     1       4.600   3.250  11.691  0.00  0.00    +0.000 C 
ATOM     20  O   UNL     1       5.885   2.933  12.210  0.00  0.00    +0.000 OA
ENDBRANCH  18  20
ENDBRANCH  17  18
ENDBRANCH  10  17
ENDBRANCH   1  14
BRANCH   5  21
ATOM     21  C   UNL     1      -0.378  10.797  20.405  0.00  0.00    +0.000 A 
ATOM     22  C   UNL     1      -1.037  11.051  19.195  0.00  0.00    +0.000 A 
ATOM     23  C   UNL     1      -1.716  12.247  18.991  0.00  0.00    +0.000 A 
ATOM     24  C   UNL     1      -1.799  13.182  20.019  0.00  0.00    +0.000 A 
ATOM     25  C   UNL     1      -1.213  12.940  21.260  0.00  0.00    +0.000 A 
ATOM     26  C   UNL     1      -0.491  11.747  21.442  0.00  0.00    +0.000 A 
BRANCH  25  27
ATOM     27  N   UNL     1      -1.303  13.859  22.334  0.00  0.00    +0.000 N 
ATOM     28  C   UNL     1      -2.366  14.001  23.204  0.00  0.00    +0.000 C 
ATOM     29  O   UNL     1      -3.387  13.333  23.238  0.00  0.00    +0.000 OA
ATOM     30  N   UNL     1      -2.209  15.067  24.062  0.00  0.00    +0.000 N 
ATOM     31  H   UNL     1      -0.514  14.472  22.475  0.00  0.00    +0.000 HD
ATOM     32  H   UNL     1      -1.267  15.291  24.351  0.00  0.00    +0.000 HD
BRANCH  30  33
ATOM     33  C   UNL     1      -3.285  15.324  25.032  0.00  0.00    +0.000 C 
BRANCH  33  34
ATOM     34  C   UNL     1      -4.301  16.410  24.647  0.00  0.00    +0.000 C 
ATOM     35  F   UNL     1      -3.997  16.997  23.466  0.00  0.00    +0.000 F 
ATOM     36  F   UNL     1      -5.530  15.853  24.499  0.00  0.00    +0.000 F 
ATOM     37  F   UNL     1      -4.410  17.374  25.584  0.00  0.00    +0.000 F 
ENDBRANCH  33  34
ENDBRANCH  30  33
ENDBRANCH  25  27
ENDBRANCH   5  21
TORSDOF 8
ENDMDL
