MODEL 1
REMARK VINA RESULT:      -8.0      0.000      0.000
REMARK  Name = 
REMARK  2 active torsions:
REMARK  status: ('A' for Active; 'I' for Inactive)
REMARK    1  A    between atoms: C_5  and  C_6
REMARK    2  A    between atoms: C_8  and  N_9
REMARK                            x       y       z     vdW  Elec       q    Type
REMARK                         _______ _______ _______ _____ _____    ______ ____
ROOT
ATOM      1  C   UNL     1       2.756   7.259  18.726  0.00  0.00    +0.000 A 
ATOM      2  C   UNL     1       3.729   7.036  17.773  0.00  0.00    +0.000 A 
ATOM      3  C   UNL     1       4.388   5.830  17.783  0.00  0.00    +0.000 A 
ATOM      4  N   UNL     1       4.078   4.897  18.697  0.00  0.00    +0.000 NA
ATOM      5  C   UNL     1       3.118   5.155  19.600  0.00  0.00    +0.000 A 
ATOM      6  N   UNL     1       2.812   4.164  20.538  0.00  0.00    +0.000 N 
ATOM      7  C   UNL     1       1.523   4.271  21.215  0.00  0.00    +0.000 C 
ATOM      8  C   UNL     1       1.169   2.777  21.238  0.00  0.00    +0.000 C 
ATOM      9  C   UNL     1       2.490   2.056  21.650  0.00  0.00    +0.000 C 
ATOM     10  C   UNL     1       2.977   2.743  20.314  0.00  0.00    +0.000 C 
ATOM     11  C   UNL     1       1.558   2.277  19.800  0.00  0.00    +0.000 C 
ATOM     12  N   UNL     1       2.447   6.322  19.639  0.00  0.00    +0.000 NA
ENDROOT
BRANCH   1  17
ATOM     13  N   UNL     1      -0.061  12.070  19.003  0.00  0.00    +0.000 N 
ATOM     14  C   UNL     1       0.632  10.883  18.928  0.00  0.00    +0.000 A 
ATOM     15  N   UNL     1       1.393  10.664  17.851  0.00  0.00    +0.000 NA
ATOM     16  C   UNL     1       2.053   9.482  17.803  0.00  0.00    +0.000 A 
ATOM     17  C   UNL     1       2.009   8.517  18.789  0.00  0.00    +0.000 A 
ATOM     18  C   UNL     1       1.201   8.878  19.854  0.00  0.00    +0.000 A 
ATOM     19  N   UNL     1       0.524  10.043  19.956  0.00  0.00    +0.000 NA
ATOM     20  H   UNL     1       0.381  12.772  18.427  0.00  0.00    +0.000 HD
ATOM     21  H   UNL     1      -0.248  12.302  19.967  0.00  0.00    +0.000 HD
ENDBRANCH   1  17
BRANCH   3  22
ATOM     22  N   UNL     1       5.372   5.552  16.882  0.00  0.00    +0.000 N 
ATOM     23  C   UNL     1       6.483   6.474  16.619  0.00  0.00    +0.000 C 
ATOM     24  C   UNL     1       7.362   5.604  15.662  0.00  0.00    +0.000 C 
ATOM     25  C   UNL     1       7.191   4.228  16.297  0.00  0.00    +0.000 C 
ATOM     26  C   UNL     1       5.670   4.290  16.184  0.00  0.00    +0.000 C 
ATOM     27  C   UNL     1       5.516   4.550  14.671  0.00  0.00    +0.000 C 
ATOM     28  N   UNL     1       6.699   5.397  14.334  0.00  0.00    +0.000 NA
ATOM     29  H   UNL     1       6.359   6.300  14.002  0.00  0.00    +0.000 HD
ENDBRANCH   3  22
TORSDOF 2
ENDMDL
MODEL 2
REMARK VINA RESULT:      -7.8      0.561      1.448
REMARK  Name = 
REMARK  2 active torsions:
REMARK  status: ('A' for Active; 'I' for Inactive)
REMARK    1  A    between atoms: C_5  and  C_6
REMARK    2  A    between atoms: C_8  and  N_9
REMARK                            x       y       z     vdW  Elec       q    Type
REMARK                         _______ _______ _______ _____ _____    ______ ____
ROOT
ATOM      1  C   UNL     1       2.739   7.129  18.725  0.00  0.00    +0.000 A 
ATOM      2  C   UNL     1       3.624   6.847  17.704  0.00  0.00    +0.000 A 
ATOM      3  C   UNL     1       4.225   5.611  17.684  0.00  0.00    +0.000 A 
ATOM      4  N   UNL     1       3.946   4.707  18.636  0.00  0.00    +0.000 NA
ATOM      5  C   UNL     1       3.073   5.023  19.607  0.00  0.00    +0.000 A 
ATOM      6  N   UNL     1       2.796   4.061  20.582  0.00  0.00    +0.000 N 
ATOM      7  C   UNL     1       1.571   4.238  21.356  0.00  0.00    +0.000 C 
ATOM      8  C   UNL     1       1.152   2.763  21.433  0.00  0.00    +0.000 C 
ATOM      9  C   UNL     1       2.467   1.987  21.755  0.00  0.00    +0.000 C 
ATOM     10  C   UNL     1       2.879   2.631  20.372  0.00  0.00    +0.000 C 
ATOM     11  C   UNL     1       1.403   2.225  19.978  0.00  0.00    +0.000 C 
ATOM     12  N   UNL     1       2.461   6.221  19.677  0.00  0.00    +0.000 NA
ENDROOT
BRANCH   1  17
ATOM     13  N   UNL     1       0.109  12.041  19.065  0.00  0.00    +0.000 N 
ATOM     14  C   UNL     1       0.760  10.830  18.988  0.00  0.00    +0.000 A 
ATOM     15  N   UNL     1       0.610   9.968  19.998  0.00  0.00    +0.000 NA
ATOM     16  C   UNL     1       1.272   8.791  19.897  0.00  0.00    +0.000 A 
ATOM     17  C   UNL     1       2.058   8.421  18.824  0.00  0.00    +0.000 A 
ATOM     18  C   UNL     1       2.111   9.395  17.841  0.00  0.00    +0.000 A 
ATOM     19  N   UNL     1       1.470  10.584  17.889  0.00  0.00    +0.000 NA
ATOM     20  H   UNL     1      -0.684  11.975  19.685  0.00  0.00    +0.000 HD
ATOM     21  H   UNL     1      -0.046  12.410  18.139  0.00  0.00    +0.000 HD
ENDBRANCH   1  17
BRANCH   3  22
ATOM     22  N   UNL     1       5.122   5.275  16.714  0.00  0.00    +0.000 N 
ATOM     23  C   UNL     1       5.403   3.881  16.350  0.00  0.00    +0.000 C 
ATOM     24  C   UNL     1       6.344   4.089  15.118  0.00  0.00    +0.000 C 
ATOM     25  C   UNL     1       5.682   5.294  14.457  0.00  0.00    +0.000 C 
ATOM     26  C   UNL     1       5.795   6.135  15.726  0.00  0.00    +0.000 C 
ATOM     27  C   UNL     1       7.313   6.039  15.987  0.00  0.00    +0.000 C 
ATOM     28  N   UNL     1       7.666   4.665  15.520  0.00  0.00    +0.000 NA
ATOM     29  H   UNL     1       8.016   4.137  16.321  0.00  0.00    +0.000 HD
ENDBRANCH   3  22
TORSDOF 2
ENDMDL
MODEL 3
REMARK VINA RESULT:      -7.7      0.862      1.502
REMARK  Name = 
REMARK  2 active torsions:
REMARK  status: ('A' for Active; 'I' for Inactive)
REMARK    1  A    between atoms: C_5  and  C_6
REMARK    2  A    between atoms: C_8  and  N_9
REMARK                            x       y       z     vdW  Elec       q    Type
REMARK                         _______ _______ _______ _____ _____    ______ ____
ROOT
ATOM      1  C   UNL     1       2.559   7.341  18.992  0.00  0.00    +0.000 A 
ATOM      2  C   UNL     1       3.673   7.249  18.182  0.00  0.00    +0.000 A 
ATOM      3  C   UNL     1       4.435   6.107  18.248  0.00  0.00    +0.000 A 
ATOM      4  N   UNL     1       4.090   5.110  19.078  0.00  0.00    +0.000 NA
ATOM      5  C   UNL     1       2.994   5.241  19.843  0.00  0.00    +0.000 A 
ATOM      6  N   UNL     1       2.656   4.186  20.695  0.00  0.00    +0.000 N 
ATOM      7  C   UNL     1       1.280   4.147  21.185  0.00  0.00    +0.000 C 
ATOM      8  C   UNL     1       1.070   2.628  21.110  0.00  0.00    +0.000 C 
ATOM      9  C   UNL     1       2.383   2.011  21.684  0.00  0.00    +0.000 C 
ATOM     10  C   UNL     1       2.984   2.797  20.453  0.00  0.00    +0.000 C 
ATOM     11  C   UNL     1       1.701   2.229  19.727  0.00  0.00    +0.000 C 
ATOM     12  N   UNL     1       2.217   6.341  19.822  0.00  0.00    +0.000 NA
ENDROOT
BRANCH   1  17
ATOM     13  N   UNL     1      -0.772  11.820  18.953  0.00  0.00    +0.000 N 
ATOM     14  C   UNL     1       0.053  10.717  18.968  0.00  0.00    +0.000 A 
ATOM     15  N   UNL     1       0.319  10.146  20.146  0.00  0.00    +0.000 NA
ATOM     16  C   UNL     1       1.143   9.071  20.128  0.00  0.00    +0.000 A 
ATOM     17  C   UNL     1       1.695   8.523  18.987  0.00  0.00    +0.000 A 
ATOM     18  C   UNL     1       1.323   9.198  17.837  0.00  0.00    +0.000 A 
ATOM     19  N   UNL     1       0.504  10.273  17.797  0.00  0.00    +0.000 NA
ATOM     20  H   UNL     1      -1.363  11.828  19.772  0.00  0.00    +0.000 HD
ATOM     21  H   UNL     1      -1.216  11.908  18.051  0.00  0.00    +0.000 HD
ENDBRANCH   1  17
BRANCH   3  22
ATOM     22  N   UNL     1       5.556   5.959  17.488  0.00  0.00    +0.000 N 
ATOM     23  C   UNL     1       5.520   5.953  16.021  0.00  0.00    +0.000 C 
ATOM     24  C   UNL     1       7.049   5.922  15.693  0.00  0.00    +0.000 C 
ATOM     25  C   UNL     1       7.590   6.841  16.783  0.00  0.00    +0.000 C 
ATOM     26  C   UNL     1       6.972   5.996  17.895  0.00  0.00    +0.000 C 
ATOM     27  C   UNL     1       7.584   4.618  17.568  0.00  0.00    +0.000 C 
ATOM     28  N   UNL     1       7.672   4.615  16.077  0.00  0.00    +0.000 NA
ATOM     29  H   UNL     1       7.080   3.861  15.725  0.00  0.00    +0.000 HD
ENDBRANCH   3  22
TORSDOF 2
ENDMDL
MODEL 4
REMARK VINA RESULT:      -7.6      1.134      6.121
REMARK  Name = 
REMARK  2 active torsions:
REMARK  status: ('A' for Active; 'I' for Inactive)
REMARK    1  A    between atoms: C_5  and  C_6
REMARK    2  A    between atoms: C_8  and  N_9
REMARK                            x       y       z     vdW  Elec       q    Type
REMARK                         _______ _______ _______ _____ _____    ______ ____
ROOT
ATOM      1  C   UNL     1       3.994   6.013  17.461  0.00  0.00    +0.000 A 
ATOM      2  C   UNL     1       3.421   7.252  17.660  0.00  0.00    +0.000 A 
ATOM      3  C   UNL     1       2.369   7.350  18.540  0.00  0.00    +0.000 A 
ATOM      4  N   UNL     1       1.924   6.261  19.187  0.00  0.00    +0.000 NA
ATOM      5  C   UNL     1       2.518   5.077  18.966  0.00  0.00    +0.000 A 
ATOM      6  N   UNL     1       2.038   3.961  19.659  0.00  0.00    +0.000 N 
ATOM      7  C   UNL     1       2.927   2.806  19.745  0.00  0.00    +0.000 C 
ATOM      8  C   UNL     1       2.604   2.396  21.190  0.00  0.00    +0.000 C 
ATOM      9  C   UNL     1       1.052   2.510  21.303  0.00  0.00    +0.000 C 
ATOM     10  C   UNL     1       1.396   4.012  20.955  0.00  0.00    +0.000 C 
ATOM     11  C   UNL     1       2.580   3.760  21.970  0.00  0.00    +0.000 C 
ATOM     12  N   UNL     1       3.547   4.925  18.111  0.00  0.00    +0.000 NA
ENDROOT
BRANCH   1  17
ATOM     13  N   UNL     1       8.249   5.307  13.916  0.00  0.00    +0.000 N 
ATOM     14  C   UNL     1       7.203   5.479  14.796  0.00  0.00    +0.000 A 
ATOM     15  N   UNL     1       7.440   6.138  15.935  0.00  0.00    +0.000 NA
ATOM     16  C   UNL     1       6.394   6.280  16.783  0.00  0.00    +0.000 A 
ATOM     17  C   UNL     1       5.116   5.819  16.539  0.00  0.00    +0.000 A 
ATOM     18  C   UNL     1       5.004   5.175  15.318  0.00  0.00    +0.000 A 
ATOM     19  N   UNL     1       6.012   5.006  14.434  0.00  0.00    +0.000 NA
ATOM     20  H   UNL     1       8.955   6.013  14.067  0.00  0.00    +0.000 HD
ATOM     21  H   UNL     1       7.896   5.185  12.979  0.00  0.00    +0.000 HD
ENDBRANCH   1  17
BRANCH   3  22
ATOM     22  N   UNL     1       1.746   8.540  18.769  0.00  0.00    +0.000 N 
ATOM     23  C   UNL     1       1.488   9.047  20.122  0.00  0.00    +0.000 C 
ATOM     24  C   UNL     1       0.925  10.469  19.797  0.00  0.00    +0.000 C 
ATOM     25  C   UNL     1       1.811  10.860  18.619  0.00  0.00    +0.000 C 
ATOM     26  C   UNL     1       1.415   9.619  17.822  0.00  0.00    +0.000 C 
ATOM     27  C   UNL     1      -0.121   9.774  17.816  0.00  0.00    +0.000 C 
ATOM     28  N   UNL     1      -0.419  10.397  19.140  0.00  0.00    +0.000 NA
ATOM     29  H   UNL     1      -1.002   9.750  19.672  0.00  0.00    +0.000 HD
ENDBRANCH   3  22
TORSDOF 2
ENDMDL
MODEL 5
REMARK VINA RESULT:      -7.6      1.160      6.172
REMARK  Name = 
REMARK  2 active torsions:
REMARK  status: ('A' for Active; 'I' for Inactive)
REMARK    1  A    between atoms: C_5  and  C_6
REMARK    2  A    between atoms: C_8  and  N_9
REMARK                            x       y       z     vdW  Elec       q    Type
REMARK                         _______ _______ _______ _____ _____    ______ ____
ROOT
ATOM      1  C   UNL     1       4.009   6.141  17.380  0.00  0.00    +0.000 A 
ATOM      2  C   UNL     1       3.474   7.395  17.591  0.00  0.00    +0.000 A 
ATOM      3  C   UNL     1       2.426   7.517  18.472  0.00  0.00    +0.000 A 
ATOM      4  N   UNL     1       1.949   6.437  19.110  0.00  0.00    +0.000 NA
ATOM      5  C   UNL     1       2.506   5.237  18.878  0.00  0.00    +0.000 A 
ATOM      6  N   UNL     1       1.993   4.130  19.561  0.00  0.00    +0.000 N 
ATOM      7  C   UNL     1       2.847   2.948  19.637  0.00  0.00    +0.000 C 
ATOM      8  C   UNL     1       2.511   2.536  21.078  0.00  0.00    +0.000 C 
ATOM      9  C   UNL     1       0.964   2.695  21.194  0.00  0.00    +0.000 C 
ATOM     10  C   UNL     1       1.353   4.189  20.858  0.00  0.00    +0.000 C 
ATOM     11  C   UNL     1       2.530   3.893  21.870  0.00  0.00    +0.000 C 
ATOM     12  N   UNL     1       3.530   5.061  18.021  0.00  0.00    +0.000 NA
ENDROOT
BRANCH   1  17
ATOM     13  N   UNL     1       8.278   5.269  13.890  0.00  0.00    +0.000 N 
ATOM     14  C   UNL     1       7.221   5.486  14.745  0.00  0.00    +0.000 A 
ATOM     15  N   UNL     1       6.016   5.032  14.386  0.00  0.00    +0.000 NA
ATOM     16  C   UNL     1       4.996   5.271  15.244  0.00  0.00    +0.000 A 
ATOM     17  C   UNL     1       5.124   5.921  16.456  0.00  0.00    +0.000 A 
ATOM     18  C   UNL     1       6.425   6.320  16.713  0.00  0.00    +0.000 A 
ATOM     19  N   UNL     1       7.479   6.106  15.895  0.00  0.00    +0.000 NA
ATOM     20  H   UNL     1       8.087   4.480  13.289  0.00  0.00    +0.000 HD
ATOM     21  H   UNL     1       9.145   5.270  14.404  0.00  0.00    +0.000 HD
ENDBRANCH   1  17
BRANCH   3  22
ATOM     22  N   UNL     1       1.840   8.724  18.712  0.00  0.00    +0.000 N 
ATOM     23  C   UNL     1       2.216   9.942  17.985  0.00  0.00    +0.000 C 
ATOM     24  C   UNL     1       1.147  10.946  18.530  0.00  0.00    +0.000 C 
ATOM     25  C   UNL     1      -0.076  10.038  18.612  0.00  0.00    +0.000 C 
ATOM     26  C   UNL     1       0.644   9.038  19.513  0.00  0.00    +0.000 C 
ATOM     27  C   UNL     1       1.088   9.969  20.661  0.00  0.00    +0.000 C 
ATOM     28  N   UNL     1       1.372  11.265  19.976  0.00  0.00    +0.000 NA
ATOM     29  H   UNL     1       2.361  11.483  20.106  0.00  0.00    +0.000 HD
ENDBRANCH   3  22
TORSDOF 2
ENDMDL
MODEL 6
REMARK VINA RESULT:      -7.2      1.018      5.177
REMARK  Name = 
REMARK  2 active torsions:
REMARK  status: ('A' for Active; 'I' for Inactive)
REMARK    1  A    between atoms: C_5  and  C_6
REMARK    2  A    between atoms: C_8  and  N_9
REMARK                            x       y       z     vdW  Elec       q    Type
REMARK                         _______ _______ _______ _____ _____    ______ ____
ROOT
ATOM      1  C   UNL     1       2.694   7.275  18.362  0.00  0.00    +0.000 A 
ATOM      2  C   UNL     1       2.292   6.300  19.252  0.00  0.00    +0.000 A 
ATOM      3  C   UNL     1       2.778   5.025  19.086  0.00  0.00    +0.000 A 
ATOM      4  N   UNL     1       3.627   4.750  18.083  0.00  0.00    +0.000 NA
ATOM      5  C   UNL     1       3.996   5.733  17.246  0.00  0.00    +0.000 A 
ATOM      6  N   UNL     1       4.885   5.419  16.213  0.00  0.00    +0.000 N 
ATOM      7  C   UNL     1       5.597   6.534  15.594  0.00  0.00    +0.000 C 
ATOM      8  C   UNL     1       6.958   5.844  15.415  0.00  0.00    +0.000 C 
ATOM      9  C   UNL     1       6.619   4.417  14.882  0.00  0.00    +0.000 C 
ATOM     10  C   UNL     1       5.869   4.359  16.271  0.00  0.00    +0.000 C 
ATOM     11  C   UNL     1       7.177   5.088  16.775  0.00  0.00    +0.000 C 
ATOM     12  N   UNL     1       3.545   6.996  17.359  0.00  0.00    +0.000 NA
ENDROOT
BRANCH   1  17
ATOM     13  N   UNL     1       0.922  12.551  18.793  0.00  0.00    +0.000 N 
ATOM     14  C   UNL     1       1.358  11.250  18.679  0.00  0.00    +0.000 A 
ATOM     15  N   UNL     1       2.183  10.947  17.673  0.00  0.00    +0.000 NA
ATOM     16  C   UNL     1       2.584   9.657  17.583  0.00  0.00    +0.000 A 
ATOM     17  C   UNL     1       2.221   8.658  18.464  0.00  0.00    +0.000 A 
ATOM     18  C   UNL     1       1.382   9.111  19.469  0.00  0.00    +0.000 A 
ATOM     19  N   UNL     1       0.953  10.385  19.607  0.00  0.00    +0.000 NA
ATOM     20  H   UNL     1       1.566  13.179  18.334  0.00  0.00    +0.000 HD
ATOM     21  H   UNL     1       0.671  12.751  19.749  0.00  0.00    +0.000 HD
ENDBRANCH   1  17
BRANCH   3  22
ATOM     22  N   UNL     1       2.408   4.012  19.918  0.00  0.00    +0.000 N 
ATOM     23  C   UNL     1       1.354   4.166  20.929  0.00  0.00    +0.000 C 
ATOM     24  C   UNL     1       1.240   2.698  21.455  0.00  0.00    +0.000 C 
ATOM     25  C   UNL     1       1.424   1.918  20.157  0.00  0.00    +0.000 C 
ATOM     26  C   UNL     1       2.767   2.584  19.868  0.00  0.00    +0.000 C 
ATOM     27  C   UNL     1       3.525   2.252  21.171  0.00  0.00    +0.000 C 
ATOM     28  N   UNL     1       2.461   2.286  22.219  0.00  0.00    +0.000 NA
ATOM     29  H   UNL     1       2.691   3.028  22.882  0.00  0.00    +0.000 HD
ENDBRANCH   3  22
TORSDOF 2
ENDMDL
MODEL 7
REMARK VINA RESULT:      -7.0      1.487      6.823
REMARK  Name = 
REMARK  2 active torsions:
REMARK  status: ('A' for Active; 'I' for Inactive)
REMARK    1  A    between atoms: C_5  and  C_6
REMARK    2  A    between atoms: C_8  and  N_9
REMARK                            x       y       z     vdW  Elec       q    Type
REMARK                         _______ _______ _______ _____ _____    ______ ____
ROOT
ATOM      1  C   UNL     1       4.269   6.038  17.450  0.00  0.00    +0.000 A 
ATOM      2  C   UNL     1       3.766   4.958  18.146  0.00  0.00    +0.000 A 
ATOM      3  C   UNL     1       2.785   5.185  19.082  0.00  0.00    +0.000 A 
ATOM      4  N   UNL     1       2.331   6.430  19.299  0.00  0.00    +0.000 NA
ATOM      5  C   UNL     1       2.846   7.449  18.593  0.00  0.00    +0.000 A 
ATOM      6  N   UNL     1       2.351   8.734  18.835  0.00  0.00    +0.000 N 
ATOM      7  C   UNL     1       2.590   9.739  17.803  0.00  0.00    +0.000 C 
ATOM      8  C   UNL     1       1.234  10.456  17.885  0.00  0.00    +0.000 C 
ATOM      9  C   UNL     1       0.946  10.599  19.412  0.00  0.00    +0.000 C 
ATOM     10  C   UNL     1       1.014   9.024  19.309  0.00  0.00    +0.000 C 
ATOM     11  C   UNL     1       0.194   9.281  17.983  0.00  0.00    +0.000 C 
ATOM     12  N   UNL     1       3.812   7.283  17.670  0.00  0.00    +0.000 NA
ENDROOT
BRANCH   1  17
ATOM     13  N   UNL     1       8.285   5.419  13.623  0.00  0.00    +0.000 N 
ATOM     14  C   UNL     1       7.290   5.575  14.562  0.00  0.00    +0.000 A 
ATOM     15  N   UNL     1       6.043   5.239  14.220  0.00  0.00    +0.000 NA
ATOM     16  C   UNL     1       5.086   5.414  15.163  0.00  0.00    +0.000 A 
ATOM     17  C   UNL     1       5.318   5.886  16.439  0.00  0.00    +0.000 A 
ATOM     18  C   UNL     1       6.653   6.177  16.667  0.00  0.00    +0.000 A 
ATOM     19  N   UNL     1       7.647   6.019  15.766  0.00  0.00    +0.000 NA
ATOM     20  H   UNL     1       8.015   4.731  12.935  0.00  0.00    +0.000 HD
ATOM     21  H   UNL     1       9.177   5.305  14.079  0.00  0.00    +0.000 HD
ENDBRANCH   1  17
BRANCH   3  22
ATOM     22  N   UNL     1       2.257   4.166  19.817  0.00  0.00    +0.000 N 
ATOM     23  C   UNL     1       0.977   4.285  20.524  0.00  0.00    +0.000 C 
ATOM     24  C   UNL     1       0.792   2.819  21.038  0.00  0.00    +0.000 C 
ATOM     25  C   UNL     1       1.329   2.033  19.847  0.00  0.00    +0.000 C 
ATOM     26  C   UNL     1       2.674   2.755  19.891  0.00  0.00    +0.000 C 
ATOM     27  C   UNL     1       3.091   2.473  21.351  0.00  0.00    +0.000 C 
ATOM     28  N   UNL     1       1.796   2.471  22.095  0.00  0.00    +0.000 NA
ATOM     29  H   UNL     1       1.820   3.230  22.777  0.00  0.00    +0.000 HD
ENDBRANCH   3  22
TORSDOF 2
ENDMDL
MODEL 8
REMARK VINA RESULT:      -7.0      1.111      5.243
REMARK  Name = 
REMARK  2 active torsions:
REMARK  status: ('A' for Active; 'I' for Inactive)
REMARK    1  A    between atoms: C_5  and  C_6
REMARK    2  A    between atoms: C_8  and  N_9
REMARK                            x       y       z     vdW  Elec       q    Type
REMARK                         _______ _______ _______ _____ _____    ______ ____
ROOT
ATOM      1  C   UNL     1       2.564   7.613  18.706  0.00  0.00    +0.000 A 
ATOM      2  C   UNL     1       2.039   6.535  19.389  0.00  0.00    +0.000 A 
ATOM      3  C   UNL     1       2.642   5.310  19.236  0.00  0.00    +0.000 A 
ATOM      4  N   UNL     1       3.719   5.179  18.444  0.00  0.00    +0.000 NA
ATOM      5  C   UNL     1       4.199   6.258  17.805  0.00  0.00    +0.000 A 
ATOM      6  N   UNL     1       5.325   6.095  16.992  0.00  0.00    +0.000 N 
ATOM      7  C   UNL     1       6.078   7.300  16.657  0.00  0.00    +0.000 C 
ATOM      8  C   UNL     1       7.489   6.702  16.749  0.00  0.00    +0.000 C 
ATOM      9  C   UNL     1       7.389   5.320  16.032  0.00  0.00    +0.000 C 
ATOM     10  C   UNL     1       6.343   5.085  17.192  0.00  0.00    +0.000 C 
ATOM     11  C   UNL     1       7.441   5.826  18.053  0.00  0.00    +0.000 C 
ATOM     12  N   UNL     1       3.643   7.480  17.915  0.00  0.00    +0.000 NA
ENDROOT
BRANCH   1  17
ATOM     13  N   UNL     1       0.316  12.711  19.060  0.00  0.00    +0.000 N 
ATOM     14  C   UNL     1       0.872  11.453  18.980  0.00  0.00    +0.000 A 
ATOM     15  N   UNL     1       0.473  10.531  19.860  0.00  0.00    +0.000 NA
ATOM     16  C   UNL     1       1.046   9.308  19.762  0.00  0.00    +0.000 A 
ATOM     17  C   UNL     1       1.981   8.953  18.810  0.00  0.00    +0.000 A 
ATOM     18  C   UNL     1       2.290   9.994  17.950  0.00  0.00    +0.000 A 
ATOM     19  N   UNL     1       1.748  11.230  18.002  0.00  0.00    +0.000 NA
ATOM     20  H   UNL     1      -0.579  12.671  19.523  0.00  0.00    +0.000 HD
ATOM     21  H   UNL     1       0.362  13.167  18.162  0.00  0.00    +0.000 HD
ENDBRANCH   1  17
BRANCH   3  22
ATOM     22  N   UNL     1       2.163   4.201  19.867  0.00  0.00    +0.000 N 
ATOM     23  C   UNL     1       0.803   4.130  20.412  0.00  0.00    +0.000 C 
ATOM     24  C   UNL     1       0.745   2.630  20.854  0.00  0.00    +0.000 C 
ATOM     25  C   UNL     1       1.517   1.972  19.715  0.00  0.00    +0.000 C 
ATOM     26  C   UNL     1       2.744   2.849  19.949  0.00  0.00    +0.000 C 
ATOM     27  C   UNL     1       3.015   2.553  21.440  0.00  0.00    +0.000 C 
ATOM     28  N   UNL     1       1.651   2.358  22.016  0.00  0.00    +0.000 NA
ATOM     29  H   UNL     1       1.496   3.082  22.719  0.00  0.00    +0.000 HD
ENDBRANCH   3  22
TORSDOF 2
ENDMDL
MODEL 9
REMARK VINA RESULT:      -6.8      8.714      9.509
REMARK  Name = 
REMARK  2 active torsions:
REMARK  status: ('A' for Active; 'I' for Inactive)
REMARK    1  A    between atoms: C_5  and  C_6
REMARK    2  A    between atoms: C_8  and  N_9
REMARK                            x       y       z     vdW  Elec       q    Type
REMARK                         _______ _______ _______ _____ _____    ______ ____
ROOT
ATOM      1  C   UNL     1       6.931  14.697  19.918  0.00  0.00    +0.000 A 
ATOM      2  C   UNL     1       8.049  14.256  19.240  0.00  0.00    +0.000 A 
ATOM      3  C   UNL     1       9.063  13.675  19.965  0.00  0.00    +0.000 A 
ATOM      4  N   UNL     1       8.952  13.539  21.295  0.00  0.00    +0.000 NA
ATOM      5  C   UNL     1       7.842  13.976  21.911  0.00  0.00    +0.000 A 
ATOM      6  N   UNL     1       7.750  13.816  23.297  0.00  0.00    +0.000 N 
ATOM      7  C   UNL     1       6.415  13.891  23.883  0.00  0.00    +0.000 C 
ATOM      8  C   UNL     1       6.579  12.778  24.929  0.00  0.00    +0.000 C 
ATOM      9  C   UNL     1       7.990  13.014  25.551  0.00  0.00    +0.000 C 
ATOM     10  C   UNL     1       8.409  12.769  24.048  0.00  0.00    +0.000 C 
ATOM     11  C   UNL     1       7.316  11.632  24.145  0.00  0.00    +0.000 C 
ATOM     12  N   UNL     1       6.822  14.558  21.250  0.00  0.00    +0.000 NA
ENDROOT
BRANCH   1  17
ATOM     13  N   UNL     1       2.679  17.146  17.256  0.00  0.00    +0.000 N 
ATOM     14  C   UNL     1       3.724  16.535  17.912  0.00  0.00    +0.000 A 
ATOM     15  N   UNL     1       4.128  15.338  17.478  0.00  0.00    +0.000 NA
ATOM     16  C   UNL     1       5.150  14.760  18.152  0.00  0.00    +0.000 A 
ATOM     17  C   UNL     1       5.807  15.331  19.224  0.00  0.00    +0.000 A 
ATOM     18  C   UNL     1       5.303  16.577  19.557  0.00  0.00    +0.000 A 
ATOM     19  N   UNL     1       4.288  17.200  18.919  0.00  0.00    +0.000 NA
ATOM     20  H   UNL     1       2.599  16.789  16.314  0.00  0.00    +0.000 HD
ATOM     21  H   UNL     1       2.729  18.146  17.378  0.00  0.00    +0.000 HD
ENDBRANCH   1  17
BRANCH   3  22
ATOM     22  N   UNL     1      10.203  13.235  19.361  0.00  0.00    +0.000 N 
ATOM     23  C   UNL     1      11.210  14.152  18.814  0.00  0.00    +0.000 C 
ATOM     24  C   UNL     1      12.333  13.141  18.411  0.00  0.00    +0.000 C 
ATOM     25  C   UNL     1      12.250  12.151  19.568  0.00  0.00    +0.000 C 
ATOM     26  C   UNL     1      10.770  11.876  19.314  0.00  0.00    +0.000 C 
ATOM     27  C   UNL     1      10.819  11.446  17.832  0.00  0.00    +0.000 C 
ATOM     28  N   UNL     1      11.917  12.279  17.258  0.00  0.00    +0.000 NA
ATOM     29  H   UNL     1      11.517  12.880  16.537  0.00  0.00    +0.000 HD
ENDBRANCH   3  22
TORSDOF 2
ENDMDL
