MODEL 1
REMARK VINA RESULT:      -7.9      0.000      0.000
REMARK  Name = 
REMARK  8 active torsions:
REMARK  status: ('A' for Active; 'I' for Inactive)
REMARK    1  A    between atoms: C_1  and  O_2
REMARK    2  A    between atoms: O_2  and  C_3
REMARK    3  A    between atoms: C_6  and  S_7
REMARK    4  A    between atoms: S_7  and  C_10
REMARK    5  A    between atoms: C_10  and  C_11
REMARK    6  A    between atoms: C_14  and  C_15
REMARK    7  A    between atoms: N_17  and  C_18
REMARK    8  A    between atoms: C_18  and  C_19
REMARK                            x       y       z     vdW  Elec       q    Type
REMARK                         _______ _______ _______ _____ _____    ______ ____
ROOT
ATOM      1  C   UNL     1       2.029   4.486  19.484  0.00  0.00    +0.000 A 
ATOM      2  C   UNL     1       2.012   4.949  20.783  0.00  0.00    +0.000 A 
ATOM      3  C   UNL     1       2.072   6.361  20.707  0.00  0.00    +0.000 A 
ATOM      4  C   UNL     1       2.090   6.691  19.368  0.00  0.00    +0.000 A 
ATOM      5  O   UNL     1       2.081   5.542  18.619  0.00  0.00    +0.000 OA
ENDROOT
BRANCH   4   6
ATOM      6  C   UNL     1       2.139   7.982  18.707  0.00  0.00    +0.000 C 
ATOM      7  O   UNL     1       2.826   8.204  17.713  0.00  0.00    +0.000 OA
ATOM      8  N   UNL     1       1.366   8.946  19.308  0.00  0.00    +0.000 N 
ATOM      9  H   UNL     1       0.901   8.696  20.169  0.00  0.00    +0.000 HD
BRANCH   8  10
ATOM     10  C   UNL     1       1.280  10.304  18.831  0.00  0.00    +0.000 C 
BRANCH  10  11
ATOM     11  C   UNL     1      -0.146  10.734  18.577  0.00  0.00    +0.000 A 
ATOM     12  C   UNL     1      -0.954   9.998  17.696  0.00  0.00    +0.000 A 
ATOM     13  C   UNL     1      -2.276  10.379  17.454  0.00  0.00    +0.000 A 
ATOM     14  C   UNL     1      -2.789  11.504  18.085  0.00  0.00    +0.000 A 
ATOM     15  F   UNL     1      -4.056  11.871  17.855  0.00  0.00    +0.000 F 
ATOM     16  C   UNL     1      -2.008  12.254  18.955  0.00  0.00    +0.000 A 
ATOM     17  C   UNL     1      -0.687  11.871  19.201  0.00  0.00    +0.000 A 
ENDBRANCH  10  11
ENDBRANCH   8  10
ENDBRANCH   4   6
BRANCH   1  18
ATOM     18  C   UNL     1       2.068   3.122  18.910  0.00  0.00    +0.000 C 
BRANCH  18  19
ATOM     19  S   UNL     1       3.733   2.500  18.783  0.00  0.00    +0.000 S 
ATOM     20  O   UNL     1       3.752   1.388  17.847  0.00  0.00    +0.000 OA
ATOM     21  O   UNL     1       4.242   2.318  20.132  0.00  0.00    +0.000 OA
BRANCH  19  25
ATOM     22  C   UNL     1       6.119   5.971  17.020  0.00  0.00    +0.000 A 
ATOM     23  C   UNL     1       6.205   5.672  18.381  0.00  0.00    +0.000 A 
ATOM     24  C   UNL     1       5.510   4.587  18.915  0.00  0.00    +0.000 A 
ATOM     25  C   UNL     1       4.691   3.824  18.081  0.00  0.00    +0.000 A 
ATOM     26  C   UNL     1       4.599   4.107  16.717  0.00  0.00    +0.000 A 
ATOM     27  C   UNL     1       5.323   5.180  16.188  0.00  0.00    +0.000 A 
BRANCH  22  29
ATOM     28  C   UNL     1       7.653   7.671  17.609  0.00  0.00    +0.000 C 
ATOM     29  O   UNL     1       6.810   7.082  16.626  0.00  0.00    +0.000 OA
ENDBRANCH  22  29
ENDBRANCH  19  25
ENDBRANCH  18  19
ENDBRANCH   1  18
TORSDOF 7
ENDMDL
MODEL 2
REMARK VINA RESULT:      -7.7      1.632      2.379
REMARK  Name = 
REMARK  8 active torsions:
REMARK  status: ('A' for Active; 'I' for Inactive)
REMARK    1  A    between atoms: C_1  and  O_2
REMARK    2  A    between atoms: O_2  and  C_3
REMARK    3  A    between atoms: C_6  and  S_7
REMARK    4  A    between atoms: S_7  and  C_10
REMARK    5  A    between atoms: C_10  and  C_11
REMARK    6  A    between atoms: C_14  and  C_15
REMARK    7  A    between atoms: N_17  and  C_18
REMARK    8  A    between atoms: C_18  and  C_19
REMARK                            x       y       z     vdW  Elec       q    Type
REMARK                         _______ _______ _______ _____ _____    ______ ____
ROOT
ATOM      1  C   UNL     1       2.765   6.323  19.491  0.00  0.00    +0.000 A 
ATOM      2  C   UNL     1       3.013   6.831  18.232  0.00  0.00    +0.000 A 
ATOM      3  C   UNL     1       2.360   8.086  18.170  0.00  0.00    +0.000 A 
ATOM      4  C   UNL     1       1.775   8.296  19.402  0.00  0.00    +0.000 A 
ATOM      5  O   UNL     1       2.010   7.209  20.204  0.00  0.00    +0.000 OA
ENDROOT
BRANCH   4   6
ATOM      6  C   UNL     1       0.992   9.409  19.905  0.00  0.00    +0.000 C 
ATOM      7  O   UNL     1       0.729   9.563  21.095  0.00  0.00    +0.000 OA
ATOM      8  N   UNL     1       0.546  10.265  18.927  0.00  0.00    +0.000 N 
ATOM      9  H   UNL     1       0.740  10.014  17.969  0.00  0.00    +0.000 HD
BRANCH   8  10
ATOM     10  C   UNL     1      -0.264  11.426  19.200  0.00  0.00    +0.000 C 
BRANCH  10  11
ATOM     11  C   UNL     1      -1.693  11.249  18.745  0.00  0.00    +0.000 A 
ATOM     12  C   UNL     1      -2.013  10.256  17.806  0.00  0.00    +0.000 A 
ATOM     13  C   UNL     1      -3.330  10.076  17.379  0.00  0.00    +0.000 A 
ATOM     14  C   UNL     1      -4.331  10.896  17.884  0.00  0.00    +0.000 A 
ATOM     15  F   UNL     1      -5.595  10.724  17.476  0.00  0.00    +0.000 F 
ATOM     16  C   UNL     1      -4.039  11.891  18.809  0.00  0.00    +0.000 A 
ATOM     17  C   UNL     1      -2.722  12.069  19.239  0.00  0.00    +0.000 A 
ENDBRANCH  10  11
ENDBRANCH   8  10
ENDBRANCH   4   6
BRANCH   1  18
ATOM     18  C   UNL     1       3.103   5.031  20.130  0.00  0.00    +0.000 C 
BRANCH  18  19
ATOM     19  S   UNL     1       3.192   3.704  18.945  0.00  0.00    +0.000 S 
ATOM     20  O   UNL     1       1.972   3.693  18.155  0.00  0.00    +0.000 OA
ATOM     21  O   UNL     1       3.604   2.503  19.654  0.00  0.00    +0.000 OA
BRANCH  19  25
ATOM     22  C   UNL     1       6.679   4.644  16.153  0.00  0.00    +0.000 A 
ATOM     23  C   UNL     1       5.440   4.264  15.634  0.00  0.00    +0.000 A 
ATOM     24  C   UNL     1       4.361   4.017  16.482  0.00  0.00    +0.000 A 
ATOM     25  C   UNL     1       4.543   4.112  17.863  0.00  0.00    +0.000 A 
ATOM     26  C   UNL     1       5.774   4.496  18.396  0.00  0.00    +0.000 A 
ATOM     27  C   UNL     1       6.841   4.770  17.535  0.00  0.00    +0.000 A 
BRANCH  22  29
ATOM     28  C   UNL     1       7.260   4.754  13.863  0.00  0.00    +0.000 C 
ATOM     29  O   UNL     1       7.667   4.816  15.224  0.00  0.00    +0.000 OA
ENDBRANCH  22  29
ENDBRANCH  19  25
ENDBRANCH  18  19
ENDBRANCH   1  18
TORSDOF 7
ENDMDL
MODEL 3
REMARK VINA RESULT:      -7.7      1.976      2.676
REMARK  Name = 
REMARK  8 active torsions:
REMARK  status: ('A' for Active; 'I' for Inactive)
REMARK    1  A    between atoms: C_1  and  O_2
REMARK    2  A    between atoms: O_2  and  C_3
REMARK    3  A    between atoms: C_6  and  S_7
REMARK    4  A    between atoms: S_7  and  C_10
REMARK    5  A    between atoms: C_10  and  C_11
REMARK    6  A    between atoms: C_14  and  C_15
REMARK    7  A    between atoms: N_17  and  C_18
REMARK    8  A    between atoms: C_18  and  C_19
REMARK                            x       y       z     vdW  Elec       q    Type
REMARK                         _______ _______ _______ _____ _____    ______ ____
ROOT
ATOM      1  C   UNL     1       3.090   6.213  18.677  0.00  0.00    +0.000 A 
ATOM      2  C   UNL     1       3.488   7.034  17.642  0.00  0.00    +0.000 A 
ATOM      3  C   UNL     1       2.820   8.268  17.830  0.00  0.00    +0.000 A 
ATOM      4  C   UNL     1       2.074   8.150  18.984  0.00  0.00    +0.000 A 
ATOM      5  O   UNL     1       2.227   6.886  19.494  0.00  0.00    +0.000 OA
ENDROOT
BRANCH   4   6
ATOM      6  C   UNL     1       1.206   9.098  19.657  0.00  0.00    +0.000 C 
ATOM      7  O   UNL     1       0.830   8.961  20.818  0.00  0.00    +0.000 OA
ATOM      8  N   UNL     1       0.817  10.155  18.869  0.00  0.00    +0.000 N 
ATOM      9  H   UNL     1       1.107  10.142  17.902  0.00  0.00    +0.000 HD
BRANCH   8  10
ATOM     10  C   UNL     1      -0.059  11.205  19.327  0.00  0.00    +0.000 C 
BRANCH  10  11
ATOM     11  C   UNL     1      -1.447  11.091  18.742  0.00  0.00    +0.000 A 
ATOM     12  C   UNL     1      -2.474  11.930  19.204  0.00  0.00    +0.000 A 
ATOM     13  C   UNL     1      -3.761  11.841  18.670  0.00  0.00    +0.000 A 
ATOM     14  C   UNL     1      -4.027  10.905  17.679  0.00  0.00    +0.000 A 
ATOM     15  F   UNL     1      -5.261  10.819  17.166  0.00  0.00    +0.000 F 
ATOM     16  C   UNL     1      -3.030  10.059  17.210  0.00  0.00    +0.000 A 
ATOM     17  C   UNL     1      -1.741  10.150  17.741  0.00  0.00    +0.000 A 
ENDBRANCH  10  11
ENDBRANCH   8  10
ENDBRANCH   4   6
BRANCH   1  18
ATOM     18  C   UNL     1       3.371   4.793  18.990  0.00  0.00    +0.000 C 
BRANCH  18  19
ATOM     19  S   UNL     1       5.120   4.455  19.035  0.00  0.00    +0.000 S 
ATOM     20  O   UNL     1       5.334   3.150  19.639  0.00  0.00    +0.000 OA
ATOM     21  O   UNL     1       5.784   5.624  19.587  0.00  0.00    +0.000 OA
BRANCH  19  25
ATOM     22  C   UNL     1       6.438   4.332  14.665  0.00  0.00    +0.000 A 
ATOM     23  C   UNL     1       7.331   4.727  15.663  0.00  0.00    +0.000 A 
ATOM     24  C   UNL     1       6.945   4.725  17.003  0.00  0.00    +0.000 A 
ATOM     25  C   UNL     1       5.638   4.364  17.336  0.00  0.00    +0.000 A 
ATOM     26  C   UNL     1       4.735   3.962  16.350  0.00  0.00    +0.000 A 
ATOM     27  C   UNL     1       5.143   3.939  15.013  0.00  0.00    +0.000 A 
BRANCH  22  29
ATOM     28  C   UNL     1       7.940   5.385  13.173  0.00  0.00    +0.000 C 
ATOM     29  O   UNL     1       6.920   4.417  13.389  0.00  0.00    +0.000 OA
ENDBRANCH  22  29
ENDBRANCH  19  25
ENDBRANCH  18  19
ENDBRANCH   1  18
TORSDOF 7
ENDMDL
MODEL 4
REMARK VINA RESULT:      -7.7      1.999      2.661
REMARK  Name = 
REMARK  8 active torsions:
REMARK  status: ('A' for Active; 'I' for Inactive)
REMARK    1  A    between atoms: C_1  and  O_2
REMARK    2  A    between atoms: O_2  and  C_3
REMARK    3  A    between atoms: C_6  and  S_7
REMARK    4  A    between atoms: S_7  and  C_10
REMARK    5  A    between atoms: C_10  and  C_11
REMARK    6  A    between atoms: C_14  and  C_15
REMARK    7  A    between atoms: N_17  and  C_18
REMARK    8  A    between atoms: C_18  and  C_19
REMARK                            x       y       z     vdW  Elec       q    Type
REMARK                         _______ _______ _______ _____ _____    ______ ____
ROOT
ATOM      1  C   UNL     1       3.079   6.223  18.744  0.00  0.00    +0.000 A 
ATOM      2  C   UNL     1       3.410   7.044  17.686  0.00  0.00    +0.000 A 
ATOM      3  C   UNL     1       2.755   8.278  17.915  0.00  0.00    +0.000 A 
ATOM      4  C   UNL     1       2.083   8.159  19.114  0.00  0.00    +0.000 A 
ATOM      5  O   UNL     1       2.267   6.896  19.613  0.00  0.00    +0.000 OA
ENDROOT
BRANCH   4   6
ATOM      6  C   UNL     1       1.258   9.107  19.839  0.00  0.00    +0.000 C 
ATOM      7  O   UNL     1       1.109   9.076  21.058  0.00  0.00    +0.000 OA
ATOM      8  N   UNL     1       0.632  10.031  19.037  0.00  0.00    +0.000 N 
ATOM      9  H   UNL     1       0.745   9.929  18.038  0.00  0.00    +0.000 HD
BRANCH   8  10
ATOM     10  C   UNL     1      -0.249  11.054  19.543  0.00  0.00    +0.000 C 
BRANCH  10  11
ATOM     11  C   UNL     1      -1.611  11.013  18.893  0.00  0.00    +0.000 A 
ATOM     12  C   UNL     1      -1.885  10.061  17.896  0.00  0.00    +0.000 A 
ATOM     13  C   UNL     1      -3.141  10.007  17.289  0.00  0.00    +0.000 A 
ATOM     14  C   UNL     1      -4.124  10.911  17.668  0.00  0.00    +0.000 A 
ATOM     15  F   UNL     1      -5.329  10.860  17.087  0.00  0.00    +0.000 F 
ATOM     16  C   UNL     1      -3.876  11.867  18.646  0.00  0.00    +0.000 A 
ATOM     17  C   UNL     1      -2.621  11.919  19.258  0.00  0.00    +0.000 A 
ENDBRANCH  10  11
ENDBRANCH   8  10
ENDBRANCH   4   6
BRANCH   1  18
ATOM     18  C   UNL     1       3.379   4.803  19.039  0.00  0.00    +0.000 C 
BRANCH  18  19
ATOM     19  S   UNL     1       5.131   4.481  19.044  0.00  0.00    +0.000 S 
ATOM     20  O   UNL     1       5.362   3.128  19.525  0.00  0.00    +0.000 OA
ATOM     21  O   UNL     1       5.787   5.602  19.699  0.00  0.00    +0.000 OA
BRANCH  19  25
ATOM     22  C   UNL     1       6.476   4.561  14.682  0.00  0.00    +0.000 A 
ATOM     23  C   UNL     1       5.285   3.927  15.044  0.00  0.00    +0.000 A 
ATOM     24  C   UNL     1       4.850   3.937  16.369  0.00  0.00    +0.000 A 
ATOM     25  C   UNL     1       5.641   4.552  17.342  0.00  0.00    +0.000 A 
ATOM     26  C   UNL     1       6.831   5.193  16.994  0.00  0.00    +0.000 A 
ATOM     27  C   UNL     1       7.242   5.202  15.658  0.00  0.00    +0.000 A 
BRANCH  22  29
ATOM     28  C   UNL     1       7.965   5.172  12.950  0.00  0.00    +0.000 C 
ATOM     29  O   UNL     1       6.815   4.445  13.363  0.00  0.00    +0.000 OA
ENDBRANCH  22  29
ENDBRANCH  19  25
ENDBRANCH  18  19
ENDBRANCH   1  18
TORSDOF 7
ENDMDL
MODEL 5
REMARK VINA RESULT:      -7.5      0.631      1.427
REMARK  Name = 
REMARK  8 active torsions:
REMARK  status: ('A' for Active; 'I' for Inactive)
REMARK    1  A    between atoms: C_1  and  O_2
REMARK    2  A    between atoms: O_2  and  C_3
REMARK    3  A    between atoms: C_6  and  S_7
REMARK    4  A    between atoms: S_7  and  C_10
REMARK    5  A    between atoms: C_10  and  C_11
REMARK    6  A    between atoms: C_14  and  C_15
REMARK    7  A    between atoms: N_17  and  C_18
REMARK    8  A    between atoms: C_18  and  C_19
REMARK                            x       y       z     vdW  Elec       q    Type
REMARK                         _______ _______ _______ _____ _____    ______ ____
ROOT
ATOM      1  C   UNL     1       1.998   4.513  19.455  0.00  0.00    +0.000 A 
ATOM      2  C   UNL     1       1.881   4.963  20.754  0.00  0.00    +0.000 A 
ATOM      3  C   UNL     1       1.952   6.376  20.697  0.00  0.00    +0.000 A 
ATOM      4  C   UNL     1       2.077   6.719  19.366  0.00  0.00    +0.000 A 
ATOM      5  O   UNL     1       2.122   5.577  18.608  0.00  0.00    +0.000 OA
ENDROOT
BRANCH   4   6
ATOM      6  C   UNL     1       2.183   8.015  18.724  0.00  0.00    +0.000 C 
ATOM      7  O   UNL     1       3.023   8.276  17.867  0.00  0.00    +0.000 OA
ATOM      8  N   UNL     1       1.273   8.940  19.180  0.00  0.00    +0.000 N 
ATOM      9  H   UNL     1       0.676   8.662  19.945  0.00  0.00    +0.000 HD
BRANCH   8  10
ATOM     10  C   UNL     1       1.211  10.296  18.695  0.00  0.00    +0.000 C 
BRANCH  10  11
ATOM     11  C   UNL     1      -0.126  10.943  18.969  0.00  0.00    +0.000 A 
ATOM     12  C   UNL     1      -0.363  11.566  20.205  0.00  0.00    +0.000 A 
ATOM     13  C   UNL     1      -1.592  12.174  20.472  0.00  0.00    +0.000 A 
ATOM     14  C   UNL     1      -2.590  12.152  19.508  0.00  0.00    +0.000 A 
ATOM     15  F   UNL     1      -3.769  12.734  19.762  0.00  0.00    +0.000 F 
ATOM     16  C   UNL     1      -2.383  11.535  18.280  0.00  0.00    +0.000 A 
ATOM     17  C   UNL     1      -1.153  10.931  18.010  0.00  0.00    +0.000 A 
ENDBRANCH  10  11
ENDBRANCH   8  10
ENDBRANCH   4   6
BRANCH   1  18
ATOM     18  C   UNL     1       2.077   3.154  18.872  0.00  0.00    +0.000 C 
BRANCH  18  19
ATOM     19  S   UNL     1       3.747   2.536  18.845  0.00  0.00    +0.000 S 
ATOM     20  O   UNL     1       3.834   1.448  17.886  0.00  0.00    +0.000 OA
ATOM     21  O   UNL     1       4.162   2.321  20.223  0.00  0.00    +0.000 OA
BRANCH  19  25
ATOM     22  C   UNL     1       6.392   5.906  17.266  0.00  0.00    +0.000 A 
ATOM     23  C   UNL     1       5.562   5.192  16.399  0.00  0.00    +0.000 A 
ATOM     24  C   UNL     1       4.722   4.191  16.884  0.00  0.00    +0.000 A 
ATOM     25  C   UNL     1       4.749   3.878  18.245  0.00  0.00    +0.000 A 
ATOM     26  C   UNL     1       5.569   4.586  19.125  0.00  0.00    +0.000 A 
ATOM     27  C   UNL     1       6.385   5.609  18.631  0.00  0.00    +0.000 A 
BRANCH  22  29
ATOM     28  C   UNL     1       7.674   7.880  17.500  0.00  0.00    +0.000 C 
ATOM     29  O   UNL     1       7.198   6.832  16.665  0.00  0.00    +0.000 OA
ENDBRANCH  22  29
ENDBRANCH  19  25
ENDBRANCH  18  19
ENDBRANCH   1  18
TORSDOF 7
ENDMDL
MODEL 6
REMARK VINA RESULT:      -7.4      2.428      3.259
REMARK  Name = 
REMARK  8 active torsions:
REMARK  status: ('A' for Active; 'I' for Inactive)
REMARK    1  A    between atoms: C_1  and  O_2
REMARK    2  A    between atoms: O_2  and  C_3
REMARK    3  A    between atoms: C_6  and  S_7
REMARK    4  A    between atoms: S_7  and  C_10
REMARK    5  A    between atoms: C_10  and  C_11
REMARK    6  A    between atoms: C_14  and  C_15
REMARK    7  A    between atoms: N_17  and  C_18
REMARK    8  A    between atoms: C_18  and  C_19
REMARK                            x       y       z     vdW  Elec       q    Type
REMARK                         _______ _______ _______ _____ _____    ______ ____
ROOT
ATOM      1  C   UNL     1       2.445   7.088  19.398  0.00  0.00    +0.000 A 
ATOM      2  C   UNL     1       2.866   7.315  18.104  0.00  0.00    +0.000 A 
ATOM      3  C   UNL     1       2.241   8.512  17.682  0.00  0.00    +0.000 A 
ATOM      4  C   UNL     1       1.495   8.974  18.747  0.00  0.00    +0.000 A 
ATOM      5  O   UNL     1       1.607   8.093  19.792  0.00  0.00    +0.000 OA
ENDROOT
BRANCH   4   6
ATOM      6  C   UNL     1       0.661  10.153  18.885  0.00  0.00    +0.000 C 
ATOM      7  O   UNL     1      -0.361  10.336  18.229  0.00  0.00    +0.000 OA
ATOM      8  N   UNL     1       1.132  11.065  19.800  0.00  0.00    +0.000 N 
ATOM      9  H   UNL     1       2.023  10.869  20.231  0.00  0.00    +0.000 HD
BRANCH   8  10
ATOM     10  C   UNL     1       0.472  12.315  20.084  0.00  0.00    +0.000 C 
BRANCH  10  11
ATOM     11  C   UNL     1      -0.580  12.178  21.159  0.00  0.00    +0.000 A 
ATOM     12  C   UNL     1      -1.715  13.005  21.138  0.00  0.00    +0.000 A 
ATOM     13  C   UNL     1      -2.700  12.888  22.122  0.00  0.00    +0.000 A 
ATOM     14  C   UNL     1      -2.546  11.951  23.135  0.00  0.00    +0.000 A 
ATOM     15  F   UNL     1      -3.489  11.837  24.079  0.00  0.00    +0.000 F 
ATOM     16  C   UNL     1      -1.429  11.126  23.182  0.00  0.00    +0.000 A 
ATOM     17  C   UNL     1      -0.446  11.239  22.196  0.00  0.00    +0.000 A 
ENDBRANCH  10  11
ENDBRANCH   8  10
ENDBRANCH   4   6
BRANCH   1  18
ATOM     18  C   UNL     1       2.679   5.974  20.344  0.00  0.00    +0.000 C 
BRANCH  18  19
ATOM     19  S   UNL     1       2.648   4.390  19.529  0.00  0.00    +0.000 S 
ATOM     20  O   UNL     1       1.454   4.306  18.704  0.00  0.00    +0.000 OA
ATOM     21  O   UNL     1       2.905   3.369  20.533  0.00  0.00    +0.000 OA
BRANCH  19  25
ATOM     22  C   UNL     1       6.278   4.457  16.761  0.00  0.00    +0.000 A 
ATOM     23  C   UNL     1       6.426   4.701  18.129  0.00  0.00    +0.000 A 
ATOM     24  C   UNL     1       5.326   4.639  18.983  0.00  0.00    +0.000 A 
ATOM     25  C   UNL     1       4.062   4.373  18.452  0.00  0.00    +0.000 A 
ATOM     26  C   UNL     1       3.900   4.123  17.088  0.00  0.00    +0.000 A 
ATOM     27  C   UNL     1       5.015   4.158  16.245  0.00  0.00    +0.000 A 
BRANCH  22  29
ATOM     28  C   UNL     1       7.240   4.813  14.631  0.00  0.00    +0.000 C 
ATOM     29  O   UNL     1       7.421   4.588  16.023  0.00  0.00    +0.000 OA
ENDBRANCH  22  29
ENDBRANCH  19  25
ENDBRANCH  18  19
ENDBRANCH   1  18
TORSDOF 7
ENDMDL
MODEL 7
REMARK VINA RESULT:      -7.4      0.850      1.376
REMARK  Name = 
REMARK  8 active torsions:
REMARK  status: ('A' for Active; 'I' for Inactive)
REMARK    1  A    between atoms: C_1  and  O_2
REMARK    2  A    between atoms: O_2  and  C_3
REMARK    3  A    between atoms: C_6  and  S_7
REMARK    4  A    between atoms: S_7  and  C_10
REMARK    5  A    between atoms: C_10  and  C_11
REMARK    6  A    between atoms: C_14  and  C_15
REMARK    7  A    between atoms: N_17  and  C_18
REMARK    8  A    between atoms: C_18  and  C_19
REMARK                            x       y       z     vdW  Elec       q    Type
REMARK                         _______ _______ _______ _____ _____    ______ ____
ROOT
ATOM      1  C   UNL     1       2.197   4.767  19.310  0.00  0.00    +0.000 A 
ATOM      2  C   UNL     1       2.458   5.273  20.567  0.00  0.00    +0.000 A 
ATOM      3  C   UNL     1       2.472   6.682  20.437  0.00  0.00    +0.000 A 
ATOM      4  C   UNL     1       2.188   6.967  19.118  0.00  0.00    +0.000 A 
ATOM      5  O   UNL     1       2.036   5.794  18.425  0.00  0.00    +0.000 OA
ENDROOT
BRANCH   4   6
ATOM      6  C   UNL     1       2.065   8.236  18.424  0.00  0.00    +0.000 C 
ATOM      7  O   UNL     1       2.651   8.489  17.375  0.00  0.00    +0.000 OA
ATOM      8  N   UNL     1       1.251   9.142  19.060  0.00  0.00    +0.000 N 
ATOM      9  H   UNL     1       0.877   8.877  19.960  0.00  0.00    +0.000 HD
BRANCH   8  10
ATOM     10  C   UNL     1       1.000  10.471  18.558  0.00  0.00    +0.000 C 
BRANCH  10  11
ATOM     11  C   UNL     1      -0.475  10.772  18.441  0.00  0.00    +0.000 A 
ATOM     12  C   UNL     1      -1.266  10.063  17.523  0.00  0.00    +0.000 A 
ATOM     13  C   UNL     1      -2.632  10.327  17.406  0.00  0.00    +0.000 A 
ATOM     14  C   UNL     1      -3.210  11.307  18.202  0.00  0.00    +0.000 A 
ATOM     15  F   UNL     1      -4.520  11.561  18.091  0.00  0.00    +0.000 F 
ATOM     16  C   UNL     1      -2.448  12.028  19.113  0.00  0.00    +0.000 A 
ATOM     17  C   UNL     1      -1.082  11.762  19.233  0.00  0.00    +0.000 A 
ENDBRANCH  10  11
ENDBRANCH   8  10
ENDBRANCH   4   6
BRANCH   1  18
ATOM     18  C   UNL     1       2.134   3.385  18.783  0.00  0.00    +0.000 C 
BRANCH  18  19
ATOM     19  S   UNL     1       3.729   2.590  18.807  0.00  0.00    +0.000 S 
ATOM     20  O   UNL     1       3.622   1.296  18.154  0.00  0.00    +0.000 OA
ATOM     21  O   UNL     1       4.245   2.674  20.164  0.00  0.00    +0.000 OA
BRANCH  19  25
ATOM     22  C   UNL     1       6.518   5.134  16.240  0.00  0.00    +0.000 A 
ATOM     23  C   UNL     1       5.440   4.462  15.661  0.00  0.00    +0.000 A 
ATOM     24  C   UNL     1       4.561   3.719  16.448  0.00  0.00    +0.000 A 
ATOM     25  C   UNL     1       4.795   3.616  17.821  0.00  0.00    +0.000 A 
ATOM     26  C   UNL     1       5.867   4.285  18.415  0.00  0.00    +0.000 A 
ATOM     27  C   UNL     1       6.724   5.052  17.620  0.00  0.00    +0.000 A 
BRANCH  22  29
ATOM     28  C   UNL     1       7.395   5.250  14.047  0.00  0.00    +0.000 C 
ATOM     29  O   UNL     1       7.330   5.793  15.360  0.00  0.00    +0.000 OA
ENDBRANCH  22  29
ENDBRANCH  19  25
ENDBRANCH  18  19
ENDBRANCH   1  18
TORSDOF 7
ENDMDL
MODEL 8
REMARK VINA RESULT:      -7.3      2.385      3.243
REMARK  Name = 
REMARK  8 active torsions:
REMARK  status: ('A' for Active; 'I' for Inactive)
REMARK    1  A    between atoms: C_1  and  O_2
REMARK    2  A    between atoms: O_2  and  C_3
REMARK    3  A    between atoms: C_6  and  S_7
REMARK    4  A    between atoms: S_7  and  C_10
REMARK    5  A    between atoms: C_10  and  C_11
REMARK    6  A    between atoms: C_14  and  C_15
REMARK    7  A    between atoms: N_17  and  C_18
REMARK    8  A    between atoms: C_18  and  C_19
REMARK                            x       y       z     vdW  Elec       q    Type
REMARK                         _______ _______ _______ _____ _____    ______ ____
ROOT
ATOM      1  C   UNL     1       2.888   6.042  18.867  0.00  0.00    +0.000 A 
ATOM      2  C   UNL     1       3.046   6.988  17.875  0.00  0.00    +0.000 A 
ATOM      3  C   UNL     1       2.440   8.175  18.354  0.00  0.00    +0.000 A 
ATOM      4  C   UNL     1       1.972   7.904  19.623  0.00  0.00    +0.000 A 
ATOM      5  O   UNL     1       2.232   6.593  19.930  0.00  0.00    +0.000 OA
ENDROOT
BRANCH   4   6
ATOM      6  C   UNL     1       1.279   8.745  20.581  0.00  0.00    +0.000 C 
ATOM      7  O   UNL     1       1.477   8.691  21.792  0.00  0.00    +0.000 OA
ATOM      8  N   UNL     1       0.358   9.594  20.014  0.00  0.00    +0.000 N 
ATOM      9  H   UNL     1       0.202   9.510  19.020  0.00  0.00    +0.000 HD
BRANCH   8  10
ATOM     10  C   UNL     1      -0.457  10.504  20.780  0.00  0.00    +0.000 C 
BRANCH  10  11
ATOM     11  C   UNL     1      -0.436  11.906  20.218  0.00  0.00    +0.000 A 
ATOM     12  C   UNL     1      -1.306  12.881  20.733  0.00  0.00    +0.000 A 
ATOM     13  C   UNL     1      -1.296  14.183  20.228  0.00  0.00    +0.000 A 
ATOM     14  C   UNL     1      -0.421  14.510  19.201  0.00  0.00    +0.000 A 
ATOM     15  F   UNL     1      -0.410  15.759  18.716  0.00  0.00    +0.000 F 
ATOM     16  C   UNL     1       0.444  13.562  18.669  0.00  0.00    +0.000 A 
ATOM     17  C   UNL     1       0.438  12.261  19.177  0.00  0.00    +0.000 A 
ENDBRANCH  10  11
ENDBRANCH   8  10
ENDBRANCH   4   6
BRANCH   1  18
ATOM     18  C   UNL     1       3.229   4.602  18.936  0.00  0.00    +0.000 C 
BRANCH  18  19
ATOM     19  S   UNL     1       4.987   4.338  19.038  0.00  0.00    +0.000 S 
ATOM     20  O   UNL     1       5.236   2.994  19.533  0.00  0.00    +0.000 OA
ATOM     21  O   UNL     1       5.568   5.480  19.726  0.00  0.00    +0.000 OA
BRANCH  19  25
ATOM     22  C   UNL     1       6.540   4.457  14.746  0.00  0.00    +0.000 A 
ATOM     23  C   UNL     1       5.225   4.068  15.013  0.00  0.00    +0.000 A 
ATOM     24  C   UNL     1       4.735   4.071  16.318  0.00  0.00    +0.000 A 
ATOM     25  C   UNL     1       5.587   4.427  17.366  0.00  0.00    +0.000 A 
ATOM     26  C   UNL     1       6.902   4.822  17.115  0.00  0.00    +0.000 A 
ATOM     27  C   UNL     1       7.373   4.844  15.799  0.00  0.00    +0.000 A 
BRANCH  22  29
ATOM     28  C   UNL     1       6.123   3.518  12.616  0.00  0.00    +0.000 C 
ATOM     29  O   UNL     1       6.914   4.371  13.435  0.00  0.00    +0.000 OA
ENDBRANCH  22  29
ENDBRANCH  19  25
ENDBRANCH  18  19
ENDBRANCH   1  18
TORSDOF 7
ENDMDL
MODEL 9
REMARK VINA RESULT:      -7.3      2.438      3.081
REMARK  Name = 
REMARK  8 active torsions:
REMARK  status: ('A' for Active; 'I' for Inactive)
REMARK    1  A    between atoms: C_1  and  O_2
REMARK    2  A    between atoms: O_2  and  C_3
REMARK    3  A    between atoms: C_6  and  S_7
REMARK    4  A    between atoms: S_7  and  C_10
REMARK    5  A    between atoms: C_10  and  C_11
REMARK    6  A    between atoms: C_14  and  C_15
REMARK    7  A    between atoms: N_17  and  C_18
REMARK    8  A    between atoms: C_18  and  C_19
REMARK                            x       y       z     vdW  Elec       q    Type
REMARK                         _______ _______ _______ _____ _____    ______ ____
ROOT
ATOM      1  C   UNL     1       2.883   5.959  18.907  0.00  0.00    +0.000 A 
ATOM      2  C   UNL     1       2.954   6.884  17.885  0.00  0.00    +0.000 A 
ATOM      3  C   UNL     1       2.351   8.068  18.373  0.00  0.00    +0.000 A 
ATOM      4  C   UNL     1       1.972   7.818  19.676  0.00  0.00    +0.000 A 
ATOM      5  O   UNL     1       2.283   6.522  19.997  0.00  0.00    +0.000 OA
ENDROOT
BRANCH   4   6
ATOM      6  C   UNL     1       1.322   8.667  20.657  0.00  0.00    +0.000 C 
ATOM      7  O   UNL     1       1.199   8.359  21.839  0.00  0.00    +0.000 OA
ATOM      8  N   UNL     1       0.829   9.841  20.139  0.00  0.00    +0.000 N 
ATOM      9  H   UNL     1       0.902   9.973  19.140  0.00  0.00    +0.000 HD
BRANCH   8  10
ATOM     10  C   UNL     1       0.130  10.824  20.929  0.00  0.00    +0.000 C 
BRANCH  10  11
ATOM     11  C   UNL     1       0.035  12.160  20.231  0.00  0.00    +0.000 A 
ATOM     12  C   UNL     1      -0.463  12.234  18.920  0.00  0.00    +0.000 A 
ATOM     13  C   UNL     1      -0.563  13.462  18.263  0.00  0.00    +0.000 A 
ATOM     14  C   UNL     1      -0.155  14.619  18.912  0.00  0.00    +0.000 A 
ATOM     15  F   UNL     1      -0.249  15.798  18.283  0.00  0.00    +0.000 F 
ATOM     16  C   UNL     1       0.349  14.573  20.206  0.00  0.00    +0.000 A 
ATOM     17  C   UNL     1       0.445  13.345  20.866  0.00  0.00    +0.000 A 
ENDBRANCH  10  11
ENDBRANCH   8  10
ENDBRANCH   4   6
BRANCH   1  18
ATOM     18  C   UNL     1       3.263   4.530  18.989  0.00  0.00    +0.000 C 
BRANCH  18  19
ATOM     19  S   UNL     1       5.029   4.313  19.074  0.00  0.00    +0.000 S 
ATOM     20  O   UNL     1       5.319   3.004  19.633  0.00  0.00    +0.000 OA
ATOM     21  O   UNL     1       5.593   5.503  19.691  0.00  0.00    +0.000 OA
BRANCH  19  25
ATOM     22  C   UNL     1       6.483   4.462  14.748  0.00  0.00    +0.000 A 
ATOM     23  C   UNL     1       7.354   4.763  15.798  0.00  0.00    +0.000 A 
ATOM     24  C   UNL     1       6.925   4.678  17.122  0.00  0.00    +0.000 A 
ATOM     25  C   UNL     1       5.599   4.328  17.389  0.00  0.00    +0.000 A 
ATOM     26  C   UNL     1       4.719   4.020  16.350  0.00  0.00    +0.000 A 
ATOM     27  C   UNL     1       5.169   4.080  15.028  0.00  0.00    +0.000 A 
BRANCH  22  29
ATOM     28  C   UNL     1       6.548   3.712  12.506  0.00  0.00    +0.000 C 
ATOM     29  O   UNL     1       7.009   4.623  13.497  0.00  0.00    +0.000 OA
ENDBRANCH  22  29
ENDBRANCH  19  25
ENDBRANCH  18  19
ENDBRANCH   1  18
TORSDOF 7
ENDMDL
