MODEL 1
REMARK VINA RESULT:      -6.1      0.000      0.000
REMARK  Name = 
REMARK  8 active torsions:
REMARK  status: ('A' for Active; 'I' for Inactive)
REMARK    1  A    between atoms: C_1  and  C_2
REMARK    2  A    between atoms: C_2  and  C_3
REMARK    3  A    between atoms: C_3  and  C_4
REMARK    4  A    between atoms: C_6  and  C_7
REMARK    5  A    between atoms: C_9  and  N_10
REMARK    6  A    between atoms: N_10  and  C_11
REMARK    7  A    between atoms: C_11  and  C_12
REMARK    8  A    between atoms: C_12  and  O_13
REMARK                            x       y       z     vdW  Elec       q    Type
REMARK                         _______ _______ _______ _____ _____    ______ ____
ROOT
ATOM      1  C   UNL     1       6.777   5.056  15.738  0.00  0.00    +0.000 A 
ATOM      2  N   UNL     1       7.355   6.185  16.196  0.00  0.00    +0.000 NA
ATOM      3  C   UNL     1       7.229   6.437  17.508  0.00  0.00    +0.000 A 
ATOM      4  C   UNL     1       7.946   7.631  18.063  0.00  0.00    +0.000 C 
ATOM      5  C   UNL     1       6.518   5.612  18.354  0.00  0.00    +0.000 A 
ATOM      6  C   UNL     1       5.990   4.459  17.813  0.00  0.00    +0.000 A 
ATOM      7  N   UNL     1       6.117   4.170  16.511  0.00  0.00    +0.000 NA
ENDROOT
BRANCH   6   8
ATOM      8  N   UNL     1       5.426   3.539  18.710  0.00  0.00    +0.000 N 
ATOM      9  H   UNL     1       5.818   3.628  19.641  0.00  0.00    +0.000 HD
BRANCH   8  10
ATOM     10  C   UNL     1       3.967   3.393  18.685  0.00  0.00    +0.000 C 
BRANCH  10  11
ATOM     11  C   UNL     1       3.615   2.054  18.020  0.00  0.00    +0.000 C 
BRANCH  11  12
ATOM     12  O   UNL     1       2.421   1.532  18.616  0.00  0.00    +0.000 OA
ATOM     13  H   UNL     1       1.746   1.642  17.915  0.00  0.00    +0.000 HD
ENDBRANCH  11  12
ENDBRANCH  10  11
ENDBRANCH   8  10
ENDBRANCH   6   8
BRANCH   1  14
ATOM     14  C   UNL     1       6.915   4.756  14.271  0.00  0.00    +0.000 C 
BRANCH  14  16
ATOM     15  C   UNL     1       6.050   3.351  12.364  0.00  0.00    +0.000 C 
ATOM     16  C   UNL     1       5.762   3.894  13.756  0.00  0.00    +0.000 C 
ENDBRANCH  14  16
ENDBRANCH   1  14
TORSDOF 6
ENDMDL
MODEL 2
REMARK VINA RESULT:      -6.0      1.156      3.753
REMARK  Name = 
REMARK  8 active torsions:
REMARK  status: ('A' for Active; 'I' for Inactive)
REMARK    1  A    between atoms: C_1  and  C_2
REMARK    2  A    between atoms: C_2  and  C_3
REMARK    3  A    between atoms: C_3  and  C_4
REMARK    4  A    between atoms: C_6  and  C_7
REMARK    5  A    between atoms: C_9  and  N_10
REMARK    6  A    between atoms: N_10  and  C_11
REMARK    7  A    between atoms: C_11  and  C_12
REMARK    8  A    between atoms: C_12  and  O_13
REMARK                            x       y       z     vdW  Elec       q    Type
REMARK                         _______ _______ _______ _____ _____    ______ ____
ROOT
ATOM      1  C   UNL     1       7.383   6.221  17.835  0.00  0.00    +0.000 A 
ATOM      2  N   UNL     1       7.352   6.101  16.492  0.00  0.00    +0.000 NA
ATOM      3  C   UNL     1       6.645   5.075  15.995  0.00  0.00    +0.000 A 
ATOM      4  C   UNL     1       6.510   4.975  14.504  0.00  0.00    +0.000 C 
ATOM      5  C   UNL     1       6.006   4.159  16.802  0.00  0.00    +0.000 A 
ATOM      6  C   UNL     1       6.055   4.375  18.163  0.00  0.00    +0.000 A 
ATOM      7  N   UNL     1       6.735   5.403  18.688  0.00  0.00    +0.000 NA
ENDROOT
BRANCH   6   8
ATOM      8  N   UNL     1       5.256   3.548  18.966  0.00  0.00    +0.000 N 
ATOM      9  H   UNL     1       5.399   3.727  19.954  0.00  0.00    +0.000 HD
BRANCH   8  10
ATOM     10  C   UNL     1       3.849   3.401  18.581  0.00  0.00    +0.000 C 
BRANCH  10  11
ATOM     11  C   UNL     1       3.495   1.906  18.560  0.00  0.00    +0.000 C 
BRANCH  11  12
ATOM     12  O   UNL     1       2.395   1.695  17.666  0.00  0.00    +0.000 OA
ATOM     13  H   UNL     1       2.622   2.243  16.887  0.00  0.00    +0.000 HD
ENDBRANCH  11  12
ENDBRANCH  10  11
ENDBRANCH   8  10
ENDBRANCH   6   8
BRANCH   1  14
ATOM     14  C   UNL     1       8.166   7.371  18.407  0.00  0.00    +0.000 C 
BRANCH  14  16
ATOM     15  C   UNL     1       8.680   9.835  18.246  0.00  0.00    +0.000 C 
ATOM     16  C   UNL     1       7.865   8.682  17.678  0.00  0.00    +0.000 C 
ENDBRANCH  14  16
ENDBRANCH   1  14
TORSDOF 6
ENDMDL
MODEL 3
REMARK VINA RESULT:      -5.9      1.245      3.749
REMARK  Name = 
REMARK  8 active torsions:
REMARK  status: ('A' for Active; 'I' for Inactive)
REMARK    1  A    between atoms: C_1  and  C_2
REMARK    2  A    between atoms: C_2  and  C_3
REMARK    3  A    between atoms: C_3  and  C_4
REMARK    4  A    between atoms: C_6  and  C_7
REMARK    5  A    between atoms: C_9  and  N_10
REMARK    6  A    between atoms: N_10  and  C_11
REMARK    7  A    between atoms: C_11  and  C_12
REMARK    8  A    between atoms: C_12  and  O_13
REMARK                            x       y       z     vdW  Elec       q    Type
REMARK                         _______ _______ _______ _____ _____    ______ ____
ROOT
ATOM      1  C   UNL     1       6.954   5.995  17.306  0.00  0.00    +0.000 A 
ATOM      2  N   UNL     1       7.310   5.724  16.034  0.00  0.00    +0.000 NA
ATOM      3  C   UNL     1       6.524   4.875  15.356  0.00  0.00    +0.000 A 
ATOM      4  C   UNL     1       6.839   4.633  13.909  0.00  0.00    +0.000 C 
ATOM      5  C   UNL     1       5.424   4.271  15.926  0.00  0.00    +0.000 A 
ATOM      6  C   UNL     1       5.107   4.631  17.219  0.00  0.00    +0.000 A 
ATOM      7  N   UNL     1       5.861   5.493  17.914  0.00  0.00    +0.000 NA
ENDROOT
BRANCH   6   8
ATOM      8  N   UNL     1       3.890   4.154  17.729  0.00  0.00    +0.000 N 
ATOM      9  H   UNL     1       3.202   4.014  16.998  0.00  0.00    +0.000 HD
BRANCH   8  10
ATOM     10  C   UNL     1       3.958   3.064  18.706  0.00  0.00    +0.000 C 
BRANCH  10  11
ATOM     11  C   UNL     1       3.294   1.817  18.104  0.00  0.00    +0.000 C 
BRANCH  11  12
ATOM     12  O   UNL     1       4.077   0.662  18.429  0.00  0.00    +0.000 OA
ATOM     13  H   UNL     1       4.997   1.000  18.436  0.00  0.00    +0.000 HD
ENDBRANCH  11  12
ENDBRANCH  10  11
ENDBRANCH   8  10
ENDBRANCH   6   8
BRANCH   1  14
ATOM     14  C   UNL     1       7.821   6.952  18.077  0.00  0.00    +0.000 C 
BRANCH  14  16
ATOM     15  C   UNL     1       8.568   9.346  18.338  0.00  0.00    +0.000 C 
ATOM     16  C   UNL     1       7.624   8.396  17.616  0.00  0.00    +0.000 C 
ENDBRANCH  14  16
ENDBRANCH   1  14
TORSDOF 6
ENDMDL
MODEL 4
REMARK VINA RESULT:      -5.9      1.426      3.842
REMARK  Name = 
REMARK  8 active torsions:
REMARK  status: ('A' for Active; 'I' for Inactive)
REMARK    1  A    between atoms: C_1  and  C_2
REMARK    2  A    between atoms: C_2  and  C_3
REMARK    3  A    between atoms: C_3  and  C_4
REMARK    4  A    between atoms: C_6  and  C_7
REMARK    5  A    between atoms: C_9  and  N_10
REMARK    6  A    between atoms: N_10  and  C_11
REMARK    7  A    between atoms: C_11  and  C_12
REMARK    8  A    between atoms: C_12  and  O_13
REMARK                            x       y       z     vdW  Elec       q    Type
REMARK                         _______ _______ _______ _____ _____    ______ ____
ROOT
ATOM      1  C   UNL     1       7.204   5.996  17.549  0.00  0.00    +0.000 A 
ATOM      2  N   UNL     1       7.417   5.891  16.221  0.00  0.00    +0.000 NA
ATOM      3  C   UNL     1       6.746   4.923  15.578  0.00  0.00    +0.000 A 
ATOM      4  C   UNL     1       6.886   4.847  14.087  0.00  0.00    +0.000 C 
ATOM      5  C   UNL     1       5.905   4.047  16.231  0.00  0.00    +0.000 A 
ATOM      6  C   UNL     1       5.714   4.247  17.582  0.00  0.00    +0.000 A 
ATOM      7  N   UNL     1       6.353   5.218  18.248  0.00  0.00    +0.000 NA
ENDROOT
BRANCH   6   8
ATOM      8  N   UNL     1       4.724   3.471  18.203  0.00  0.00    +0.000 N 
ATOM      9  H   UNL     1       4.595   3.730  19.176  0.00  0.00    +0.000 HD
BRANCH   8  10
ATOM     10  C   UNL     1       3.473   3.271  17.466  0.00  0.00    +0.000 C 
BRANCH  10  11
ATOM     11  C   UNL     1       2.345   4.019  18.191  0.00  0.00    +0.000 C 
BRANCH  11  12
ATOM     12  O   UNL     1       1.196   4.082  17.338  0.00  0.00    +0.000 OA
ATOM     13  H   UNL     1       0.663   3.306  17.610  0.00  0.00    +0.000 HD
ENDBRANCH  11  12
ENDBRANCH  10  11
ENDBRANCH   8  10
ENDBRANCH   6   8
BRANCH   1  14
ATOM     14  C   UNL     1       7.943   7.081  18.283  0.00  0.00    +0.000 C 
BRANCH  14  16
ATOM     15  C   UNL     1       8.577   9.521  18.319  0.00  0.00    +0.000 C 
ATOM     16  C   UNL     1       7.794   8.437  17.593  0.00  0.00    +0.000 C 
ENDBRANCH  14  16
ENDBRANCH   1  14
TORSDOF 6
ENDMDL
MODEL 5
REMARK VINA RESULT:      -5.8      3.015      5.359
REMARK  Name = 
REMARK  8 active torsions:
REMARK  status: ('A' for Active; 'I' for Inactive)
REMARK    1  A    between atoms: C_1  and  C_2
REMARK    2  A    between atoms: C_2  and  C_3
REMARK    3  A    between atoms: C_3  and  C_4
REMARK    4  A    between atoms: C_6  and  C_7
REMARK    5  A    between atoms: C_9  and  N_10
REMARK    6  A    between atoms: N_10  and  C_11
REMARK    7  A    between atoms: C_11  and  C_12
REMARK    8  A    between atoms: C_12  and  O_13
REMARK                            x       y       z     vdW  Elec       q    Type
REMARK                         _______ _______ _______ _____ _____    ______ ____
ROOT
ATOM      1  C   UNL     1       2.773   3.854  18.437  0.00  0.00    +0.000 A 
ATOM      2  N   UNL     1       2.385   5.134  18.263  0.00  0.00    +0.000 NA
ATOM      3  C   UNL     1       3.356   6.059  18.235  0.00  0.00    +0.000 A 
ATOM      4  C   UNL     1       2.962   7.477  17.942  0.00  0.00    +0.000 C 
ATOM      5  C   UNL     1       4.685   5.741  18.409  0.00  0.00    +0.000 A 
ATOM      6  C   UNL     1       5.001   4.406  18.544  0.00  0.00    +0.000 A 
ATOM      7  N   UNL     1       4.056   3.456  18.555  0.00  0.00    +0.000 NA
ENDROOT
BRANCH   6   8
ATOM      8  N   UNL     1       6.364   4.073  18.539  0.00  0.00    +0.000 N 
ATOM      9  H   UNL     1       6.510   3.074  18.436  0.00  0.00    +0.000 HD
BRANCH   8  10
ATOM     10  C   UNL     1       7.249   4.897  17.711  0.00  0.00    +0.000 C 
BRANCH  10  11
ATOM     11  C   UNL     1       7.119   4.447  16.248  0.00  0.00    +0.000 C 
BRANCH  11  12
ATOM     12  O   UNL     1       7.386   5.561  15.387  0.00  0.00    +0.000 OA
ATOM     13  H   UNL     1       8.357   5.533  15.267  0.00  0.00    +0.000 HD
ENDBRANCH  11  12
ENDBRANCH  10  11
ENDBRANCH   8  10
ENDBRANCH   6   8
BRANCH   1  14
ATOM     14  C   UNL     1       1.697   2.804  18.465  0.00  0.00    +0.000 C 
BRANCH  14  16
ATOM     15  C   UNL     1       1.403   2.800  20.969  0.00  0.00    +0.000 C 
ATOM     16  C   UNL     1       0.724   3.017  19.625  0.00  0.00    +0.000 C 
ENDBRANCH  14  16
ENDBRANCH   1  14
TORSDOF 6
ENDMDL
MODEL 6
REMARK VINA RESULT:      -5.8      1.247      1.315
REMARK  Name = 
REMARK  8 active torsions:
REMARK  status: ('A' for Active; 'I' for Inactive)
REMARK    1  A    between atoms: C_1  and  C_2
REMARK    2  A    between atoms: C_2  and  C_3
REMARK    3  A    between atoms: C_3  and  C_4
REMARK    4  A    between atoms: C_6  and  C_7
REMARK    5  A    between atoms: C_9  and  N_10
REMARK    6  A    between atoms: N_10  and  C_11
REMARK    7  A    between atoms: C_11  and  C_12
REMARK    8  A    between atoms: C_12  and  O_13
REMARK                            x       y       z     vdW  Elec       q    Type
REMARK                         _______ _______ _______ _____ _____    ______ ____
ROOT
ATOM      1  C   UNL     1       6.519   4.787  14.973  0.00  0.00    +0.000 A 
ATOM      2  N   UNL     1       7.136   5.814  15.594  0.00  0.00    +0.000 NA
ATOM      3  C   UNL     1       6.880   5.966  16.902  0.00  0.00    +0.000 A 
ATOM      4  C   UNL     1       7.628   7.036  17.641  0.00  0.00    +0.000 C 
ATOM      5  C   UNL     1       6.007   5.148  17.585  0.00  0.00    +0.000 A 
ATOM      6  C   UNL     1       5.448   4.100  16.886  0.00  0.00    +0.000 A 
ATOM      7  N   UNL     1       5.700   3.908  15.584  0.00  0.00    +0.000 NA
ENDROOT
BRANCH   6   8
ATOM      8  N   UNL     1       4.705   3.167  17.626  0.00  0.00    +0.000 N 
ATOM      9  H   UNL     1       5.258   2.354  17.874  0.00  0.00    +0.000 HD
BRANCH   8  10
ATOM     10  C   UNL     1       3.880   3.689  18.720  0.00  0.00    +0.000 C 
BRANCH  10  11
ATOM     11  C   UNL     1       3.922   2.693  19.889  0.00  0.00    +0.000 C 
BRANCH  11  12
ATOM     12  O   UNL     1       5.165   1.983  19.860  0.00  0.00    +0.000 OA
ATOM     13  H   UNL     1       4.976   1.208  19.292  0.00  0.00    +0.000 HD
ENDBRANCH  11  12
ENDBRANCH  10  11
ENDBRANCH   8  10
ENDBRANCH   6   8
BRANCH   1  14
ATOM     14  C   UNL     1       6.801   4.598  13.508  0.00  0.00    +0.000 C 
BRANCH  14  16
ATOM     15  C   UNL     1       5.063   3.554  12.010  0.00  0.00    +0.000 C 
ATOM     16  C   UNL     1       6.206   3.293  12.978  0.00  0.00    +0.000 C 
ENDBRANCH  14  16
ENDBRANCH   1  14
TORSDOF 6
ENDMDL
MODEL 7
REMARK VINA RESULT:      -5.7      3.536      5.920
REMARK  Name = 
REMARK  8 active torsions:
REMARK  status: ('A' for Active; 'I' for Inactive)
REMARK    1  A    between atoms: C_1  and  C_2
REMARK    2  A    between atoms: C_2  and  C_3
REMARK    3  A    between atoms: C_3  and  C_4
REMARK    4  A    between atoms: C_6  and  C_7
REMARK    5  A    between atoms: C_9  and  N_10
REMARK    6  A    between atoms: N_10  and  C_11
REMARK    7  A    between atoms: C_11  and  C_12
REMARK    8  A    between atoms: C_12  and  O_13
REMARK                            x       y       z     vdW  Elec       q    Type
REMARK                         _______ _______ _______ _____ _____    ______ ____
ROOT
ATOM      1  C   UNL     1       2.649   5.825  19.746  0.00  0.00    +0.000 A 
ATOM      2  N   UNL     1       1.837   4.995  20.432  0.00  0.00    +0.000 NA
ATOM      3  C   UNL     1       2.263   3.733  20.592  0.00  0.00    +0.000 A 
ATOM      4  C   UNL     1       1.428   2.815  21.435  0.00  0.00    +0.000 C 
ATOM      5  C   UNL     1       3.450   3.279  20.058  0.00  0.00    +0.000 A 
ATOM      6  C   UNL     1       4.239   4.201  19.403  0.00  0.00    +0.000 A 
ATOM      7  N   UNL     1       3.851   5.474  19.245  0.00  0.00    +0.000 NA
ENDROOT
BRANCH   6   8
ATOM      8  N   UNL     1       5.521   3.781  19.021  0.00  0.00    +0.000 N 
ATOM      9  H   UNL     1       5.487   2.999  18.375  0.00  0.00    +0.000 HD
BRANCH   8  10
ATOM     10  C   UNL     1       6.482   4.824  18.649  0.00  0.00    +0.000 C 
BRANCH  10  11
ATOM     11  C   UNL     1       6.808   4.687  17.154  0.00  0.00    +0.000 C 
BRANCH  11  12
ATOM     12  O   UNL     1       8.118   4.126  17.007  0.00  0.00    +0.000 OA
ATOM     13  H   UNL     1       8.259   3.643  17.847  0.00  0.00    +0.000 HD
ENDBRANCH  11  12
ENDBRANCH  10  11
ENDBRANCH   8  10
ENDBRANCH   6   8
BRANCH   1  14
ATOM     14  C   UNL     1       2.190   7.246  19.564  0.00  0.00    +0.000 C 
BRANCH  14  16
ATOM     15  C   UNL     1       1.816   9.081  17.877  0.00  0.00    +0.000 C 
ATOM     16  C   UNL     1       2.561   7.791  18.185  0.00  0.00    +0.000 C 
ENDBRANCH  14  16
ENDBRANCH   1  14
TORSDOF 6
ENDMDL
MODEL 8
REMARK VINA RESULT:      -5.7      1.249      1.289
REMARK  Name = 
REMARK  8 active torsions:
REMARK  status: ('A' for Active; 'I' for Inactive)
REMARK    1  A    between atoms: C_1  and  C_2
REMARK    2  A    between atoms: C_2  and  C_3
REMARK    3  A    between atoms: C_3  and  C_4
REMARK    4  A    between atoms: C_6  and  C_7
REMARK    5  A    between atoms: C_9  and  N_10
REMARK    6  A    between atoms: N_10  and  C_11
REMARK    7  A    between atoms: C_11  and  C_12
REMARK    8  A    between atoms: C_12  and  O_13
REMARK                            x       y       z     vdW  Elec       q    Type
REMARK                         _______ _______ _______ _____ _____    ______ ____
ROOT
ATOM      1  C   UNL     1       6.429   4.675  15.969  0.00  0.00    +0.000 A 
ATOM      2  N   UNL     1       7.336   5.145  16.850  0.00  0.00    +0.000 NA
ATOM      3  C   UNL     1       6.913   5.326  18.110  0.00  0.00    +0.000 A 
ATOM      4  C   UNL     1       7.924   5.751  19.133  0.00  0.00    +0.000 C 
ATOM      5  C   UNL     1       5.611   5.086  18.495  0.00  0.00    +0.000 A 
ATOM      6  C   UNL     1       4.757   4.572  17.542  0.00  0.00    +0.000 A 
ATOM      7  N   UNL     1       5.156   4.360  16.281  0.00  0.00    +0.000 NA
ENDROOT
BRANCH   6   8
ATOM      8  N   UNL     1       3.490   4.161  17.982  0.00  0.00    +0.000 N 
ATOM      9  H   UNL     1       2.782   4.866  17.809  0.00  0.00    +0.000 HD
BRANCH   8  10
ATOM     10  C   UNL     1       3.075   2.798  17.639  0.00  0.00    +0.000 C 
BRANCH  10  11
ATOM     11  C   UNL     1       3.443   1.861  18.798  0.00  0.00    +0.000 C 
BRANCH  11  12
ATOM     12  O   UNL     1       4.052   0.676  18.272  0.00  0.00    +0.000 OA
ATOM     13  H   UNL     1       4.289   0.925  17.355  0.00  0.00    +0.000 HD
ENDBRANCH  11  12
ENDBRANCH  10  11
ENDBRANCH   8  10
ENDBRANCH   6   8
BRANCH   1  14
ATOM     14  C   UNL     1       6.890   4.459  14.554  0.00  0.00    +0.000 C 
BRANCH  14  16
ATOM     15  C   UNL     1       6.264   3.355  12.375  0.00  0.00    +0.000 C 
ATOM     16  C   UNL     1       5.744   4.013  13.645  0.00  0.00    +0.000 C 
ENDBRANCH  14  16
ENDBRANCH   1  14
TORSDOF 6
ENDMDL
MODEL 9
REMARK VINA RESULT:      -5.6      3.324      5.382
REMARK  Name = 
REMARK  8 active torsions:
REMARK  status: ('A' for Active; 'I' for Inactive)
REMARK    1  A    between atoms: C_1  and  C_2
REMARK    2  A    between atoms: C_2  and  C_3
REMARK    3  A    between atoms: C_3  and  C_4
REMARK    4  A    between atoms: C_6  and  C_7
REMARK    5  A    between atoms: C_9  and  N_10
REMARK    6  A    between atoms: N_10  and  C_11
REMARK    7  A    between atoms: C_11  and  C_12
REMARK    8  A    between atoms: C_12  and  O_13
REMARK                            x       y       z     vdW  Elec       q    Type
REMARK                         _______ _______ _______ _____ _____    ______ ____
ROOT
ATOM      1  C   UNL     1       2.589   4.155  18.350  0.00  0.00    +0.000 A 
ATOM      2  N   UNL     1       2.248   5.445  18.149  0.00  0.00    +0.000 NA
ATOM      3  C   UNL     1       3.248   6.339  18.147  0.00  0.00    +0.000 A 
ATOM      4  C   UNL     1       2.911   7.765  17.825  0.00  0.00    +0.000 C 
ATOM      5  C   UNL     1       4.560   5.981  18.373  0.00  0.00    +0.000 A 
ATOM      6  C   UNL     1       4.828   4.638  18.533  0.00  0.00    +0.000 A 
ATOM      7  N   UNL     1       3.853   3.719  18.519  0.00  0.00    +0.000 NA
ENDROOT
BRANCH   6   8
ATOM      8  N   UNL     1       6.179   4.262  18.583  0.00  0.00    +0.000 N 
ATOM      9  H   UNL     1       6.309   3.286  18.340  0.00  0.00    +0.000 HD
BRANCH   8  10
ATOM     10  C   UNL     1       7.147   5.169  17.959  0.00  0.00    +0.000 C 
BRANCH  10  11
ATOM     11  C   UNL     1       8.174   5.600  19.017  0.00  0.00    +0.000 C 
BRANCH  11  12
ATOM     12  O   UNL     1       7.595   5.465  20.320  0.00  0.00    +0.000 OA
ATOM     13  H   UNL     1       6.854   4.841  20.180  0.00  0.00    +0.000 HD
ENDBRANCH  11  12
ENDBRANCH  10  11
ENDBRANCH   8  10
ENDBRANCH   6   8
BRANCH   1  14
ATOM     14  C   UNL     1       1.479   3.140  18.348  0.00  0.00    +0.000 C 
BRANCH  14  16
ATOM     15  C   UNL     1       1.241   3.016  20.855  0.00  0.00    +0.000 C 
ATOM     16  C   UNL     1       1.532   2.237  19.581  0.00  0.00    +0.000 C 
ENDBRANCH  14  16
ENDBRANCH   1  14
TORSDOF 6
ENDMDL
