MODEL 1
REMARK VINA RESULT:      -9.0      0.000      0.000
REMARK  Name = 
REMARK  10 active torsions:
REMARK  status: ('A' for Active; 'I' for Inactive)
REMARK    1  A    between atoms: C_1  and  O_2
REMARK    2  A    between atoms: O_2  and  C_3
REMARK    3  A    between atoms: C_3  and  C_5
REMARK    4  A    between atoms: C_8  and  N_9
REMARK    5  A    between atoms: C_10  and  C_12
REMARK    6  A    between atoms: N_14  and  C_15
REMARK    7  A    between atoms: C_15  and  C_16
REMARK    8  A    between atoms: C_16  and  C_17
REMARK    9  A    between atoms: C_16  and  N_23
REMARK   10  A    between atoms: N_26  and  C_27
REMARK                            x       y       z     vdW  Elec       q    Type
REMARK                         _______ _______ _______ _____ _____    ______ ____
ROOT
ATOM      1  C   UNL     1       3.399   6.922  18.016  0.00  0.00    +0.000 C 
ENDROOT
BRANCH   1   4
ATOM      2  C   UNL     1       1.977   8.969  18.006  0.00  0.00    +0.000 C 
ATOM      3  O   UNL     1       2.580   9.612  17.160  0.00  0.00    +0.000 OA
ATOM      4  N   UNL     1       2.316   7.736  18.508  0.00  0.00    +0.000 N 
ATOM      5  H   UNL     1       1.643   7.329  19.159  0.00  0.00    +0.000 HD
BRANCH   2   7
ATOM      6  N   UNL     1      -0.251   9.984  17.755  0.00  0.00    +0.000 N 
ATOM      7  C   UNL     1       0.681   9.490  18.645  0.00  0.00    +0.000 C 
ATOM      8  O   UNL     1       0.610   9.407  19.867  0.00  0.00    +0.000 OA
ATOM      9  H   UNL     1      -0.002   9.922  16.770  0.00  0.00    +0.000 HD
BRANCH   6  13
ATOM     10  C   UNL     1      -4.020  11.614  18.780  0.00  0.00    +0.000 A 
ATOM     11  C   UNL     1      -2.856  12.171  19.305  0.00  0.00    +0.000 A 
ATOM     12  C   UNL     1      -1.610  11.639  18.971  0.00  0.00    +0.000 A 
ATOM     13  C   UNL     1      -1.495  10.544  18.111  0.00  0.00    +0.000 A 
ATOM     14  C   UNL     1      -2.662   9.985  17.579  0.00  0.00    +0.000 A 
ATOM     15  C   UNL     1      -3.919  10.516  17.912  0.00  0.00    +0.000 A 
BRANCH  10  16
ATOM     16  C   UNL     1      -5.315  12.230  19.171  0.00  0.00    +0.000 C 
ATOM     17  O   UNL     1      -5.467  13.431  19.352  0.00  0.00    +0.000 OA
BRANCH  16  19
ATOM     18  C   UNL     1      -7.554  11.796  19.655  0.00  0.00    +0.000 C 
ATOM     19  O   UNL     1      -6.274  11.282  19.290  0.00  0.00    +0.000 OA
ENDBRANCH  16  19
ENDBRANCH  10  16
ENDBRANCH   6  13
ENDBRANCH   2   7
ENDBRANCH   1   4
BRANCH   1  20
ATOM     20  C   UNL     1       3.945   5.867  19.031  0.00  0.00    +0.000 C 
BRANCH  20  21
ATOM     21  C   UNL     1       3.023   4.642  19.005  0.00  0.00    +0.000 A 
ATOM     22  C   UNL     1       2.059   4.431  18.010  0.00  0.00    +0.000 A 
ATOM     23  C   UNL     1       1.177   3.354  18.107  0.00  0.00    +0.000 A 
ATOM     24  C   UNL     1       1.299   2.497  19.188  0.00  0.00    +0.000 A 
ATOM     25  N   UNL     1       2.238   2.637  20.147  0.00  0.00    +0.000 NA
ATOM     26  C   UNL     1       3.070   3.702  20.035  0.00  0.00    +0.000 A 
ENDBRANCH  20  21
BRANCH  20  27
ATOM     27  N   UNL     1       5.372   5.547  18.729  0.00  0.00    +0.000 NA
ATOM     28  C   UNL     1       5.542   4.170  18.166  0.00  0.00    +0.000 C 
ATOM     29  C   UNL     1       4.989   3.942  16.731  0.00  0.00    +0.000 C 
ATOM     30  N   UNL     1       5.537   4.965  15.836  0.00  0.00    +0.000 N 
ATOM     31  C   UNL     1       5.409   6.350  16.298  0.00  0.00    +0.000 C 
ATOM     32  C   UNL     1       5.971   6.480  17.732  0.00  0.00    +0.000 C 
BRANCH  30  33
ATOM     33  C   UNL     1       6.065   4.659  14.600  0.00  0.00    +0.000 A 
ATOM     34  C   UNL     1       7.236   5.263  14.121  0.00  0.00    +0.000 A 
ATOM     35  C   UNL     1       7.752   4.962  12.855  0.00  0.00    +0.000 A 
ATOM     36  C   UNL     1       7.096   4.054  12.031  0.00  0.00    +0.000 A 
ATOM     37  C   UNL     1       5.934   3.438  12.480  0.00  0.00    +0.000 A 
ATOM     38  C   UNL     1       5.433   3.737  13.750  0.00  0.00    +0.000 A 
ENDBRANCH  30  33
ENDBRANCH  20  27
ENDBRANCH   1  20
TORSDOF 9
ENDMDL
MODEL 2
REMARK VINA RESULT:      -9.0      2.247      2.755
REMARK  Name = 
REMARK  10 active torsions:
REMARK  status: ('A' for Active; 'I' for Inactive)
REMARK    1  A    between atoms: C_1  and  O_2
REMARK    2  A    between atoms: O_2  and  C_3
REMARK    3  A    between atoms: C_3  and  C_5
REMARK    4  A    between atoms: C_8  and  N_9
REMARK    5  A    between atoms: C_10  and  C_12
REMARK    6  A    between atoms: N_14  and  C_15
REMARK    7  A    between atoms: C_15  and  C_16
REMARK    8  A    between atoms: C_16  and  C_17
REMARK    9  A    between atoms: C_16  and  N_23
REMARK   10  A    between atoms: N_26  and  C_27
REMARK                            x       y       z     vdW  Elec       q    Type
REMARK                         _______ _______ _______ _____ _____    ______ ____
ROOT
ATOM      1  C   UNL     1       3.114   6.957  18.091  0.00  0.00    +0.000 C 
ENDROOT
BRANCH   1   4
ATOM      2  C   UNL     1       1.916   9.142  18.164  0.00  0.00    +0.000 C 
ATOM      3  O   UNL     1       2.564   9.740  17.319  0.00  0.00    +0.000 OA
ATOM      4  N   UNL     1       2.134   7.868  18.629  0.00  0.00    +0.000 N 
ATOM      5  H   UNL     1       1.437   7.517  19.286  0.00  0.00    +0.000 HD
BRANCH   2   7
ATOM      6  N   UNL     1       0.911  10.207  20.142  0.00  0.00    +0.000 N 
ATOM      7  C   UNL     1       0.697   9.779  18.847  0.00  0.00    +0.000 C 
ATOM      8  O   UNL     1      -0.327   9.846  18.174  0.00  0.00    +0.000 OA
ATOM      9  H   UNL     1       1.857  10.090  20.498  0.00  0.00    +0.000 HD
BRANCH   6  13
ATOM     10  C   UNL     1      -2.033  12.008  22.592  0.00  0.00    +0.000 A 
ATOM     11  C   UNL     1      -1.357  10.874  23.037  0.00  0.00    +0.000 A 
ATOM     12  C   UNL     1      -0.385  10.275  22.235  0.00  0.00    +0.000 A 
ATOM     13  C   UNL     1      -0.066  10.789  20.976  0.00  0.00    +0.000 A 
ATOM     14  C   UNL     1      -0.740  11.930  20.528  0.00  0.00    +0.000 A 
ATOM     15  C   UNL     1      -1.720  12.537  21.331  0.00  0.00    +0.000 A 
BRANCH  10  16
ATOM     16  C   UNL     1      -3.054  12.601  23.496  0.00  0.00    +0.000 C 
ATOM     17  O   UNL     1      -3.768  11.941  24.239  0.00  0.00    +0.000 OA
BRANCH  16  19
ATOM     18  C   UNL     1      -4.369  14.497  23.165  0.00  0.00    +0.000 C 
ATOM     19  O   UNL     1      -3.069  13.949  23.373  0.00  0.00    +0.000 OA
ENDBRANCH  16  19
ENDBRANCH  10  16
ENDBRANCH   6  13
ENDBRANCH   2   7
ENDBRANCH   1   4
BRANCH   1  20
ATOM     20  C   UNL     1       3.642   5.885  19.098  0.00  0.00    +0.000 C 
BRANCH  20  21
ATOM     21  C   UNL     1       2.719   4.663  19.037  0.00  0.00    +0.000 A 
ATOM     22  C   UNL     1       2.703   3.665  20.021  0.00  0.00    +0.000 A 
ATOM     23  C   UNL     1       1.920   2.523  19.847  0.00  0.00    +0.000 A 
ATOM     24  C   UNL     1       1.149   2.420  18.702  0.00  0.00    +0.000 A 
ATOM     25  N   UNL     1       1.101   3.373  17.748  0.00  0.00    +0.000 NA
ATOM     26  C   UNL     1       1.885   4.463  17.936  0.00  0.00    +0.000 A 
ENDBRANCH  20  21
BRANCH  20  27
ATOM     27  N   UNL     1       5.073   5.570  18.816  0.00  0.00    +0.000 NA
ATOM     28  C   UNL     1       5.254   4.193  18.254  0.00  0.00    +0.000 C 
ATOM     29  C   UNL     1       4.722   3.965  16.811  0.00  0.00    +0.000 C 
ATOM     30  N   UNL     1       5.280   4.990  15.925  0.00  0.00    +0.000 N 
ATOM     31  C   UNL     1       5.142   6.375  16.386  0.00  0.00    +0.000 C 
ATOM     32  C   UNL     1       5.684   6.504  17.828  0.00  0.00    +0.000 C 
BRANCH  30  33
ATOM     33  C   UNL     1       5.826   4.686  14.696  0.00  0.00    +0.000 A 
ATOM     34  C   UNL     1       5.210   3.791  13.810  0.00  0.00    +0.000 A 
ATOM     35  C   UNL     1       5.784   3.471  12.574  0.00  0.00    +0.000 A 
ATOM     36  C   UNL     1       7.000   4.034  12.201  0.00  0.00    +0.000 A 
ATOM     37  C   UNL     1       7.632   4.927  13.059  0.00  0.00    +0.000 A 
ATOM     38  C   UNL     1       7.046   5.248  14.286  0.00  0.00    +0.000 A 
ENDBRANCH  30  33
ENDBRANCH  20  27
ENDBRANCH   1  20
TORSDOF 9
ENDMDL
MODEL 3
REMARK VINA RESULT:      -8.9      2.197      2.738
REMARK  Name = 
REMARK  10 active torsions:
REMARK  status: ('A' for Active; 'I' for Inactive)
REMARK    1  A    between atoms: C_1  and  O_2
REMARK    2  A    between atoms: O_2  and  C_3
REMARK    3  A    between atoms: C_3  and  C_5
REMARK    4  A    between atoms: C_8  and  N_9
REMARK    5  A    between atoms: C_10  and  C_12
REMARK    6  A    between atoms: N_14  and  C_15
REMARK    7  A    between atoms: C_15  and  C_16
REMARK    8  A    between atoms: C_16  and  C_17
REMARK    9  A    between atoms: C_16  and  N_23
REMARK   10  A    between atoms: N_26  and  C_27
REMARK                            x       y       z     vdW  Elec       q    Type
REMARK                         _______ _______ _______ _____ _____    ______ ____
ROOT
ATOM      1  C   UNL     1       3.163   6.874  18.136  0.00  0.00    +0.000 C 
ENDROOT
BRANCH   1   4
ATOM      2  C   UNL     1       1.965   9.059  18.076  0.00  0.00    +0.000 C 
ATOM      3  O   UNL     1       2.592   9.593  17.174  0.00  0.00    +0.000 OA
ATOM      4  N   UNL     1       2.195   7.823  18.628  0.00  0.00    +0.000 N 
ATOM      5  H   UNL     1       1.514   7.521  19.326  0.00  0.00    +0.000 HD
BRANCH   2   7
ATOM      6  N   UNL     1       0.939  10.081  20.066  0.00  0.00    +0.000 N 
ATOM      7  C   UNL     1       0.761   9.746  18.739  0.00  0.00    +0.000 C 
ATOM      8  O   UNL     1      -0.220   9.927  18.024  0.00  0.00    +0.000 OA
ATOM      9  H   UNL     1       1.854   9.873  20.458  0.00  0.00    +0.000 HD
BRANCH   6  13
ATOM     10  C   UNL     1      -1.964  11.852  22.586  0.00  0.00    +0.000 A 
ATOM     11  C   UNL     1      -1.859  12.255  21.257  0.00  0.00    +0.000 A 
ATOM     12  C   UNL     1      -0.905  11.676  20.420  0.00  0.00    +0.000 A 
ATOM     13  C   UNL     1      -0.035  10.686  20.887  0.00  0.00    +0.000 A 
ATOM     14  C   UNL     1      -0.142  10.276  22.220  0.00  0.00    +0.000 A 
ATOM     15  C   UNL     1      -1.100  10.856  23.067  0.00  0.00    +0.000 A 
BRANCH  10  16
ATOM     16  C   UNL     1      -3.005  12.504  23.424  0.00  0.00    +0.000 C 
ATOM     17  O   UNL     1      -4.178  12.155  23.441  0.00  0.00    +0.000 OA
BRANCH  16  19
ATOM     18  C   UNL     1      -2.695  14.809  23.588  0.00  0.00    +0.000 C 
ATOM     19  O   UNL     1      -2.468  13.515  24.145  0.00  0.00    +0.000 OA
ENDBRANCH  16  19
ENDBRANCH  10  16
ENDBRANCH   6  13
ENDBRANCH   2   7
ENDBRANCH   1   4
BRANCH   1  20
ATOM     20  C   UNL     1       3.620   5.799  19.174  0.00  0.00    +0.000 C 
BRANCH  20  21
ATOM     21  C   UNL     1       2.648   4.615  19.109  0.00  0.00    +0.000 A 
ATOM     22  C   UNL     1       2.562   3.640  20.112  0.00  0.00    +0.000 A 
ATOM     23  C   UNL     1       1.736   2.529  19.938  0.00  0.00    +0.000 A 
ATOM     24  C   UNL     1       0.992   2.435  18.774  0.00  0.00    +0.000 A 
ATOM     25  N   UNL     1       1.012   3.369  17.800  0.00  0.00    +0.000 NA
ATOM     26  C   UNL     1       1.836   4.429  17.990  0.00  0.00    +0.000 A 
ENDBRANCH  20  21
BRANCH  20  27
ATOM     27  N   UNL     1       5.043   5.418  18.932  0.00  0.00    +0.000 NA
ATOM     28  C   UNL     1       5.174   4.057  18.321  0.00  0.00    +0.000 C 
ATOM     29  C   UNL     1       4.688   3.914  16.851  0.00  0.00    +0.000 C 
ATOM     30  N   UNL     1       5.334   4.942  16.030  0.00  0.00    +0.000 N 
ATOM     31  C   UNL     1       5.250   6.312  16.542  0.00  0.00    +0.000 C 
ATOM     32  C   UNL     1       5.740   6.356  18.007  0.00  0.00    +0.000 C 
BRANCH  30  33
ATOM     33  C   UNL     1       5.911   4.657  14.811  0.00  0.00    +0.000 A 
ATOM     34  C   UNL     1       7.113   5.250  14.401  0.00  0.00    +0.000 A 
ATOM     35  C   UNL     1       7.680   4.972  13.152  0.00  0.00    +0.000 A 
ATOM     36  C   UNL     1       7.045   4.099  12.275  0.00  0.00    +0.000 A 
ATOM     37  C   UNL     1       5.852   3.495  12.655  0.00  0.00    +0.000 A 
ATOM     38  C   UNL     1       5.300   3.771  13.909  0.00  0.00    +0.000 A 
ENDBRANCH  30  33
ENDBRANCH  20  27
ENDBRANCH   1  20
TORSDOF 9
ENDMDL
MODEL 4
REMARK VINA RESULT:      -8.9      0.918      1.689
REMARK  Name = 
REMARK  10 active torsions:
REMARK  status: ('A' for Active; 'I' for Inactive)
REMARK    1  A    between atoms: C_1  and  O_2
REMARK    2  A    between atoms: O_2  and  C_3
REMARK    3  A    between atoms: C_3  and  C_5
REMARK    4  A    between atoms: C_8  and  N_9
REMARK    5  A    between atoms: C_10  and  C_12
REMARK    6  A    between atoms: N_14  and  C_15
REMARK    7  A    between atoms: C_15  and  C_16
REMARK    8  A    between atoms: C_16  and  C_17
REMARK    9  A    between atoms: C_16  and  N_23
REMARK   10  A    between atoms: N_26  and  C_27
REMARK                            x       y       z     vdW  Elec       q    Type
REMARK                         _______ _______ _______ _____ _____    ______ ____
ROOT
ATOM      1  C   UNL     1       3.155   7.158  17.844  0.00  0.00    +0.000 C 
ENDROOT
BRANCH   1   4
ATOM      2  C   UNL     1       1.831   9.263  18.010  0.00  0.00    +0.000 C 
ATOM      3  O   UNL     1       2.637  10.032  17.510  0.00  0.00    +0.000 OA
ATOM      4  N   UNL     1       2.005   7.923  18.258  0.00  0.00    +0.000 N 
ATOM      5  H   UNL     1       1.185   7.433  18.616  0.00  0.00    +0.000 HD
BRANCH   2   7
ATOM      6  N   UNL     1      -0.464   9.918  17.408  0.00  0.00    +0.000 N 
ATOM      7  C   UNL     1       0.431   9.727  18.441  0.00  0.00    +0.000 C 
ATOM      8  O   UNL     1       0.257   9.871  19.647  0.00  0.00    +0.000 OA
ATOM      9  H   UNL     1      -0.120   9.701  16.475  0.00  0.00    +0.000 HD
BRANCH   6  13
ATOM     10  C   UNL     1      -4.424  11.322  17.920  0.00  0.00    +0.000 A 
ATOM     11  C   UNL     1      -4.131  10.427  16.893  0.00  0.00    +0.000 A 
ATOM     12  C   UNL     1      -2.828   9.960  16.718  0.00  0.00    +0.000 A 
ATOM     13  C   UNL     1      -1.790  10.372  17.558  0.00  0.00    +0.000 A 
ATOM     14  C   UNL     1      -2.082  11.267  18.593  0.00  0.00    +0.000 A 
ATOM     15  C   UNL     1      -3.392  11.742  18.773  0.00  0.00    +0.000 A 
BRANCH  10  16
ATOM     16  C   UNL     1      -5.832  11.778  18.056  0.00  0.00    +0.000 C 
ATOM     17  O   UNL     1      -6.785  11.016  18.152  0.00  0.00    +0.000 OA
BRANCH  16  19
ATOM     18  C   UNL     1      -6.792  13.669  17.088  0.00  0.00    +0.000 C 
ATOM     19  O   UNL     1      -5.895  13.130  18.057  0.00  0.00    +0.000 OA
ENDBRANCH  16  19
ENDBRANCH  10  16
ENDBRANCH   6  13
ENDBRANCH   2   7
ENDBRANCH   1   4
BRANCH   1  20
ATOM     20  C   UNL     1       3.685   6.137  18.902  0.00  0.00    +0.000 C 
BRANCH  20  21
ATOM     21  C   UNL     1       2.760   4.914  18.905  0.00  0.00    +0.000 A 
ATOM     22  C   UNL     1       2.771   3.949  19.921  0.00  0.00    +0.000 A 
ATOM     23  C   UNL     1       1.983   2.803  19.805  0.00  0.00    +0.000 A 
ATOM     24  C   UNL     1       1.180   2.665  18.685  0.00  0.00    +0.000 A 
ATOM     25  N   UNL     1       1.106   3.587  17.703  0.00  0.00    +0.000 NA
ATOM     26  C   UNL     1       1.895   4.681  17.835  0.00  0.00    +0.000 A 
ENDBRANCH  20  21
BRANCH  20  27
ATOM     27  N   UNL     1       5.115   5.805  18.632  0.00  0.00    +0.000 NA
ATOM     28  C   UNL     1       5.292   4.401  18.144  0.00  0.00    +0.000 C 
ATOM     29  C   UNL     1       4.755   4.096  16.718  0.00  0.00    +0.000 C 
ATOM     30  N   UNL     1       5.311   5.072  15.776  0.00  0.00    +0.000 N 
ATOM     31  C   UNL     1       5.175   6.479  16.163  0.00  0.00    +0.000 C 
ATOM     32  C   UNL     1       5.723   6.685  17.594  0.00  0.00    +0.000 C 
BRANCH  30  33
ATOM     33  C   UNL     1       5.852   4.702  14.563  0.00  0.00    +0.000 A 
ATOM     34  C   UNL     1       5.190   3.827  13.690  0.00  0.00    +0.000 A 
ATOM     35  C   UNL     1       5.758   3.439  12.471  0.00  0.00    +0.000 A 
ATOM     36  C   UNL     1       7.014   3.912  12.103  0.00  0.00    +0.000 A 
ATOM     37  C   UNL     1       7.692   4.782  12.948  0.00  0.00    +0.000 A 
ATOM     38  C   UNL     1       7.112   5.171  14.158  0.00  0.00    +0.000 A 
ENDBRANCH  30  33
ENDBRANCH  20  27
ENDBRANCH   1  20
TORSDOF 9
ENDMDL
MODEL 5
REMARK VINA RESULT:      -8.9      2.164      2.669
REMARK  Name = 
REMARK  10 active torsions:
REMARK  status: ('A' for Active; 'I' for Inactive)
REMARK    1  A    between atoms: C_1  and  O_2
REMARK    2  A    between atoms: O_2  and  C_3
REMARK    3  A    between atoms: C_3  and  C_5
REMARK    4  A    between atoms: C_8  and  N_9
REMARK    5  A    between atoms: C_10  and  C_12
REMARK    6  A    between atoms: N_14  and  C_15
REMARK    7  A    between atoms: C_15  and  C_16
REMARK    8  A    between atoms: C_16  and  C_17
REMARK    9  A    between atoms: C_16  and  N_23
REMARK   10  A    between atoms: N_26  and  C_27
REMARK                            x       y       z     vdW  Elec       q    Type
REMARK                         _______ _______ _______ _____ _____    ______ ____
ROOT
ATOM      1  C   UNL     1       2.949   6.989  18.013  0.00  0.00    +0.000 C 
ENDROOT
BRANCH   1   4
ATOM      2  C   UNL     1       1.833   9.217  18.076  0.00  0.00    +0.000 C 
ATOM      3  O   UNL     1       2.538   9.802  17.268  0.00  0.00    +0.000 OA
ATOM      4  N   UNL     1       1.983   7.928  18.527  0.00  0.00    +0.000 N 
ATOM      5  H   UNL     1       1.247   7.594  19.149  0.00  0.00    +0.000 HD
BRANCH   2   7
ATOM      6  N   UNL     1       0.835  10.426  19.973  0.00  0.00    +0.000 N 
ATOM      7  C   UNL     1       0.612   9.890  18.720  0.00  0.00    +0.000 C 
ATOM      8  O   UNL     1      -0.420   9.886  18.057  0.00  0.00    +0.000 OA
ATOM      9  H   UNL     1       1.787  10.353  20.325  0.00  0.00    +0.000 HD
BRANCH   6  13
ATOM     10  C   UNL     1      -2.078  12.284  22.417  0.00  0.00    +0.000 A 
ATOM     11  C   UNL     1      -1.916  12.694  21.096  0.00  0.00    +0.000 A 
ATOM     12  C   UNL     1      -0.958  12.086  20.283  0.00  0.00    +0.000 A 
ATOM     13  C   UNL     1      -0.142  11.060  20.768  0.00  0.00    +0.000 A 
ATOM     14  C   UNL     1      -0.305  10.643  22.093  0.00  0.00    +0.000 A 
ATOM     15  C   UNL     1      -1.268  11.252  22.915  0.00  0.00    +0.000 A 
BRANCH  10  16
ATOM     16  C   UNL     1      -3.120  12.968  23.228  0.00  0.00    +0.000 C 
ATOM     17  O   UNL     1      -3.064  14.147  23.549  0.00  0.00    +0.000 OA
BRANCH  16  19
ATOM     18  C   UNL     1      -4.726  12.368  24.808  0.00  0.00    +0.000 C 
ATOM     19  O   UNL     1      -4.114  12.106  23.546  0.00  0.00    +0.000 OA
ENDBRANCH  16  19
ENDBRANCH  10  16
ENDBRANCH   6  13
ENDBRANCH   2   7
ENDBRANCH   1   4
BRANCH   1  20
ATOM     20  C   UNL     1       3.501   5.969  19.062  0.00  0.00    +0.000 C 
BRANCH  20  21
ATOM     21  C   UNL     1       2.608   4.723  19.046  0.00  0.00    +0.000 A 
ATOM     22  C   UNL     1       2.651   3.738  20.042  0.00  0.00    +0.000 A 
ATOM     23  C   UNL     1       1.893   2.574  19.908  0.00  0.00    +0.000 A 
ATOM     24  C   UNL     1       1.086   2.438  18.792  0.00  0.00    +0.000 A 
ATOM     25  N   UNL     1       0.981   3.377  17.829  0.00  0.00    +0.000 NA
ATOM     26  C   UNL     1       1.742   4.489  17.977  0.00  0.00    +0.000 A 
ENDBRANCH  20  21
BRANCH  20  27
ATOM     27  N   UNL     1       4.940   5.678  18.793  0.00  0.00    +0.000 NA
ATOM     28  C   UNL     1       5.152   4.297  18.253  0.00  0.00    +0.000 C 
ATOM     29  C   UNL     1       4.634   4.038  16.811  0.00  0.00    +0.000 C 
ATOM     30  N   UNL     1       5.178   5.060  15.913  0.00  0.00    +0.000 N 
ATOM     31  C   UNL     1       5.010   6.448  16.353  0.00  0.00    +0.000 C 
ATOM     32  C   UNL     1       5.539   6.610  17.796  0.00  0.00    +0.000 C 
BRANCH  30  33
ATOM     33  C   UNL     1       5.739   4.749  14.693  0.00  0.00    +0.000 A 
ATOM     34  C   UNL     1       5.105   3.894  13.780  0.00  0.00    +0.000 A 
ATOM     35  C   UNL     1       5.693   3.566  12.553  0.00  0.00    +0.000 A 
ATOM     36  C   UNL     1       6.940   4.080  12.215  0.00  0.00    +0.000 A 
ATOM     37  C   UNL     1       7.591   4.932  13.100  0.00  0.00    +0.000 A 
ATOM     38  C   UNL     1       6.991   5.262  14.318  0.00  0.00    +0.000 A 
ENDBRANCH  30  33
ENDBRANCH  20  27
ENDBRANCH   1  20
TORSDOF 9
ENDMDL
MODEL 6
REMARK VINA RESULT:      -8.9      0.620      1.061
REMARK  Name = 
REMARK  10 active torsions:
REMARK  status: ('A' for Active; 'I' for Inactive)
REMARK    1  A    between atoms: C_1  and  O_2
REMARK    2  A    between atoms: O_2  and  C_3
REMARK    3  A    between atoms: C_3  and  C_5
REMARK    4  A    between atoms: C_8  and  N_9
REMARK    5  A    between atoms: C_10  and  C_12
REMARK    6  A    between atoms: N_14  and  C_15
REMARK    7  A    between atoms: C_15  and  C_16
REMARK    8  A    between atoms: C_16  and  C_17
REMARK    9  A    between atoms: C_16  and  N_23
REMARK   10  A    between atoms: N_26  and  C_27
REMARK                            x       y       z     vdW  Elec       q    Type
REMARK                         _______ _______ _______ _____ _____    ______ ____
ROOT
ATOM      1  C   UNL     1       3.350   6.961  17.957  0.00  0.00    +0.000 C 
ENDROOT
BRANCH   1   4
ATOM      2  C   UNL     1       1.973   9.035  18.077  0.00  0.00    +0.000 C 
ATOM      3  O   UNL     1       2.593   9.719  17.278  0.00  0.00    +0.000 OA
ATOM      4  N   UNL     1       2.282   7.764  18.498  0.00  0.00    +0.000 N 
ATOM      5  H   UNL     1       1.597   7.330  19.118  0.00  0.00    +0.000 HD
BRANCH   2   7
ATOM      6  N   UNL     1      -0.166  10.242  17.914  0.00  0.00    +0.000 N 
ATOM      7  C   UNL     1       0.685   9.540  18.744  0.00  0.00    +0.000 C 
ATOM      8  O   UNL     1       0.546   9.264  19.932  0.00  0.00    +0.000 OA
ATOM      9  H   UNL     1       0.128  10.323  16.943  0.00  0.00    +0.000 HD
BRANCH   6  13
ATOM     10  C   UNL     1      -3.790  12.039  19.160  0.00  0.00    +0.000 A 
ATOM     11  C   UNL     1      -3.793  11.121  18.111  0.00  0.00    +0.000 A 
ATOM     12  C   UNL     1      -2.603  10.525  17.695  0.00  0.00    +0.000 A 
ATOM     13  C   UNL     1      -1.385  10.828  18.311  0.00  0.00    +0.000 A 
ATOM     14  C   UNL     1      -1.379  11.745  19.367  0.00  0.00    +0.000 A 
ATOM     15  C   UNL     1      -2.575  12.349  19.789  0.00  0.00    +0.000 A 
BRANCH  10  16
ATOM     16  C   UNL     1      -5.092  12.634  19.559  0.00  0.00    +0.000 C 
ATOM     17  O   UNL     1      -6.029  12.795  18.787  0.00  0.00    +0.000 OA
BRANCH  16  19
ATOM     18  C   UNL     1      -6.302  13.536  21.336  0.00  0.00    +0.000 C 
ATOM     19  O   UNL     1      -5.081  12.962  20.872  0.00  0.00    +0.000 OA
ENDBRANCH  16  19
ENDBRANCH  10  16
ENDBRANCH   6  13
ENDBRANCH   2   7
ENDBRANCH   1   4
BRANCH   1  20
ATOM     20  C   UNL     1       3.960   5.919  18.950  0.00  0.00    +0.000 C 
BRANCH  20  21
ATOM     21  C   UNL     1       3.094   4.654  18.921  0.00  0.00    +0.000 A 
ATOM     22  C   UNL     1       2.116   4.419  17.946  0.00  0.00    +0.000 A 
ATOM     23  C   UNL     1       1.287   3.300  18.042  0.00  0.00    +0.000 A 
ATOM     24  C   UNL     1       1.477   2.427  19.100  0.00  0.00    +0.000 A 
ATOM     25  N   UNL     1       2.433   2.591  20.039  0.00  0.00    +0.000 NA
ATOM     26  C   UNL     1       3.212   3.695  19.928  0.00  0.00    +0.000 A 
ENDBRANCH  20  21
BRANCH  20  27
ATOM     27  N   UNL     1       5.395   5.670  18.623  0.00  0.00    +0.000 NA
ATOM     28  C   UNL     1       5.632   4.281  18.116  0.00  0.00    +0.000 C 
ATOM     29  C   UNL     1       5.059   3.958  16.707  0.00  0.00    +0.000 C 
ATOM     30  N   UNL     1       5.523   4.970  15.754  0.00  0.00    +0.000 N 
ATOM     31  C   UNL     1       5.324   6.364  16.160  0.00  0.00    +0.000 C 
ATOM     32  C   UNL     1       5.913   6.590  17.571  0.00  0.00    +0.000 C 
BRANCH  30  33
ATOM     33  C   UNL     1       6.037   4.640  14.519  0.00  0.00    +0.000 A 
ATOM     34  C   UNL     1       7.232   5.196  14.039  0.00  0.00    +0.000 A 
ATOM     35  C   UNL     1       7.734   4.872  12.773  0.00  0.00    +0.000 A 
ATOM     36  C   UNL     1       7.041   3.989  11.951  0.00  0.00    +0.000 A 
ATOM     37  C   UNL     1       5.855   3.422  12.402  0.00  0.00    +0.000 A 
ATOM     38  C   UNL     1       5.368   3.744  13.671  0.00  0.00    +0.000 A 
ENDBRANCH  30  33
ENDBRANCH  20  27
ENDBRANCH   1  20
TORSDOF 9
ENDMDL
MODEL 7
REMARK VINA RESULT:      -8.7      4.107     10.740
REMARK  Name = 
REMARK  10 active torsions:
REMARK  status: ('A' for Active; 'I' for Inactive)
REMARK    1  A    between atoms: C_1  and  O_2
REMARK    2  A    between atoms: O_2  and  C_3
REMARK    3  A    between atoms: C_3  and  C_5
REMARK    4  A    between atoms: C_8  and  N_9
REMARK    5  A    between atoms: C_10  and  C_12
REMARK    6  A    between atoms: N_14  and  C_15
REMARK    7  A    between atoms: C_15  and  C_16
REMARK    8  A    between atoms: C_16  and  C_17
REMARK    9  A    between atoms: C_16  and  N_23
REMARK   10  A    between atoms: N_26  and  C_27
REMARK                            x       y       z     vdW  Elec       q    Type
REMARK                         _______ _______ _______ _____ _____    ______ ____
ROOT
ATOM      1  C   UNL     1      -0.279  10.752  19.924  0.00  0.00    +0.000 C 
ENDROOT
BRANCH   1   4
ATOM      2  C   UNL     1       1.281   8.846  19.538  0.00  0.00    +0.000 C 
ATOM      3  O   UNL     1       1.098   8.240  20.582  0.00  0.00    +0.000 OA
ATOM      4  N   UNL     1       0.730  10.050  19.170  0.00  0.00    +0.000 N 
ATOM      5  H   UNL     1       0.949  10.360  18.223  0.00  0.00    +0.000 HD
BRANCH   2   7
ATOM      6  N   UNL     1       2.844   7.118  18.746  0.00  0.00    +0.000 N 
ATOM      7  C   UNL     1       2.200   8.299  18.436  0.00  0.00    +0.000 C 
ATOM      8  O   UNL     1       2.259   8.959  17.403  0.00  0.00    +0.000 OA
ATOM      9  H   UNL     1       2.619   6.714  19.653  0.00  0.00    +0.000 HD
BRANCH   6  13
ATOM     10  C   UNL     1       5.555   5.043  16.244  0.00  0.00    +0.000 A 
ATOM     11  C   UNL     1       5.682   6.420  16.416  0.00  0.00    +0.000 A 
ATOM     12  C   UNL     1       4.792   7.111  17.239  0.00  0.00    +0.000 A 
ATOM     13  C   UNL     1       3.758   6.449  17.907  0.00  0.00    +0.000 A 
ATOM     14  C   UNL     1       3.631   5.066  17.741  0.00  0.00    +0.000 A 
ATOM     15  C   UNL     1       4.524   4.365  16.912  0.00  0.00    +0.000 A 
BRANCH  10  16
ATOM     16  C   UNL     1       6.538   4.366  15.358  0.00  0.00    +0.000 C 
ATOM     17  O   UNL     1       7.746   4.554  15.418  0.00  0.00    +0.000 OA
BRANCH  16  19
ATOM     18  C   UNL     1       6.233   3.756  13.129  0.00  0.00    +0.000 C 
ATOM     19  O   UNL     1       5.906   3.532  14.499  0.00  0.00    +0.000 OA
ENDBRANCH  16  19
ENDBRANCH  10  16
ENDBRANCH   6  13
ENDBRANCH   2   7
ENDBRANCH   1   4
BRANCH   1  20
ATOM     20  C   UNL     1      -0.772  12.089  19.281  0.00  0.00    +0.000 C 
BRANCH  20  21
ATOM     21  C   UNL     1      -2.205  11.886  18.775  0.00  0.00    +0.000 A 
ATOM     22  C   UNL     1      -2.504  11.449  17.477  0.00  0.00    +0.000 A 
ATOM     23  C   UNL     1      -3.830  11.394  17.046  0.00  0.00    +0.000 A 
ATOM     24  C   UNL     1      -4.829  11.750  17.936  0.00  0.00    +0.000 A 
ATOM     25  N   UNL     1      -4.591  12.137  19.207  0.00  0.00    +0.000 NA
ATOM     26  C   UNL     1      -3.293  12.197  19.592  0.00  0.00    +0.000 A 
ENDBRANCH  20  21
BRANCH  20  27
ATOM     27  N   UNL     1      -0.635  13.213  20.252  0.00  0.00    +0.000 NA
ATOM     28  C   UNL     1       0.585  13.080  21.111  0.00  0.00    +0.000 C 
ATOM     29  C   UNL     1       1.952  13.278  20.397  0.00  0.00    +0.000 C 
ATOM     30  N   UNL     1       1.935  14.552  19.672  0.00  0.00    +0.000 N 
ATOM     31  C   UNL     1       0.781  14.771  18.795  0.00  0.00    +0.000 C 
ATOM     32  C   UNL     1      -0.528  14.541  19.584  0.00  0.00    +0.000 C 
BRANCH  30  33
ATOM     33  C   UNL     1       2.975  15.454  19.740  0.00  0.00    +0.000 A 
ATOM     34  C   UNL     1       3.737  15.797  18.615  0.00  0.00    +0.000 A 
ATOM     35  C   UNL     1       4.806  16.697  18.699  0.00  0.00    +0.000 A 
ATOM     36  C   UNL     1       5.146  17.267  19.921  0.00  0.00    +0.000 A 
ATOM     37  C   UNL     1       4.406  16.947  21.054  0.00  0.00    +0.000 A 
ATOM     38  C   UNL     1       3.334  16.056  20.958  0.00  0.00    +0.000 A 
ENDBRANCH  30  33
ENDBRANCH  20  27
ENDBRANCH   1  20
TORSDOF 9
ENDMDL
MODEL 8
REMARK VINA RESULT:      -8.6      4.731     11.228
REMARK  Name = 
REMARK  10 active torsions:
REMARK  status: ('A' for Active; 'I' for Inactive)
REMARK    1  A    between atoms: C_1  and  O_2
REMARK    2  A    between atoms: O_2  and  C_3
REMARK    3  A    between atoms: C_3  and  C_5
REMARK    4  A    between atoms: C_8  and  N_9
REMARK    5  A    between atoms: C_10  and  C_12
REMARK    6  A    between atoms: N_14  and  C_15
REMARK    7  A    between atoms: C_15  and  C_16
REMARK    8  A    between atoms: C_16  and  C_17
REMARK    9  A    between atoms: C_16  and  N_23
REMARK   10  A    between atoms: N_26  and  C_27
REMARK                            x       y       z     vdW  Elec       q    Type
REMARK                         _______ _______ _______ _____ _____    ______ ____
ROOT
ATOM      1  C   UNL     1      -1.206  11.714  23.089  0.00  0.00    +0.000 C 
ENDROOT
BRANCH   1   4
ATOM      2  C   UNL     1       0.111   9.632  22.706  0.00  0.00    +0.000 C 
ATOM      3  O   UNL     1       0.752   9.622  23.746  0.00  0.00    +0.000 OA
ATOM      4  N   UNL     1      -0.779  10.592  22.289  0.00  0.00    +0.000 N 
ATOM      5  H   UNL     1      -1.272  10.384  21.420  0.00  0.00    +0.000 HD
BRANCH   2   7
ATOM      6  N   UNL     1       1.509   8.161  21.314  0.00  0.00    +0.000 N 
ATOM      7  C   UNL     1       0.220   8.496  21.678  0.00  0.00    +0.000 C 
ATOM      8  O   UNL     1      -0.839   8.007  21.297  0.00  0.00    +0.000 OA
ATOM      9  H   UNL     1       2.251   8.673  21.786  0.00  0.00    +0.000 HD
BRANCH   6  13
ATOM     10  C   UNL     1       2.557   5.261  18.416  0.00  0.00    +0.000 A 
ATOM     11  C   UNL     1       2.136   4.858  19.682  0.00  0.00    +0.000 A 
ATOM     12  C   UNL     1       1.789   5.808  20.642  0.00  0.00    +0.000 A 
ATOM     13  C   UNL     1       1.854   7.177  20.366  0.00  0.00    +0.000 A 
ATOM     14  C   UNL     1       2.271   7.584  19.094  0.00  0.00    +0.000 A 
ATOM     15  C   UNL     1       2.622   6.631  18.123  0.00  0.00    +0.000 A 
BRANCH  10  16
ATOM     16  C   UNL     1       2.907   4.199  17.436  0.00  0.00    +0.000 C 
ATOM     17  O   UNL     1       2.208   3.217  17.222  0.00  0.00    +0.000 OA
BRANCH  16  19
ATOM     18  C   UNL     1       5.230   4.158  17.624  0.00  0.00    +0.000 C 
ATOM     19  O   UNL     1       4.086   4.479  16.834  0.00  0.00    +0.000 OA
ENDBRANCH  16  19
ENDBRANCH  10  16
ENDBRANCH   6  13
ENDBRANCH   2   7
ENDBRANCH   1   4
BRANCH   1  20
ATOM     20  C   UNL     1      -1.242  13.084  22.337  0.00  0.00    +0.000 C 
BRANCH  20  21
ATOM     21  C   UNL     1      -2.062  14.076  23.171  0.00  0.00    +0.000 A 
ATOM     22  C   UNL     1      -3.248  14.664  22.712  0.00  0.00    +0.000 A 
ATOM     23  C   UNL     1      -3.885  15.643  23.476  0.00  0.00    +0.000 A 
ATOM     24  C   UNL     1      -3.332  15.989  24.698  0.00  0.00    +0.000 A 
ATOM     25  N   UNL     1      -2.215  15.421  25.198  0.00  0.00    +0.000 NA
ATOM     26  C   UNL     1      -1.609  14.485  24.426  0.00  0.00    +0.000 A 
ENDBRANCH  20  21
BRANCH  20  27
ATOM     27  N   UNL     1       0.145  13.551  22.046  0.00  0.00    +0.000 NA
ATOM     28  C   UNL     1       0.579  13.218  20.652  0.00  0.00    +0.000 C 
ATOM     29  C   UNL     1      -0.127  14.000  19.508  0.00  0.00    +0.000 C 
ATOM     30  N   UNL     1      -0.032  15.437  19.777  0.00  0.00    +0.000 N 
ATOM     31  C   UNL     1      -0.445  15.863  21.118  0.00  0.00    +0.000 C 
ATOM     32  C   UNL     1       0.296  15.028  22.186  0.00  0.00    +0.000 C 
BRANCH  30  33
ATOM     33  C   UNL     1       0.342  16.346  18.811  0.00  0.00    +0.000 A 
ATOM     34  C   UNL     1      -0.599  17.111  18.107  0.00  0.00    +0.000 A 
ATOM     35  C   UNL     1      -0.211  18.015  17.111  0.00  0.00    +0.000 A 
ATOM     36  C   UNL     1       1.133  18.164  16.787  0.00  0.00    +0.000 A 
ATOM     37  C   UNL     1       2.088  17.420  17.470  0.00  0.00    +0.000 A 
ATOM     38  C   UNL     1       1.692  16.528  18.470  0.00  0.00    +0.000 A 
ENDBRANCH  30  33
ENDBRANCH  20  27
ENDBRANCH   1  20
TORSDOF 9
ENDMDL
MODEL 9
REMARK VINA RESULT:      -8.6      2.209      2.670
REMARK  Name = 
REMARK  10 active torsions:
REMARK  status: ('A' for Active; 'I' for Inactive)
REMARK    1  A    between atoms: C_1  and  O_2
REMARK    2  A    between atoms: O_2  and  C_3
REMARK    3  A    between atoms: C_3  and  C_5
REMARK    4  A    between atoms: C_8  and  N_9
REMARK    5  A    between atoms: C_10  and  C_12
REMARK    6  A    between atoms: N_14  and  C_15
REMARK    7  A    between atoms: C_15  and  C_16
REMARK    8  A    between atoms: C_16  and  C_17
REMARK    9  A    between atoms: C_16  and  N_23
REMARK   10  A    between atoms: N_26  and  C_27
REMARK                            x       y       z     vdW  Elec       q    Type
REMARK                         _______ _______ _______ _____ _____    ______ ____
ROOT
ATOM      1  C   UNL     1       2.804   6.619  18.328  0.00  0.00    +0.000 C 
ENDROOT
BRANCH   1   4
ATOM      2  C   UNL     1       2.121   9.012  18.181  0.00  0.00    +0.000 C 
ATOM      3  O   UNL     1       2.574   9.268  17.076  0.00  0.00    +0.000 OA
ATOM      4  N   UNL     1       2.230   7.826  18.867  0.00  0.00    +0.000 N 
ATOM      5  H   UNL     1       1.719   7.783  19.750  0.00  0.00    +0.000 HD
BRANCH   2   7
ATOM      6  N   UNL     1       0.551   9.520  20.007  0.00  0.00    +0.000 N 
ATOM      7  C   UNL     1       1.318  10.044  18.985  0.00  0.00    +0.000 C 
ATOM      8  O   UNL     1       1.445  11.216  18.641  0.00  0.00    +0.000 OA
ATOM      9  H   UNL     1       0.623   8.515  20.145  0.00  0.00    +0.000 HD
BRANCH   6  13
ATOM     10  C   UNL     1      -2.003  11.808  22.487  0.00  0.00    +0.000 A 
ATOM     11  C   UNL     1      -1.196  10.818  23.045  0.00  0.00    +0.000 A 
ATOM     12  C   UNL     1      -0.351  10.060  22.234  0.00  0.00    +0.000 A 
ATOM     13  C   UNL     1      -0.292  10.269  20.853  0.00  0.00    +0.000 A 
ATOM     14  C   UNL     1      -1.098  11.265  20.291  0.00  0.00    +0.000 A 
ATOM     15  C   UNL     1      -1.951  12.030  21.103  0.00  0.00    +0.000 A 
BRANCH  10  16
ATOM     16  C   UNL     1      -2.877  12.584  23.407  0.00  0.00    +0.000 C 
ATOM     17  O   UNL     1      -3.680  12.069  24.174  0.00  0.00    +0.000 OA
BRANCH  16  19
ATOM     18  C   UNL     1      -1.975  14.503  24.375  0.00  0.00    +0.000 C 
ATOM     19  O   UNL     1      -2.651  13.911  23.267  0.00  0.00    +0.000 OA
ENDBRANCH  16  19
ENDBRANCH  10  16
ENDBRANCH   6  13
ENDBRANCH   2   7
ENDBRANCH   1   4
BRANCH   1  20
ATOM     20  C   UNL     1       3.448   5.665  19.386  0.00  0.00    +0.000 C 
BRANCH  20  21
ATOM     21  C   UNL     1       2.655   4.352  19.404  0.00  0.00    +0.000 A 
ATOM     22  C   UNL     1       1.726   4.006  18.414  0.00  0.00    +0.000 A 
ATOM     23  C   UNL     1       0.958   2.849  18.549  0.00  0.00    +0.000 A 
ATOM     24  C   UNL     1       1.159   2.050  19.662  0.00  0.00    +0.000 A 
ATOM     25  N   UNL     1       2.070   2.322  20.620  0.00  0.00    +0.000 NA
ATOM     26  C   UNL     1       2.790   3.461  20.469  0.00  0.00    +0.000 A 
ENDBRANCH  20  21
BRANCH  20  27
ATOM     27  N   UNL     1       4.901   5.482  19.103  0.00  0.00    +0.000 NA
ATOM     28  C   UNL     1       5.211   4.120  18.562  0.00  0.00    +0.000 C 
ATOM     29  C   UNL     1       4.700   3.819  17.125  0.00  0.00    +0.000 C 
ATOM     30  N   UNL     1       5.156   4.878  16.221  0.00  0.00    +0.000 N 
ATOM     31  C   UNL     1       4.887   6.250  16.661  0.00  0.00    +0.000 C 
ATOM     32  C   UNL     1       5.418   6.454  18.098  0.00  0.00    +0.000 C 
BRANCH  30  33
ATOM     33  C   UNL     1       5.725   4.608  14.995  0.00  0.00    +0.000 A 
ATOM     34  C   UNL     1       6.993   5.090  14.641  0.00  0.00    +0.000 A 
ATOM     35  C   UNL     1       7.553   4.829  13.385  0.00  0.00    +0.000 A 
ATOM     36  C   UNL     1       6.846   4.085  12.446  0.00  0.00    +0.000 A 
ATOM     37  C   UNL     1       5.587   3.593  12.770  0.00  0.00    +0.000 A 
ATOM     38  C   UNL     1       5.041   3.850  14.030  0.00  0.00    +0.000 A 
ENDBRANCH  30  33
ENDBRANCH  20  27
ENDBRANCH   1  20
TORSDOF 9
ENDMDL
