MODEL 1
REMARK VINA RESULT:      -7.6      0.000      0.000
REMARK  Name = 
REMARK  4 active torsions:
REMARK  status: ('A' for Active; 'I' for Inactive)
REMARK    1  A    between atoms: C_1  and  O_2
REMARK    2  A    between atoms: O_2  and  C_3
REMARK    3  A    between atoms: C_6  and  C_7
REMARK    4  A    between atoms: C_8  and  C_9
REMARK                            x       y       z     vdW  Elec       q    Type
REMARK                         _______ _______ _______ _____ _____    ______ ____
ROOT
ATOM      1  C   UNL     1       7.961   8.240  17.966  0.00  0.00    +0.000 C 
ATOM      2  C   UNL     1       8.531   9.244  18.302  0.00  0.00    +0.000 C 
ENDROOT
BRANCH   2   3
ATOM      3  C   UNL     1       9.173  10.455  18.739  0.00  0.00    +0.000 A 
ATOM      4  C   UNL     1       9.589  10.592  20.078  0.00  0.00    +0.000 A 
ATOM      5  C   UNL     1      10.189  11.779  20.527  0.00  0.00    +0.000 A 
ATOM      6  C   UNL     1      10.354  12.798  19.615  0.00  0.00    +0.000 A 
ATOM      7  C   UNL     1       9.955  12.667  18.307  0.00  0.00    +0.000 A 
ATOM      8  C   UNL     1       9.364  11.509  17.835  0.00  0.00    +0.000 A 
ATOM      9  O   UNL     1      10.205  13.788  17.576  0.00  0.00    +0.000 OA
ATOM     10  C   UNL     1      10.787  14.646  18.580  0.00  0.00    +0.000 C 
ATOM     11  O   UNL     1      10.902  14.017  19.873  0.00  0.00    +0.000 OA
ENDBRANCH   2   3
BRANCH   1  15
ATOM     12  C   UNL     1       5.754   4.735  17.018  0.00  0.00    +0.000 A 
ATOM     13  C   UNL     1       6.947   4.644  17.733  0.00  0.00    +0.000 A 
ATOM     14  C   UNL     1       7.685   5.800  18.028  0.00  0.00    +0.000 A 
ATOM     15  C   UNL     1       7.236   7.055  17.608  0.00  0.00    +0.000 A 
ATOM     16  C   UNL     1       6.056   7.143  16.868  0.00  0.00    +0.000 A 
ATOM     17  C   UNL     1       5.317   5.987  16.580  0.00  0.00    +0.000 A 
BRANCH  12  19
ATOM     18  C   UNL     1       3.591   3.758  17.168  0.00  0.00    +0.000 C 
ATOM     19  O   UNL     1       4.932   3.687  16.696  0.00  0.00    +0.000 OA
ENDBRANCH  12  19
ENDBRANCH   1  15
TORSDOF 3
ENDMDL
MODEL 2
REMARK VINA RESULT:      -7.5      0.515      1.219
REMARK  Name = 
REMARK  4 active torsions:
REMARK  status: ('A' for Active; 'I' for Inactive)
REMARK    1  A    between atoms: C_1  and  O_2
REMARK    2  A    between atoms: O_2  and  C_3
REMARK    3  A    between atoms: C_6  and  C_7
REMARK    4  A    between atoms: C_8  and  C_9
REMARK                            x       y       z     vdW  Elec       q    Type
REMARK                         _______ _______ _______ _____ _____    ______ ____
ROOT
ATOM      1  C   UNL     1       8.006   8.325  18.081  0.00  0.00    +0.000 C 
ATOM      2  C   UNL     1       8.645   9.293  18.401  0.00  0.00    +0.000 C 
ENDROOT
BRANCH   2   3
ATOM      3  C   UNL     1       9.405  10.434  18.835  0.00  0.00    +0.000 A 
ATOM      4  C   UNL     1       9.538  10.715  20.209  0.00  0.00    +0.000 A 
ATOM      5  C   UNL     1      10.250  11.842  20.647  0.00  0.00    +0.000 A 
ATOM      6  C   UNL     1      10.810  12.659  19.689  0.00  0.00    +0.000 A 
ATOM      7  C   UNL     1      10.688  12.385  18.348  0.00  0.00    +0.000 A 
ATOM      8  C   UNL     1       9.995  11.281  17.887  0.00  0.00    +0.000 A 
ATOM      9  O   UNL     1      11.309  13.316  17.573  0.00  0.00    +0.000 OA
ATOM     10  C   UNL     1      11.819  14.216  18.580  0.00  0.00    +0.000 C 
ATOM     11  O   UNL     1      11.521  13.794  19.927  0.00  0.00    +0.000 OA
ENDBRANCH   2   3
BRANCH   1  15
ATOM     12  C   UNL     1       5.799   4.854  17.015  0.00  0.00    +0.000 A 
ATOM     13  C   UNL     1       5.337   6.120  16.657  0.00  0.00    +0.000 A 
ATOM     14  C   UNL     1       6.057   7.266  17.027  0.00  0.00    +0.000 A 
ATOM     15  C   UNL     1       7.241   7.155  17.759  0.00  0.00    +0.000 A 
ATOM     16  C   UNL     1       7.688   5.889  18.142  0.00  0.00    +0.000 A 
ATOM     17  C   UNL     1       6.971   4.745  17.766  0.00  0.00    +0.000 A 
BRANCH  12  19
ATOM     18  C   UNL     1       3.911   3.424  17.229  0.00  0.00    +0.000 C 
ATOM     19  O   UNL     1       5.205   3.663  16.688  0.00  0.00    +0.000 OA
ENDBRANCH  12  19
ENDBRANCH   1  15
TORSDOF 3
ENDMDL
MODEL 3
REMARK VINA RESULT:      -7.4      1.203      8.505
REMARK  Name = 
REMARK  4 active torsions:
REMARK  status: ('A' for Active; 'I' for Inactive)
REMARK    1  A    between atoms: C_1  and  O_2
REMARK    2  A    between atoms: O_2  and  C_3
REMARK    3  A    between atoms: C_6  and  C_7
REMARK    4  A    between atoms: C_8  and  C_9
REMARK                            x       y       z     vdW  Elec       q    Type
REMARK                         _______ _______ _______ _____ _____    ______ ____
ROOT
ATOM      1  C   UNL     1       8.900   9.638  18.524  0.00  0.00    +0.000 C 
ATOM      2  C   UNL     1       8.326   8.624  18.225  0.00  0.00    +0.000 C 
ENDROOT
BRANCH   2   3
ATOM      3  C   UNL     1       7.686   7.383  17.879  0.00  0.00    +0.000 A 
ATOM      4  C   UNL     1       7.839   6.253  18.705  0.00  0.00    +0.000 A 
ATOM      5  C   UNL     1       7.246   5.027  18.365  0.00  0.00    +0.000 A 
ATOM      6  C   UNL     1       6.514   4.971  17.199  0.00  0.00    +0.000 A 
ATOM      7  C   UNL     1       6.358   6.073  16.392  0.00  0.00    +0.000 A 
ATOM      8  C   UNL     1       6.928   7.294  16.704  0.00  0.00    +0.000 A 
ATOM      9  O   UNL     1       5.605   5.803  15.291  0.00  0.00    +0.000 OA
ATOM     10  C   UNL     1       5.324   4.401  15.487  0.00  0.00    +0.000 C 
ATOM     11  O   UNL     1       5.882   3.871  16.708  0.00  0.00    +0.000 OA
ENDBRANCH   2   3
BRANCH   1  15
ATOM     12  C   UNL     1      11.176  13.047  19.645  0.00  0.00    +0.000 A 
ATOM     13  C   UNL     1      10.495  12.306  20.610  0.00  0.00    +0.000 A 
ATOM     14  C   UNL     1       9.727  11.193  20.236  0.00  0.00    +0.000 A 
ATOM     15  C   UNL     1       9.634  10.814  18.894  0.00  0.00    +0.000 A 
ATOM     16  C   UNL     1      10.293  11.572  17.925  0.00  0.00    +0.000 A 
ATOM     17  C   UNL     1      11.065  12.680  18.302  0.00  0.00    +0.000 A 
BRANCH  12  19
ATOM     18  C   UNL     1      11.674  15.324  19.175  0.00  0.00    +0.000 C 
ATOM     19  O   UNL     1      11.979  14.130  19.887  0.00  0.00    +0.000 OA
ENDBRANCH  12  19
ENDBRANCH   1  15
TORSDOF 3
ENDMDL
MODEL 4
REMARK VINA RESULT:      -7.3      1.380      8.453
REMARK  Name = 
REMARK  4 active torsions:
REMARK  status: ('A' for Active; 'I' for Inactive)
REMARK    1  A    between atoms: C_1  and  O_2
REMARK    2  A    between atoms: O_2  and  C_3
REMARK    3  A    between atoms: C_6  and  C_7
REMARK    4  A    between atoms: C_8  and  C_9
REMARK                            x       y       z     vdW  Elec       q    Type
REMARK                         _______ _______ _______ _____ _____    ______ ____
ROOT
ATOM      1  C   UNL     1       8.923  10.105  18.123  0.00  0.00    +0.000 C 
ATOM      2  C   UNL     1       8.375   9.035  18.079  0.00  0.00    +0.000 C 
ENDROOT
BRANCH   2   3
ATOM      3  C   UNL     1       7.718   7.761  17.973  0.00  0.00    +0.000 A 
ATOM      4  C   UNL     1       8.143   6.676  18.764  0.00  0.00    +0.000 A 
ATOM      5  C   UNL     1       7.533   5.418  18.650  0.00  0.00    +0.000 A 
ATOM      6  C   UNL     1       6.508   5.284  17.738  0.00  0.00    +0.000 A 
ATOM      7  C   UNL     1       6.086   6.341  16.967  0.00  0.00    +0.000 A 
ATOM      8  C   UNL     1       6.667   7.592  17.062  0.00  0.00    +0.000 A 
ATOM      9  O   UNL     1       5.068   5.995  16.132  0.00  0.00    +0.000 OA
ATOM     10  C   UNL     1       4.913   4.596  16.451  0.00  0.00    +0.000 C 
ATOM     11  O   UNL     1       5.812   4.142  17.485  0.00  0.00    +0.000 OA
ENDBRANCH   2   3
BRANCH   1  15
ATOM     12  C   UNL     1      10.866  13.881  17.967  0.00  0.00    +0.000 A 
ATOM     13  C   UNL     1      11.613  12.709  18.080  0.00  0.00    +0.000 A 
ATOM     14  C   UNL     1      10.969  11.464  18.152  0.00  0.00    +0.000 A 
ATOM     15  C   UNL     1       9.575  11.383  18.113  0.00  0.00    +0.000 A 
ATOM     16  C   UNL     1       8.827  12.559  18.029  0.00  0.00    +0.000 A 
ATOM     17  C   UNL     1       9.472  13.801  17.950  0.00  0.00    +0.000 A 
BRANCH  12  19
ATOM     18  C   UNL     1      10.907  15.935  16.770  0.00  0.00    +0.000 C 
ATOM     19  O   UNL     1      11.377  15.148  17.858  0.00  0.00    +0.000 OA
ENDBRANCH  12  19
ENDBRANCH   1  15
TORSDOF 3
ENDMDL
MODEL 5
REMARK VINA RESULT:      -7.3      1.236      8.498
REMARK  Name = 
REMARK  4 active torsions:
REMARK  status: ('A' for Active; 'I' for Inactive)
REMARK    1  A    between atoms: C_1  and  O_2
REMARK    2  A    between atoms: O_2  and  C_3
REMARK    3  A    between atoms: C_6  and  C_7
REMARK    4  A    between atoms: C_8  and  C_9
REMARK                            x       y       z     vdW  Elec       q    Type
REMARK                         _______ _______ _______ _____ _____    ______ ____
ROOT
ATOM      1  C   UNL     1       8.857   9.567  18.656  0.00  0.00    +0.000 C 
ATOM      2  C   UNL     1       8.308   8.550  18.323  0.00  0.00    +0.000 C 
ENDROOT
BRANCH   2   3
ATOM      3  C   UNL     1       7.700   7.315  17.909  0.00  0.00    +0.000 A 
ATOM      4  C   UNL     1       7.856   6.151  18.687  0.00  0.00    +0.000 A 
ATOM      5  C   UNL     1       7.295   4.932  18.280  0.00  0.00    +0.000 A 
ATOM      6  C   UNL     1       6.590   4.914  17.096  0.00  0.00    +0.000 A 
ATOM      7  C   UNL     1       6.430   6.048  16.336  0.00  0.00    +0.000 A 
ATOM      8  C   UNL     1       6.969   7.264  16.714  0.00  0.00    +0.000 A 
ATOM      9  O   UNL     1       5.706   5.814  15.207  0.00  0.00    +0.000 OA
ATOM     10  C   UNL     1       5.447   4.400  15.334  0.00  0.00    +0.000 C 
ATOM     11  O   UNL     1       5.990   3.826  16.542  0.00  0.00    +0.000 OA
ENDBRANCH   2   3
BRANCH   1  15
ATOM     12  C   UNL     1      10.850  13.157  19.752  0.00  0.00    +0.000 A 
ATOM     13  C   UNL     1      10.782  12.769  18.415  0.00  0.00    +0.000 A 
ATOM     14  C   UNL     1      10.141  11.574  18.057  0.00  0.00    +0.000 A 
ATOM     15  C   UNL     1       9.566  10.756  19.033  0.00  0.00    +0.000 A 
ATOM     16  C   UNL     1       9.660  11.130  20.375  0.00  0.00    +0.000 A 
ATOM     17  C   UNL     1      10.295  12.328  20.730  0.00  0.00    +0.000 A 
BRANCH  12  19
ATOM     18  C   UNL     1      10.661  15.058  21.169  0.00  0.00    +0.000 C 
ATOM     19  O   UNL     1      11.419  14.311  20.223  0.00  0.00    +0.000 OA
ENDBRANCH  12  19
ENDBRANCH   1  15
TORSDOF 3
ENDMDL
MODEL 6
REMARK VINA RESULT:      -7.3      0.845      1.489
REMARK  Name = 
REMARK  4 active torsions:
REMARK  status: ('A' for Active; 'I' for Inactive)
REMARK    1  A    between atoms: C_1  and  O_2
REMARK    2  A    between atoms: O_2  and  C_3
REMARK    3  A    between atoms: C_6  and  C_7
REMARK    4  A    between atoms: C_8  and  C_9
REMARK                            x       y       z     vdW  Elec       q    Type
REMARK                         _______ _______ _______ _____ _____    ______ ____
ROOT
ATOM      1  C   UNL     1       7.775   8.241  17.785  0.00  0.00    +0.000 C 
ATOM      2  C   UNL     1       8.312   9.295  18.001  0.00  0.00    +0.000 C 
ENDROOT
BRANCH   2   3
ATOM      3  C   UNL     1       8.905  10.578  18.266  0.00  0.00    +0.000 A 
ATOM      4  C   UNL     1       8.414  11.732  17.624  0.00  0.00    +0.000 A 
ATOM      5  C   UNL     1       9.002  12.985  17.848  0.00  0.00    +0.000 A 
ATOM      6  C   UNL     1      10.072  13.046  18.714  0.00  0.00    +0.000 A 
ATOM      7  C   UNL     1      10.551  11.924  19.347  0.00  0.00    +0.000 A 
ATOM      8  C   UNL     1       9.990  10.676  19.148  0.00  0.00    +0.000 A 
ATOM      9  O   UNL     1      11.612  12.201  20.154  0.00  0.00    +0.000 OA
ATOM     10  C   UNL     1      11.758  13.621  19.940  0.00  0.00    +0.000 C 
ATOM     11  O   UNL     1      10.770  14.167  19.041  0.00  0.00    +0.000 OA
ENDBRANCH   2   3
BRANCH   1  15
ATOM     12  C   UNL     1       5.655   4.611  17.156  0.00  0.00    +0.000 A 
ATOM     13  C   UNL     1       6.860   4.612  17.859  0.00  0.00    +0.000 A 
ATOM     14  C   UNL     1       7.568   5.807  18.048  0.00  0.00    +0.000 A 
ATOM     15  C   UNL     1       7.079   7.011  17.534  0.00  0.00    +0.000 A 
ATOM     16  C   UNL     1       5.888   7.007  16.807  0.00  0.00    +0.000 A 
ATOM     17  C   UNL     1       5.178   5.811  16.624  0.00  0.00    +0.000 A 
BRANCH  12  19
ATOM     18  C   UNL     1       3.934   3.182  17.960  0.00  0.00    +0.000 C 
ATOM     19  O   UNL     1       4.859   3.519  16.933  0.00  0.00    +0.000 OA
ENDBRANCH  12  19
ENDBRANCH   1  15
TORSDOF 3
ENDMDL
MODEL 7
REMARK VINA RESULT:      -7.2      1.151      8.562
REMARK  Name = 
REMARK  4 active torsions:
REMARK  status: ('A' for Active; 'I' for Inactive)
REMARK    1  A    between atoms: C_1  and  O_2
REMARK    2  A    between atoms: O_2  and  C_3
REMARK    3  A    between atoms: C_6  and  C_7
REMARK    4  A    between atoms: C_8  and  C_9
REMARK                            x       y       z     vdW  Elec       q    Type
REMARK                         _______ _______ _______ _____ _____    ______ ____
ROOT
ATOM      1  C   UNL     1       8.807   9.955  18.236  0.00  0.00    +0.000 C 
ATOM      2  C   UNL     1       8.260   8.892  18.102  0.00  0.00    +0.000 C 
ENDROOT
BRANCH   2   3
ATOM      3  C   UNL     1       7.651   7.602  17.918  0.00  0.00    +0.000 A 
ATOM      4  C   UNL     1       8.057   6.509  18.708  0.00  0.00    +0.000 A 
ATOM      5  C   UNL     1       7.494   5.237  18.519  0.00  0.00    +0.000 A 
ATOM      6  C   UNL     1       6.538   5.099  17.538  0.00  0.00    +0.000 A 
ATOM      7  C   UNL     1       6.135   6.164  16.768  0.00  0.00    +0.000 A 
ATOM      8  C   UNL     1       6.669   7.429  16.934  0.00  0.00    +0.000 A 
ATOM      9  O   UNL     1       5.186   5.813  15.857  0.00  0.00    +0.000 OA
ATOM     10  C   UNL     1       5.054   4.401  16.128  0.00  0.00    +0.000 C 
ATOM     11  O   UNL     1       5.896   3.945  17.208  0.00  0.00    +0.000 OA
ENDBRANCH   2   3
BRANCH   1  15
ATOM     12  C   UNL     1      10.813  13.669  18.726  0.00  0.00    +0.000 A 
ATOM     13  C   UNL     1       9.663  13.588  17.942  0.00  0.00    +0.000 A 
ATOM     14  C   UNL     1       9.014  12.357  17.765  0.00  0.00    +0.000 A 
ATOM     15  C   UNL     1       9.510  11.199  18.368  0.00  0.00    +0.000 A 
ATOM     16  C   UNL     1      10.678  11.275  19.130  0.00  0.00    +0.000 A 
ATOM     17  C   UNL     1      11.321  12.507  19.311  0.00  0.00    +0.000 A 
BRANCH  12  19
ATOM     18  C   UNL     1      10.808  16.042  18.882  0.00  0.00    +0.000 C 
ATOM     19  O   UNL     1      11.516  14.813  18.999  0.00  0.00    +0.000 OA
ENDBRANCH  12  19
ENDBRANCH   1  15
TORSDOF 3
ENDMDL
MODEL 8
REMARK VINA RESULT:      -7.2      0.859      1.847
REMARK  Name = 
REMARK  4 active torsions:
REMARK  status: ('A' for Active; 'I' for Inactive)
REMARK    1  A    between atoms: C_1  and  O_2
REMARK    2  A    between atoms: O_2  and  C_3
REMARK    3  A    between atoms: C_6  and  C_7
REMARK    4  A    between atoms: C_8  and  C_9
REMARK                            x       y       z     vdW  Elec       q    Type
REMARK                         _______ _______ _______ _____ _____    ______ ____
ROOT
ATOM      1  C   UNL     1       7.804   8.374  17.810  0.00  0.00    +0.000 C 
ATOM      2  C   UNL     1       8.366   9.419  18.002  0.00  0.00    +0.000 C 
ENDROOT
BRANCH   2   3
ATOM      3  C   UNL     1       8.995  10.687  18.258  0.00  0.00    +0.000 A 
ATOM      4  C   UNL     1       8.502  11.858  17.649  0.00  0.00    +0.000 A 
ATOM      5  C   UNL     1       9.123  13.097  17.865  0.00  0.00    +0.000 A 
ATOM      6  C   UNL     1      10.227  13.126  18.688  0.00  0.00    +0.000 A 
ATOM      7  C   UNL     1      10.709  11.987  19.288  0.00  0.00    +0.000 A 
ATOM      8  C   UNL     1      10.115  10.753  19.097  0.00  0.00    +0.000 A 
ATOM      9  O   UNL     1      11.806  12.234  20.056  0.00  0.00    +0.000 OA
ATOM     10  C   UNL     1      11.971  13.653  19.853  0.00  0.00    +0.000 C 
ATOM     11  O   UNL     1      10.959  14.230  19.000  0.00  0.00    +0.000 OA
ENDBRANCH   2   3
BRANCH   1  15
ATOM     12  C   UNL     1       5.726   4.733  17.108  0.00  0.00    +0.000 A 
ATOM     13  C   UNL     1       5.200   5.943  16.657  0.00  0.00    +0.000 A 
ATOM     14  C   UNL     1       5.877   7.146  16.907  0.00  0.00    +0.000 A 
ATOM     15  C   UNL     1       7.083   7.149  17.612  0.00  0.00    +0.000 A 
ATOM     16  C   UNL     1       7.596   5.941  18.088  0.00  0.00    +0.000 A 
ATOM     17  C   UNL     1       6.921   4.739  17.832  0.00  0.00    +0.000 A 
BRANCH  12  19
ATOM     18  C   UNL     1       3.942   3.226  17.554  0.00  0.00    +0.000 C 
ATOM     19  O   UNL     1       5.178   3.495  16.901  0.00  0.00    +0.000 OA
ENDBRANCH  12  19
ENDBRANCH   1  15
TORSDOF 3
ENDMDL
MODEL 9
REMARK VINA RESULT:      -7.2      1.075      1.121
REMARK  Name = 
REMARK  4 active torsions:
REMARK  status: ('A' for Active; 'I' for Inactive)
REMARK    1  A    between atoms: C_1  and  O_2
REMARK    2  A    between atoms: O_2  and  C_3
REMARK    3  A    between atoms: C_6  and  C_7
REMARK    4  A    between atoms: C_8  and  C_9
REMARK                            x       y       z     vdW  Elec       q    Type
REMARK                         _______ _______ _______ _____ _____    ______ ____
ROOT
ATOM      1  C   UNL     1       8.208   8.853  18.048  0.00  0.00    +0.000 C 
ATOM      2  C   UNL     1       8.788   9.899  18.178  0.00  0.00    +0.000 C 
ENDROOT
BRANCH   2   3
ATOM      3  C   UNL     1       9.518  11.133  18.296  0.00  0.00    +0.000 A 
ATOM      4  C   UNL     1      10.837  11.131  18.788  0.00  0.00    +0.000 A 
ATOM      5  C   UNL     1      11.551  12.329  18.938  0.00  0.00    +0.000 A 
ATOM      6  C   UNL     1      10.917  13.501  18.590  0.00  0.00    +0.000 A 
ATOM      7  C   UNL     1       9.631  13.508  18.104  0.00  0.00    +0.000 A 
ATOM      8  C   UNL     1       8.905  12.342  17.942  0.00  0.00    +0.000 A 
ATOM      9  O   UNL     1       9.191  14.766  17.825  0.00  0.00    +0.000 OA
ATOM     10  C   UNL     1      10.340  15.550  18.211  0.00  0.00    +0.000 C 
ATOM     11  O   UNL     1      11.447  14.751  18.679  0.00  0.00    +0.000 OA
ENDBRANCH   2   3
BRANCH   1  15
ATOM     12  C   UNL     1       6.211   5.133  17.567  0.00  0.00    +0.000 A 
ATOM     13  C   UNL     1       7.300   5.242  18.432  0.00  0.00    +0.000 A 
ATOM     14  C   UNL     1       7.970   6.466  18.575  0.00  0.00    +0.000 A 
ATOM     15  C   UNL     1       7.559   7.589  17.852  0.00  0.00    +0.000 A 
ATOM     16  C   UNL     1       6.488   7.472  16.965  0.00  0.00    +0.000 A 
ATOM     17  C   UNL     1       5.815   6.250  16.829  0.00  0.00    +0.000 A 
BRANCH  12  19
ATOM     18  C   UNL     1       4.047   4.153  17.467  0.00  0.00    +0.000 C 
ATOM     19  O   UNL     1       5.459   4.006  17.366  0.00  0.00    +0.000 OA
ENDBRANCH  12  19
ENDBRANCH   1  15
TORSDOF 3
ENDMDL
