MODEL 1
REMARK VINA RESULT:      -7.5      0.000      0.000
REMARK  Name = 
REMARK  5 active torsions:
REMARK  status: ('A' for Active; 'I' for Inactive)
REMARK    1  A    between atoms: C_1  and  O_2
REMARK    2  A    between atoms: O_2  and  C_3
REMARK    3  A    between atoms: C_3  and  C_5
REMARK    4  A    between atoms: C_15  and  C_16
REMARK    5  A    between atoms: C_19  and  C_20
REMARK                            x       y       z     vdW  Elec       q    Type
REMARK                         _______ _______ _______ _____ _____    ______ ____
ROOT
ATOM      1  C   UNL     1       3.836   4.547  19.493  0.00  0.00    +0.000 C 
ATOM      2  C   UNL     1       3.024   5.708  18.667  0.00  0.00    +0.000 C 
ATOM      3  C   UNL     1       1.817   5.113  17.861  0.00  0.00    +0.000 C 
ATOM      4  C   UNL     1       1.327   4.006  18.781  0.00  0.00    +0.000 C 
ATOM      5  C   UNL     1       1.075   2.529  18.954  0.00  0.00    +0.000 C 
ATOM      6  C   UNL     1       2.197   2.243  20.026  0.00  0.00    +0.000 C 
ATOM      7  C   UNL     1       2.855   3.637  20.390  0.00  0.00    +0.000 C 
ATOM      8  N   UNL     1       1.568   4.318  20.235  0.00  0.00    +0.000 NA
ATOM      9  C   UNL     1       1.617   5.707  20.676  0.00  0.00    +0.000 C 
ATOM     10  C   UNL     1       2.298   6.584  19.677  0.00  0.00    +0.000 C 
ATOM     11  C   UNL     1       2.105   7.908  19.540  0.00  0.00    +0.000 C 
ENDROOT
BRANCH  11  12
ATOM     12  C   UNL     1       1.326   8.680  20.462  0.00  0.00    +0.000 A 
ATOM     13  C   UNL     1       1.192   8.553  21.835  0.00  0.00    +0.000 A 
ATOM     14  C   UNL     1       0.305   9.502  22.415  0.00  0.00    +0.000 A 
ATOM     15  C   UNL     1      -0.211  10.368  21.480  0.00  0.00    +0.000 A 
ATOM     16  C   UNL     1      -1.161  11.495  21.708  0.00  0.00    +0.000 C 
ATOM     17  S   UNL     1       0.380  10.016  19.911  0.00  0.00    +0.000 S 
ENDBRANCH  11  12
BRANCH   1  18
ATOM     18  C   UNL     1       4.806   3.842  18.563  0.00  0.00    +0.000 C 
ATOM     19  O   UNL     1       4.430   3.192  17.595  0.00  0.00    +0.000 OA
BRANCH  18  21
ATOM     20  C   UNL     1       6.848   4.748  17.837  0.00  0.00    +0.000 C 
ATOM     21  O   UNL     1       6.103   4.086  18.871  0.00  0.00    +0.000 OA
ENDBRANCH  18  21
ENDBRANCH   1  18
TORSDOF 3
ENDMDL
MODEL 2
REMARK VINA RESULT:      -7.2      0.923      1.015
REMARK  Name = 
REMARK  5 active torsions:
REMARK  status: ('A' for Active; 'I' for Inactive)
REMARK    1  A    between atoms: C_1  and  O_2
REMARK    2  A    between atoms: O_2  and  C_3
REMARK    3  A    between atoms: C_3  and  C_5
REMARK    4  A    between atoms: C_15  and  C_16
REMARK    5  A    between atoms: C_19  and  C_20
REMARK                            x       y       z     vdW  Elec       q    Type
REMARK                         _______ _______ _______ _____ _____    ______ ____
ROOT
ATOM      1  C   UNL     1       3.738   4.608  19.859  0.00  0.00    +0.000 C 
ATOM      2  C   UNL     1       3.086   5.570  18.702  0.00  0.00    +0.000 C 
ATOM      3  C   UNL     1       1.945   4.840  17.912  0.00  0.00    +0.000 C 
ATOM      4  C   UNL     1       1.298   3.988  18.992  0.00  0.00    +0.000 C 
ATOM      5  C   UNL     1       0.948   2.597  19.461  0.00  0.00    +0.000 C 
ATOM      6  C   UNL     1       1.928   2.533  20.696  0.00  0.00    +0.000 C 
ATOM      7  C   UNL     1       2.616   3.955  20.814  0.00  0.00    +0.000 C 
ATOM      8  N   UNL     1       1.393   4.618  20.357  0.00  0.00    +0.000 NA
ATOM      9  C   UNL     1       1.468   6.069  20.477  0.00  0.00    +0.000 C 
ATOM     10  C   UNL     1       2.301   6.674  19.395  0.00  0.00    +0.000 C 
ATOM     11  C   UNL     1       2.197   7.936  18.942  0.00  0.00    +0.000 C 
ENDROOT
BRANCH  11  12
ATOM     12  C   UNL     1       1.364   8.921  19.567  0.00  0.00    +0.000 A 
ATOM     13  C   UNL     1       1.151   9.181  20.911  0.00  0.00    +0.000 A 
ATOM     14  C   UNL     1       0.230  10.236  21.153  0.00  0.00    +0.000 A 
ATOM     15  C   UNL     1      -0.234  10.796  19.985  0.00  0.00    +0.000 A 
ATOM     16  C   UNL     1      -1.199  11.924  19.837  0.00  0.00    +0.000 C 
ATOM     17  S   UNL     1       0.447  10.031  18.612  0.00  0.00    +0.000 S 
ENDBRANCH  11  12
BRANCH   1  18
ATOM     18  C   UNL     1       4.765   3.682  19.235  0.00  0.00    +0.000 C 
ATOM     19  O   UNL     1       5.044   2.592  19.719  0.00  0.00    +0.000 OA
BRANCH  18  21
ATOM     20  C   UNL     1       6.560   4.749  18.159  0.00  0.00    +0.000 C 
ATOM     21  O   UNL     1       5.257   4.154  18.064  0.00  0.00    +0.000 OA
ENDBRANCH  18  21
ENDBRANCH   1  18
TORSDOF 3
ENDMDL
MODEL 3
REMARK VINA RESULT:      -7.2      0.894      1.117
REMARK  Name = 
REMARK  5 active torsions:
REMARK  status: ('A' for Active; 'I' for Inactive)
REMARK    1  A    between atoms: C_1  and  O_2
REMARK    2  A    between atoms: O_2  and  C_3
REMARK    3  A    between atoms: C_3  and  C_5
REMARK    4  A    between atoms: C_15  and  C_16
REMARK    5  A    between atoms: C_19  and  C_20
REMARK                            x       y       z     vdW  Elec       q    Type
REMARK                         _______ _______ _______ _____ _____    ______ ____
ROOT
ATOM      1  C   UNL     1       3.940   4.962  19.716  0.00  0.00    +0.000 C 
ATOM      2  C   UNL     1       3.173   5.981  18.684  0.00  0.00    +0.000 C 
ATOM      3  C   UNL     1       2.104   5.233  17.815  0.00  0.00    +0.000 C 
ATOM      4  C   UNL     1       1.566   4.194  18.786  0.00  0.00    +0.000 C 
ATOM      5  C   UNL     1       1.372   2.728  19.085  0.00  0.00    +0.000 C 
ATOM      6  C   UNL     1       2.371   2.622  20.302  0.00  0.00    +0.000 C 
ATOM      7  C   UNL     1       2.908   4.084  20.588  0.00  0.00    +0.000 C 
ATOM      8  N   UNL     1       1.615   4.663  20.217  0.00  0.00    +0.000 NA
ATOM      9  C   UNL     1       1.539   6.089  20.511  0.00  0.00    +0.000 C 
ATOM     10  C   UNL     1       2.287   6.904  19.507  0.00  0.00    +0.000 C 
ATOM     11  C   UNL     1       2.044   8.193  19.210  0.00  0.00    +0.000 C 
ENDROOT
BRANCH  11  12
ATOM     12  C   UNL     1       1.122   9.002  19.951  0.00  0.00    +0.000 A 
ATOM     13  C   UNL     1       0.170   9.903  19.502  0.00  0.00    +0.000 A 
ATOM     14  C   UNL     1      -0.554  10.540  20.547  0.00  0.00    +0.000 A 
ATOM     15  C   UNL     1      -0.168  10.098  21.790  0.00  0.00    +0.000 A 
ATOM     16  C   UNL     1      -0.703  10.524  23.115  0.00  0.00    +0.000 C 
ATOM     17  S   UNL     1       1.072   8.921  21.676  0.00  0.00    +0.000 S 
ENDBRANCH  11  12
BRANCH   1  18
ATOM     18  C   UNL     1       5.049   4.232  18.982  0.00  0.00    +0.000 C 
ATOM     19  O   UNL     1       4.829   3.491  18.032  0.00  0.00    +0.000 OA
BRANCH  18  21
ATOM     20  C   UNL     1       7.063   5.352  18.527  0.00  0.00    +0.000 C 
ATOM     21  O   UNL     1       6.284   4.558  19.435  0.00  0.00    +0.000 OA
ENDBRANCH  18  21
ENDBRANCH   1  18
TORSDOF 3
ENDMDL
MODEL 4
REMARK VINA RESULT:      -7.1      4.603      6.205
REMARK  Name = 
REMARK  5 active torsions:
REMARK  status: ('A' for Active; 'I' for Inactive)
REMARK    1  A    between atoms: C_1  and  O_2
REMARK    2  A    between atoms: O_2  and  C_3
REMARK    3  A    between atoms: C_3  and  C_5
REMARK    4  A    between atoms: C_15  and  C_16
REMARK    5  A    between atoms: C_19  and  C_20
REMARK                            x       y       z     vdW  Elec       q    Type
REMARK                         _______ _______ _______ _____ _____    ______ ____
ROOT
ATOM      1  C   UNL     1       5.676   5.269  15.464  0.00  0.00    +0.000 C 
ATOM      2  C   UNL     1       5.798   3.930  16.404  0.00  0.00    +0.000 C 
ATOM      3  C   UNL     1       6.963   4.056  17.446  0.00  0.00    +0.000 C 
ATOM      4  C   UNL     1       6.922   5.534  17.802  0.00  0.00    +0.000 C 
ATOM      5  C   UNL     1       7.662   6.849  17.819  0.00  0.00    +0.000 C 
ATOM      6  C   UNL     1       6.796   7.596  16.732  0.00  0.00    +0.000 C 
ATOM      7  C   UNL     1       5.611   6.623  16.334  0.00  0.00    +0.000 C 
ATOM      8  N   UNL     1       5.534   6.111  17.704  0.00  0.00    +0.000 NA
ATOM      9  C   UNL     1       4.378   5.247  17.910  0.00  0.00    +0.000 C 
ATOM     10  C   UNL     1       4.587   3.889  17.324  0.00  0.00    +0.000 C 
ATOM     11  C   UNL     1       3.970   2.762  17.723  0.00  0.00    +0.000 C 
ENDROOT
BRANCH  11  12
ATOM     12  C   UNL     1       2.896   2.758  18.671  0.00  0.00    +0.000 A 
ATOM     13  C   UNL     1       1.530   2.868  18.468  0.00  0.00    +0.000 A 
ATOM     14  C   UNL     1       0.768   2.842  19.668  0.00  0.00    +0.000 A 
ATOM     15  C   UNL     1       1.559   2.681  20.781  0.00  0.00    +0.000 A 
ATOM     16  C   UNL     1       1.121   2.598  22.205  0.00  0.00    +0.000 C 
ATOM     17  S   UNL     1       3.215   2.572  20.360  0.00  0.00    +0.000 S 
ENDBRANCH  11  12
BRANCH   1  18
ATOM     18  C   UNL     1       6.689   5.196  14.337  0.00  0.00    +0.000 C 
ATOM     19  O   UNL     1       7.829   5.630  14.452  0.00  0.00    +0.000 OA
BRANCH  18  21
ATOM     20  C   UNL     1       7.238   4.123  12.321  0.00  0.00    +0.000 C 
ATOM     21  O   UNL     1       6.223   4.533  13.251  0.00  0.00    +0.000 OA
ENDBRANCH  18  21
ENDBRANCH   1  18
TORSDOF 3
ENDMDL
MODEL 5
REMARK VINA RESULT:      -7.0      1.732      2.030
REMARK  Name = 
REMARK  5 active torsions:
REMARK  status: ('A' for Active; 'I' for Inactive)
REMARK    1  A    between atoms: C_1  and  O_2
REMARK    2  A    between atoms: O_2  and  C_3
REMARK    3  A    between atoms: C_3  and  C_5
REMARK    4  A    between atoms: C_15  and  C_16
REMARK    5  A    between atoms: C_19  and  C_20
REMARK                            x       y       z     vdW  Elec       q    Type
REMARK                         _______ _______ _______ _____ _____    ______ ____
ROOT
ATOM      1  C   UNL     1       3.933   5.305  19.448  0.00  0.00    +0.000 C 
ATOM      2  C   UNL     1       3.116   5.887  18.149  0.00  0.00    +0.000 C 
ATOM      3  C   UNL     1       1.820   5.054  17.857  0.00  0.00    +0.000 C 
ATOM      4  C   UNL     1       1.351   4.683  19.255  0.00  0.00    +0.000 C 
ATOM      5  C   UNL     1       1.040   3.573  20.227  0.00  0.00    +0.000 C 
ATOM      6  C   UNL     1       2.229   3.826  21.233  0.00  0.00    +0.000 C 
ATOM      7  C   UNL     1       2.984   5.128  20.737  0.00  0.00    +0.000 C 
ATOM      8  N   UNL     1       1.724   5.720  20.282  0.00  0.00    +0.000 NA
ATOM      9  C   UNL     1       1.879   7.112  19.877  0.00  0.00    +0.000 C 
ATOM     10  C   UNL     1       2.520   7.232  18.533  0.00  0.00    +0.000 C 
ATOM     11  C   UNL     1       2.383   8.274  17.693  0.00  0.00    +0.000 C 
ENDROOT
BRANCH  11  12
ATOM     12  C   UNL     1       1.722   9.490  18.062  0.00  0.00    +0.000 A 
ATOM     13  C   UNL     1       2.255  10.722  18.408  0.00  0.00    +0.000 A 
ATOM     14  C   UNL     1       1.275  11.699  18.737  0.00  0.00    +0.000 A 
ATOM     15  C   UNL     1      -0.005  11.212  18.611  0.00  0.00    +0.000 A 
ATOM     16  C   UNL     1      -1.284  11.938  18.858  0.00  0.00    +0.000 C 
ATOM     17  S   UNL     1      -0.003   9.575  18.104  0.00  0.00    +0.000 S 
ENDBRANCH  11  12
BRANCH   1  18
ATOM     18  C   UNL     1       4.788   4.125  19.027  0.00  0.00    +0.000 C 
ATOM     19  O   UNL     1       4.304   3.091  18.582  0.00  0.00    +0.000 OA
BRANCH  18  21
ATOM     20  C   UNL     1       6.746   4.712  17.870  0.00  0.00    +0.000 C 
ATOM     21  O   UNL     1       6.116   4.377  19.116  0.00  0.00    +0.000 OA
ENDBRANCH  18  21
ENDBRANCH   1  18
TORSDOF 3
ENDMDL
MODEL 6
REMARK VINA RESULT:      -7.0      1.676      1.885
REMARK  Name = 
REMARK  5 active torsions:
REMARK  status: ('A' for Active; 'I' for Inactive)
REMARK    1  A    between atoms: C_1  and  O_2
REMARK    2  A    between atoms: O_2  and  C_3
REMARK    3  A    between atoms: C_3  and  C_5
REMARK    4  A    between atoms: C_15  and  C_16
REMARK    5  A    between atoms: C_19  and  C_20
REMARK                            x       y       z     vdW  Elec       q    Type
REMARK                         _______ _______ _______ _____ _____    ______ ____
ROOT
ATOM      1  C   UNL     1       3.913   4.964  19.544  0.00  0.00    +0.000 C 
ATOM      2  C   UNL     1       3.085   5.606  18.282  0.00  0.00    +0.000 C 
ATOM      3  C   UNL     1       1.798   4.775  17.947  0.00  0.00    +0.000 C 
ATOM      4  C   UNL     1       1.339   4.321  19.324  0.00  0.00    +0.000 C 
ATOM      5  C   UNL     1       1.044   3.154  20.234  0.00  0.00    +0.000 C 
ATOM      6  C   UNL     1       2.233   3.367  21.249  0.00  0.00    +0.000 C 
ATOM      7  C   UNL     1       2.970   4.703  20.824  0.00  0.00    +0.000 C 
ATOM      8  N   UNL     1       1.702   5.304  20.406  0.00  0.00    +0.000 NA
ATOM      9  C   UNL     1       1.838   6.718  20.078  0.00  0.00    +0.000 C 
ATOM     10  C   UNL     1       2.473   6.921  18.741  0.00  0.00    +0.000 C 
ATOM     11  C   UNL     1       2.320   8.006  17.961  0.00  0.00    +0.000 C 
ENDROOT
BRANCH  11  12
ATOM     12  C   UNL     1       1.645   9.191  18.400  0.00  0.00    +0.000 A 
ATOM     13  C   UNL     1       0.476   9.330  19.130  0.00  0.00    +0.000 A 
ATOM     14  C   UNL     1       0.101  10.681  19.362  0.00  0.00    +0.000 A 
ATOM     15  C   UNL     1       1.005  11.569  18.828  0.00  0.00    +0.000 A 
ATOM     16  C   UNL     1       0.956  13.059  18.876  0.00  0.00    +0.000 C 
ATOM     17  S   UNL     1       2.294  10.754  18.047  0.00  0.00    +0.000 S 
ENDBRANCH  11  12
BRANCH   1  18
ATOM     18  C   UNL     1       4.781   3.820  19.056  0.00  0.00    +0.000 C 
ATOM     19  O   UNL     1       4.372   2.667  18.995  0.00  0.00    +0.000 OA
BRANCH  18  21
ATOM     20  C   UNL     1       6.524   5.375  19.312  0.00  0.00    +0.000 C 
ATOM     21  O   UNL     1       5.998   4.229  18.623  0.00  0.00    +0.000 OA
ENDBRANCH  18  21
ENDBRANCH   1  18
TORSDOF 3
ENDMDL
MODEL 7
REMARK VINA RESULT:      -7.0      1.152      1.501
REMARK  Name = 
REMARK  5 active torsions:
REMARK  status: ('A' for Active; 'I' for Inactive)
REMARK    1  A    between atoms: C_1  and  O_2
REMARK    2  A    between atoms: O_2  and  C_3
REMARK    3  A    between atoms: C_3  and  C_5
REMARK    4  A    between atoms: C_15  and  C_16
REMARK    5  A    between atoms: C_19  and  C_20
REMARK                            x       y       z     vdW  Elec       q    Type
REMARK                         _______ _______ _______ _____ _____    ______ ____
ROOT
ATOM      1  C   UNL     1       3.613   4.492  19.989  0.00  0.00    +0.000 C 
ATOM      2  C   UNL     1       3.008   5.452  18.804  0.00  0.00    +0.000 C 
ATOM      3  C   UNL     1       1.843   4.749  18.024  0.00  0.00    +0.000 C 
ATOM      4  C   UNL     1       1.155   3.950  19.120  0.00  0.00    +0.000 C 
ATOM      5  C   UNL     1       0.747   2.587  19.620  0.00  0.00    +0.000 C 
ATOM      6  C   UNL     1       1.715   2.514  20.864  0.00  0.00    +0.000 C 
ATOM      7  C   UNL     1       2.460   3.910  20.952  0.00  0.00    +0.000 C 
ATOM      8  N   UNL     1       1.267   4.610  20.469  0.00  0.00    +0.000 NA
ATOM      9  C   UNL     1       1.401   6.059  20.555  0.00  0.00    +0.000 C 
ATOM     10  C   UNL     1       2.265   6.603  19.464  0.00  0.00    +0.000 C 
ATOM     11  C   UNL     1       2.214   7.857  18.980  0.00  0.00    +0.000 C 
ENDROOT
BRANCH  11  12
ATOM     12  C   UNL     1       1.418   8.889  19.575  0.00  0.00    +0.000 A 
ATOM     13  C   UNL     1       1.187   9.175  20.910  0.00  0.00    +0.000 A 
ATOM     14  C   UNL     1       0.316  10.279  21.119  0.00  0.00    +0.000 A 
ATOM     15  C   UNL     1      -0.091  10.848  19.935  0.00  0.00    +0.000 A 
ATOM     16  C   UNL     1      -0.993  12.022  19.752  0.00  0.00    +0.000 C 
ATOM     17  S   UNL     1       0.582  10.034  18.587  0.00  0.00    +0.000 S 
ENDBRANCH  11  12
BRANCH   1  18
ATOM     18  C   UNL     1       4.605   3.511  19.395  0.00  0.00    +0.000 C 
ATOM     19  O   UNL     1       5.710   3.857  18.995  0.00  0.00    +0.000 OA
BRANCH  18  21
ATOM     20  C   UNL     1       3.902   1.642  18.157  0.00  0.00    +0.000 C 
ATOM     21  O   UNL     1       4.170   2.229  19.441  0.00  0.00    +0.000 OA
ENDBRANCH  18  21
ENDBRANCH   1  18
TORSDOF 3
ENDMDL
MODEL 8
REMARK VINA RESULT:      -6.9      3.814      5.457
REMARK  Name = 
REMARK  5 active torsions:
REMARK  status: ('A' for Active; 'I' for Inactive)
REMARK    1  A    between atoms: C_1  and  O_2
REMARK    2  A    between atoms: O_2  and  C_3
REMARK    3  A    between atoms: C_3  and  C_5
REMARK    4  A    between atoms: C_15  and  C_16
REMARK    5  A    between atoms: C_19  and  C_20
REMARK                            x       y       z     vdW  Elec       q    Type
REMARK                         _______ _______ _______ _____ _____    ______ ____
ROOT
ATOM      1  C   UNL     1       6.811   6.028  17.927  0.00  0.00    +0.000 C 
ATOM      2  C   UNL     1       5.266   6.579  17.917  0.00  0.00    +0.000 C 
ATOM      3  C   UNL     1       4.675   6.630  16.466  0.00  0.00    +0.000 C 
ATOM      4  C   UNL     1       5.312   5.413  15.814  0.00  0.00    +0.000 C 
ATOM      5  C   UNL     1       6.204   4.893  14.714  0.00  0.00    +0.000 C 
ATOM      6  C   UNL     1       7.407   4.419  15.617  0.00  0.00    +0.000 C 
ATOM      7  C   UNL     1       6.970   4.641  17.123  0.00  0.00    +0.000 C 
ATOM      8  N   UNL     1       5.581   4.307  16.800  0.00  0.00    +0.000 NA
ATOM      9  C   UNL     1       4.748   4.183  17.990  0.00  0.00    +0.000 C 
ATOM     10  C   UNL     1       4.384   5.516  18.555  0.00  0.00    +0.000 C 
ATOM     11  C   UNL     1       3.301   5.776  19.311  0.00  0.00    +0.000 C 
ENDROOT
BRANCH  11  12
ATOM     12  C   UNL     1       2.436   4.748  19.808  0.00  0.00    +0.000 A 
ATOM     13  C   UNL     1       1.357   4.125  19.203  0.00  0.00    +0.000 A 
ATOM     14  C   UNL     1       0.720   3.154  20.024  0.00  0.00    +0.000 A 
ATOM     15  C   UNL     1       1.339   3.022  21.245  0.00  0.00    +0.000 A 
ATOM     16  C   UNL     1       0.967   2.103  22.360  0.00  0.00    +0.000 C 
ATOM     17  S   UNL     1       2.678   4.081  21.384  0.00  0.00    +0.000 S 
ENDBRANCH  11  12
BRANCH   1  18
ATOM     18  C   UNL     1       7.759   7.161  17.583  0.00  0.00    +0.000 C 
ATOM     19  O   UNL     1       7.952   7.527  16.429  0.00  0.00    +0.000 OA
BRANCH  18  21
ATOM     20  C   UNL     1       8.585   9.155  18.511  0.00  0.00    +0.000 C 
ATOM     21  O   UNL     1       8.284   7.760  18.678  0.00  0.00    +0.000 OA
ENDBRANCH  18  21
ENDBRANCH   1  18
TORSDOF 3
ENDMDL
MODEL 9
REMARK VINA RESULT:      -6.9      1.991      3.124
REMARK  Name = 
REMARK  5 active torsions:
REMARK  status: ('A' for Active; 'I' for Inactive)
REMARK    1  A    between atoms: C_1  and  O_2
REMARK    2  A    between atoms: O_2  and  C_3
REMARK    3  A    between atoms: C_3  and  C_5
REMARK    4  A    between atoms: C_15  and  C_16
REMARK    5  A    between atoms: C_19  and  C_20
REMARK                            x       y       z     vdW  Elec       q    Type
REMARK                         _______ _______ _______ _____ _____    ______ ____
ROOT
ATOM      1  C   UNL     1       2.661   3.781  19.838  0.00  0.00    +0.000 C 
ATOM      2  C   UNL     1       3.367   5.237  20.106  0.00  0.00    +0.000 C 
ATOM      3  C   UNL     1       4.634   5.444  19.205  0.00  0.00    +0.000 C 
ATOM      4  C   UNL     1       4.232   4.744  17.916  0.00  0.00    +0.000 C 
ATOM      5  C   UNL     1       4.536   3.641  16.932  0.00  0.00    +0.000 C 
ATOM      6  C   UNL     1       3.281   2.733  17.231  0.00  0.00    +0.000 C 
ATOM      7  C   UNL     1       2.382   3.516  18.274  0.00  0.00    +0.000 C 
ATOM      8  N   UNL     1       2.747   4.799  17.670  0.00  0.00    +0.000 NA
ATOM      9  C   UNL     1       1.968   5.908  18.206  0.00  0.00    +0.000 C 
ATOM     10  C   UNL     1       2.442   6.316  19.562  0.00  0.00    +0.000 C 
ATOM     11  C   UNL     1       2.284   7.534  20.112  0.00  0.00    +0.000 C 
ENDROOT
BRANCH  11  12
ATOM     12  C   UNL     1       1.482   8.559  19.513  0.00  0.00    +0.000 A 
ATOM     13  C   UNL     1       1.488   9.049  18.218  0.00  0.00    +0.000 A 
ATOM     14  C   UNL     1       0.551  10.094  17.995  0.00  0.00    +0.000 A 
ATOM     15  C   UNL     1      -0.187  10.377  19.120  0.00  0.00    +0.000 A 
ATOM     16  C   UNL     1      -1.265  11.397  19.270  0.00  0.00    +0.000 C 
ATOM     17  S   UNL     1       0.270   9.377  20.434  0.00  0.00    +0.000 S 
ENDBRANCH  11  12
BRANCH   1  18
ATOM     18  C   UNL     1       3.392   2.707  20.621  0.00  0.00    +0.000 C 
ATOM     19  O   UNL     1       4.422   2.186  20.214  0.00  0.00    +0.000 OA
BRANCH  18  21
ATOM     20  C   UNL     1       1.402   2.589  21.866  0.00  0.00    +0.000 C 
ATOM     21  O   UNL     1       2.833   2.465  21.832  0.00  0.00    +0.000 OA
ENDBRANCH  18  21
ENDBRANCH   1  18
TORSDOF 3
ENDMDL
