MODEL 1
REMARK VINA RESULT:      -7.1      0.000      0.000
REMARK  Name = 
REMARK  8 active torsions:
REMARK  status: ('A' for Active; 'I' for Inactive)
REMARK    1  A    between atoms: C_1  and  O_2
REMARK    2  A    between atoms: O_2  and  C_3
REMARK    3  A    between atoms: C_6  and  N_7
REMARK    4  A    between atoms: N_7  and  C_8
REMARK    5  A    between atoms: N_7  and  C_9
REMARK    6  A    between atoms: C_9  and  C_10
REMARK    7  A    between atoms: C_13  and  C_14
REMARK    8  A    between atoms: C_19  and  C_20
REMARK                            x       y       z     vdW  Elec       q    Type
REMARK                         _______ _______ _______ _____ _____    ______ ____
ROOT
ATOM      1  C   UNL     1       2.676   4.563  20.140  0.00  0.00    +0.000 A 
ATOM      2  C   UNL     1       1.405   4.450  20.649  0.00  0.00    +0.000 A 
ATOM      3  O   UNL     1       0.895   5.700  20.816  0.00  0.00    +0.000 OA
ATOM      4  C   UNL     1       1.890   6.539  20.376  0.00  0.00    +0.000 A 
ATOM      5  N   UNL     1       2.977   5.904  19.975  0.00  0.00    +0.000 NA
ENDROOT
BRANCH   4   6
ATOM      6  C   UNL     1       1.564   7.969  20.354  0.00  0.00    +0.000 A 
ATOM      7  C   UNL     1       1.148   8.599  21.544  0.00  0.00    +0.000 A 
ATOM      8  C   UNL     1       0.769   9.943  21.561  0.00  0.00    +0.000 A 
ATOM      9  C   UNL     1       0.804  10.687  20.388  0.00  0.00    +0.000 A 
ATOM     10  C   UNL     1       1.234  10.092  19.202  0.00  0.00    +0.000 A 
ATOM     11  C   UNL     1       1.620   8.738  19.168  0.00  0.00    +0.000 A 
ATOM     12  C   UNL     1       2.058   8.152  17.853  0.00  0.00    +0.000 C 
ENDBRANCH   4   6
BRANCH   1  13
ATOM     13  C   UNL     1       3.657   3.500  19.750  0.00  0.00    +0.000 C 
BRANCH  13  14
ATOM     14  N   UNL     1       4.179   3.463  18.371  0.00  0.00    +0.000 N 
ATOM     15  C   UNL     1       3.813   2.310  17.558  0.00  0.00    +0.000 C 
BRANCH  14  19
ATOM     16  C   UNL     1       6.887   6.440  17.026  0.00  0.00    +0.000 A 
ATOM     17  C   UNL     1       7.211   5.607  18.096  0.00  0.00    +0.000 A 
ATOM     18  C   UNL     1       6.324   4.607  18.520  0.00  0.00    +0.000 A 
ATOM     19  C   UNL     1       5.067   4.428  17.923  0.00  0.00    +0.000 A 
ATOM     20  C   UNL     1       4.764   5.282  16.854  0.00  0.00    +0.000 A 
ATOM     21  C   UNL     1       5.658   6.273  16.403  0.00  0.00    +0.000 A 
BRANCH  16  23
ATOM     22  C   UNL     1       7.934   8.462  17.643  0.00  0.00    +0.000 C 
ATOM     23  O   UNL     1       7.819   7.386  16.719  0.00  0.00    +0.000 OA
ENDBRANCH  16  23
ENDBRANCH  14  19
ENDBRANCH  13  14
ENDBRANCH   1  13
TORSDOF 5
ENDMDL
MODEL 2
REMARK VINA RESULT:      -7.1      1.551      1.806
REMARK  Name = 
REMARK  8 active torsions:
REMARK  status: ('A' for Active; 'I' for Inactive)
REMARK    1  A    between atoms: C_1  and  O_2
REMARK    2  A    between atoms: O_2  and  C_3
REMARK    3  A    between atoms: C_6  and  N_7
REMARK    4  A    between atoms: N_7  and  C_8
REMARK    5  A    between atoms: N_7  and  C_9
REMARK    6  A    between atoms: C_9  and  C_10
REMARK    7  A    between atoms: C_13  and  C_14
REMARK    8  A    between atoms: C_19  and  C_20
REMARK                            x       y       z     vdW  Elec       q    Type
REMARK                         _______ _______ _______ _____ _____    ______ ____
ROOT
ATOM      1  C   UNL     1       3.135   5.019  19.885  0.00  0.00    +0.000 A 
ATOM      2  C   UNL     1       2.163   4.749  20.818  0.00  0.00    +0.000 A 
ATOM      3  O   UNL     1       1.486   5.899  21.081  0.00  0.00    +0.000 OA
ATOM      4  C   UNL     1       2.074   6.838  20.267  0.00  0.00    +0.000 A 
ATOM      5  N   UNL     1       3.071   6.359  19.544  0.00  0.00    +0.000 NA
ENDROOT
BRANCH   4   6
ATOM      6  C   UNL     1       1.464   8.172  20.278  0.00  0.00    +0.000 A 
ATOM      7  C   UNL     1       0.866   8.646  21.462  0.00  0.00    +0.000 A 
ATOM      8  C   UNL     1       0.221   9.884  21.506  0.00  0.00    +0.000 A 
ATOM      9  C   UNL     1       0.165  10.676  20.365  0.00  0.00    +0.000 A 
ATOM     10  C   UNL     1       0.770  10.239  19.187  0.00  0.00    +0.000 A 
ATOM     11  C   UNL     1       1.424   8.993  19.127  0.00  0.00    +0.000 A 
ATOM     12  C   UNL     1       2.042   8.572  17.820  0.00  0.00    +0.000 C 
ENDBRANCH   4   6
BRANCH   1  13
ATOM     13  C   UNL     1       4.129   4.106  19.235  0.00  0.00    +0.000 C 
BRANCH  13  14
ATOM     14  N   UNL     1       4.010   3.808  17.796  0.00  0.00    +0.000 N 
ATOM     15  C   UNL     1       2.886   2.976  17.385  0.00  0.00    +0.000 C 
BRANCH  14  19
ATOM     16  C   UNL     1       6.995   5.069  15.056  0.00  0.00    +0.000 A 
ATOM     17  C   UNL     1       6.780   5.757  16.249  0.00  0.00    +0.000 A 
ATOM     18  C   UNL     1       5.811   5.321  17.164  0.00  0.00    +0.000 A 
ATOM     19  C   UNL     1       4.992   4.212  16.905  0.00  0.00    +0.000 A 
ATOM     20  C   UNL     1       5.224   3.542  15.696  0.00  0.00    +0.000 A 
ATOM     21  C   UNL     1       6.212   3.955  14.782  0.00  0.00    +0.000 A 
BRANCH  16  23
ATOM     22  C   UNL     1       7.891   5.190  12.877  0.00  0.00    +0.000 C 
ATOM     23  O   UNL     1       7.948   5.599  14.239  0.00  0.00    +0.000 OA
ENDBRANCH  16  23
ENDBRANCH  14  19
ENDBRANCH  13  14
ENDBRANCH   1  13
TORSDOF 5
ENDMDL
MODEL 3
REMARK VINA RESULT:      -6.9      3.657      8.321
REMARK  Name = 
REMARK  8 active torsions:
REMARK  status: ('A' for Active; 'I' for Inactive)
REMARK    1  A    between atoms: C_1  and  O_2
REMARK    2  A    between atoms: O_2  and  C_3
REMARK    3  A    between atoms: C_6  and  N_7
REMARK    4  A    between atoms: N_7  and  C_8
REMARK    5  A    between atoms: N_7  and  C_9
REMARK    6  A    between atoms: C_9  and  C_10
REMARK    7  A    between atoms: C_13  and  C_14
REMARK    8  A    between atoms: C_19  and  C_20
REMARK                            x       y       z     vdW  Elec       q    Type
REMARK                         _______ _______ _______ _____ _____    ______ ____
ROOT
ATOM      1  C   UNL     1       1.704   8.887  18.926  0.00  0.00    +0.000 A 
ATOM      2  C   UNL     1       1.808   8.123  20.063  0.00  0.00    +0.000 A 
ATOM      3  O   UNL     1       2.430   6.956  19.742  0.00  0.00    +0.000 OA
ATOM      4  C   UNL     1       2.698   7.067  18.399  0.00  0.00    +0.000 A 
ATOM      5  N   UNL     1       2.272   8.199  17.868  0.00  0.00    +0.000 NA
ENDROOT
BRANCH   4   6
ATOM      6  C   UNL     1       3.465   5.968  17.803  0.00  0.00    +0.000 A 
ATOM      7  C   UNL     1       4.772   6.212  17.338  0.00  0.00    +0.000 A 
ATOM      8  C   UNL     1       5.519   5.213  16.710  0.00  0.00    +0.000 A 
ATOM      9  C   UNL     1       4.974   3.946  16.538  0.00  0.00    +0.000 A 
ATOM     10  C   UNL     1       3.690   3.673  17.010  0.00  0.00    +0.000 A 
ATOM     11  C   UNL     1       2.925   4.670  17.647  0.00  0.00    +0.000 A 
ATOM     12  C   UNL     1       1.540   4.315  18.118  0.00  0.00    +0.000 C 
ENDBRANCH   4   6
BRANCH   1  13
ATOM     13  C   UNL     1       1.135  10.259  18.735  0.00  0.00    +0.000 C 
BRANCH  13  14
ATOM     14  N   UNL     1      -0.089  10.647  19.461  0.00  0.00    +0.000 N 
ATOM     15  C   UNL     1       0.019  10.782  20.909  0.00  0.00    +0.000 C 
BRANCH  14  19
ATOM     16  C   UNL     1      -3.815  10.977  17.459  0.00  0.00    +0.000 A 
ATOM     17  C   UNL     1      -3.514  11.789  18.551  0.00  0.00    +0.000 A 
ATOM     18  C   UNL     1      -2.270  11.695  19.193  0.00  0.00    +0.000 A 
ATOM     19  C   UNL     1      -1.301  10.761  18.799  0.00  0.00    +0.000 A 
ATOM     20  C   UNL     1      -1.631   9.953  17.703  0.00  0.00    +0.000 A 
ATOM     21  C   UNL     1      -2.866  10.056  17.034  0.00  0.00    +0.000 A 
BRANCH  16  23
ATOM     22  C   UNL     1      -6.095  11.426  17.867  0.00  0.00    +0.000 C 
ATOM     23  O   UNL     1      -5.060  11.145  16.931  0.00  0.00    +0.000 OA
ENDBRANCH  16  23
ENDBRANCH  14  19
ENDBRANCH  13  14
ENDBRANCH   1  13
TORSDOF 5
ENDMDL
MODEL 4
REMARK VINA RESULT:      -6.9      3.506      8.202
REMARK  Name = 
REMARK  8 active torsions:
REMARK  status: ('A' for Active; 'I' for Inactive)
REMARK    1  A    between atoms: C_1  and  O_2
REMARK    2  A    between atoms: O_2  and  C_3
REMARK    3  A    between atoms: C_6  and  N_7
REMARK    4  A    between atoms: N_7  and  C_8
REMARK    5  A    between atoms: N_7  and  C_9
REMARK    6  A    between atoms: C_9  and  C_10
REMARK    7  A    between atoms: C_13  and  C_14
REMARK    8  A    between atoms: C_19  and  C_20
REMARK                            x       y       z     vdW  Elec       q    Type
REMARK                         _______ _______ _______ _____ _____    ______ ____
ROOT
ATOM      1  C   UNL     1       1.763   8.786  18.775  0.00  0.00    +0.000 A 
ATOM      2  C   UNL     1       1.826   8.165  19.999  0.00  0.00    +0.000 A 
ATOM      3  O   UNL     1       2.203   6.872  19.808  0.00  0.00    +0.000 OA
ATOM      4  C   UNL     1       2.373   6.761  18.449  0.00  0.00    +0.000 A 
ATOM      5  N   UNL     1       2.110   7.877  17.791  0.00  0.00    +0.000 NA
ENDROOT
BRANCH   4   6
ATOM      6  C   UNL     1       2.881   5.472  17.967  0.00  0.00    +0.000 A 
ATOM      7  C   UNL     1       2.018   4.359  17.937  0.00  0.00    +0.000 A 
ATOM      8  C   UNL     1       2.470   3.098  17.543  0.00  0.00    +0.000 A 
ATOM      9  C   UNL     1       3.796   2.926  17.165  0.00  0.00    +0.000 A 
ATOM     10  C   UNL     1       4.664   4.017  17.164  0.00  0.00    +0.000 A 
ATOM     11  C   UNL     1       4.223   5.295  17.559  0.00  0.00    +0.000 A 
ATOM     12  C   UNL     1       5.215   6.427  17.552  0.00  0.00    +0.000 C 
ENDBRANCH   4   6
BRANCH   1  13
ATOM     13  C   UNL     1       1.430  10.205  18.429  0.00  0.00    +0.000 C 
BRANCH  13  14
ATOM     14  N   UNL     1       0.333  10.889  19.140  0.00  0.00    +0.000 N 
ATOM     15  C   UNL     1       0.642  11.439  20.455  0.00  0.00    +0.000 C 
BRANCH  14  19
ATOM     16  C   UNL     1      -3.610  10.899  17.575  0.00  0.00    +0.000 A 
ATOM     17  C   UNL     1      -3.259  11.731  18.636  0.00  0.00    +0.000 A 
ATOM     18  C   UNL     1      -1.947  11.744  19.133  0.00  0.00    +0.000 A 
ATOM     19  C   UNL     1      -0.951  10.899  18.620  0.00  0.00    +0.000 A 
ATOM     20  C   UNL     1      -1.333  10.068  17.558  0.00  0.00    +0.000 A 
ATOM     21  C   UNL     1      -2.640  10.065  17.034  0.00  0.00    +0.000 A 
BRANCH  16  23
ATOM     22  C   UNL     1      -5.869  10.998  18.251  0.00  0.00    +0.000 C 
ATOM     23  O   UNL     1      -4.918  10.959  17.193  0.00  0.00    +0.000 OA
ENDBRANCH  16  23
ENDBRANCH  14  19
ENDBRANCH  13  14
ENDBRANCH   1  13
TORSDOF 5
ENDMDL
MODEL 5
REMARK VINA RESULT:      -6.9      3.470      7.811
REMARK  Name = 
REMARK  8 active torsions:
REMARK  status: ('A' for Active; 'I' for Inactive)
REMARK    1  A    between atoms: C_1  and  O_2
REMARK    2  A    between atoms: O_2  and  C_3
REMARK    3  A    between atoms: C_6  and  N_7
REMARK    4  A    between atoms: N_7  and  C_8
REMARK    5  A    between atoms: N_7  and  C_9
REMARK    6  A    between atoms: C_9  and  C_10
REMARK    7  A    between atoms: C_13  and  C_14
REMARK    8  A    between atoms: C_19  and  C_20
REMARK                            x       y       z     vdW  Elec       q    Type
REMARK                         _______ _______ _______ _____ _____    ______ ____
ROOT
ATOM      1  C   UNL     1       2.236   8.436  18.401  0.00  0.00    +0.000 A 
ATOM      2  C   UNL     1       3.269   7.791  17.766  0.00  0.00    +0.000 A 
ATOM      3  O   UNL     1       3.322   6.510  18.222  0.00  0.00    +0.000 OA
ATOM      4  C   UNL     1       2.287   6.422  19.122  0.00  0.00    +0.000 A 
ATOM      5  N   UNL     1       1.618   7.552  19.269  0.00  0.00    +0.000 NA
ENDROOT
BRANCH   4   6
ATOM      6  C   UNL     1       2.050   5.096  19.703  0.00  0.00    +0.000 A 
ATOM      7  C   UNL     1       2.292   4.893  21.076  0.00  0.00    +0.000 A 
ATOM      8  C   UNL     1       2.139   3.635  21.663  0.00  0.00    +0.000 A 
ATOM      9  C   UNL     1       1.735   2.554  20.889  0.00  0.00    +0.000 A 
ATOM     10  C   UNL     1       1.467   2.735  19.532  0.00  0.00    +0.000 A 
ATOM     11  C   UNL     1       1.617   3.997  18.925  0.00  0.00    +0.000 A 
ATOM     12  C   UNL     1       1.328   4.121  17.453  0.00  0.00    +0.000 C 
ENDBRANCH   4   6
BRANCH   1  13
ATOM     13  C   UNL     1       1.733   9.838  18.244  0.00  0.00    +0.000 C 
BRANCH  13  14
ATOM     14  N   UNL     1       0.607  10.304  19.076  0.00  0.00    +0.000 N 
ATOM     15  C   UNL     1       0.858  10.444  20.505  0.00  0.00    +0.000 C 
BRANCH  14  19
ATOM     16  C   UNL     1      -3.234  10.883  17.370  0.00  0.00    +0.000 A 
ATOM     17  C   UNL     1      -2.342   9.957  16.830  0.00  0.00    +0.000 A 
ATOM     18  C   UNL     1      -1.084   9.750  17.414  0.00  0.00    +0.000 A 
ATOM     19  C   UNL     1      -0.652  10.487  18.527  0.00  0.00    +0.000 A 
ATOM     20  C   UNL     1      -1.565  11.415  19.045  0.00  0.00    +0.000 A 
ATOM     21  C   UNL     1      -2.841  11.613  18.484  0.00  0.00    +0.000 A 
BRANCH  16  23
ATOM     22  C   UNL     1      -5.336  11.947  17.255  0.00  0.00    +0.000 C 
ATOM     23  O   UNL     1      -4.417  11.010  16.705  0.00  0.00    +0.000 OA
ENDBRANCH  16  23
ENDBRANCH  14  19
ENDBRANCH  13  14
ENDBRANCH   1  13
TORSDOF 5
ENDMDL
MODEL 6
REMARK VINA RESULT:      -6.9      1.775      2.505
REMARK  Name = 
REMARK  8 active torsions:
REMARK  status: ('A' for Active; 'I' for Inactive)
REMARK    1  A    between atoms: C_1  and  O_2
REMARK    2  A    between atoms: O_2  and  C_3
REMARK    3  A    between atoms: C_6  and  N_7
REMARK    4  A    between atoms: N_7  and  C_8
REMARK    5  A    between atoms: N_7  and  C_9
REMARK    6  A    between atoms: C_9  and  C_10
REMARK    7  A    between atoms: C_13  and  C_14
REMARK    8  A    between atoms: C_19  and  C_20
REMARK                            x       y       z     vdW  Elec       q    Type
REMARK                         _______ _______ _______ _____ _____    ______ ____
ROOT
ATOM      1  C   UNL     1       2.254   6.078  20.089  0.00  0.00    +0.000 A 
ATOM      2  C   UNL     1       2.644   7.025  19.174  0.00  0.00    +0.000 A 
ATOM      3  O   UNL     1       2.005   8.191  19.462  0.00  0.00    +0.000 OA
ATOM      4  C   UNL     1       1.250   7.904  20.573  0.00  0.00    +0.000 A 
ATOM      5  N   UNL     1       1.358   6.650  20.976  0.00  0.00    +0.000 NA
ENDROOT
BRANCH   4   6
ATOM      6  C   UNL     1       0.520   9.031  21.164  0.00  0.00    +0.000 A 
ATOM      7  C   UNL     1       0.360   9.092  22.563  0.00  0.00    +0.000 A 
ATOM      8  C   UNL     1      -0.377  10.112  23.167  0.00  0.00    +0.000 A 
ATOM      9  C   UNL     1      -0.965  11.098  22.384  0.00  0.00    +0.000 A 
ATOM     10  C   UNL     1      -0.802  11.073  20.999  0.00  0.00    +0.000 A 
ATOM     11  C   UNL     1      -0.062  10.050  20.375  0.00  0.00    +0.000 A 
ATOM     12  C   UNL     1       0.062  10.072  18.875  0.00  0.00    +0.000 C 
ENDBRANCH   4   6
BRANCH   1  13
ATOM     13  C   UNL     1       2.678   4.649  20.239  0.00  0.00    +0.000 C 
BRANCH  13  14
ATOM     14  N   UNL     1       2.946   3.840  19.035  0.00  0.00    +0.000 N 
ATOM     15  C   UNL     1       2.039   2.729  18.772  0.00  0.00    +0.000 C 
BRANCH  14  19
ATOM     16  C   UNL     1       6.410   4.499  16.676  0.00  0.00    +0.000 A 
ATOM     17  C   UNL     1       5.195   4.156  16.085  0.00  0.00    +0.000 A 
ATOM     18  C   UNL     1       4.046   3.966  16.867  0.00  0.00    +0.000 A 
ATOM     19  C   UNL     1       4.076   4.067  18.266  0.00  0.00    +0.000 A 
ATOM     20  C   UNL     1       5.310   4.406  18.835  0.00  0.00    +0.000 A 
ATOM     21  C   UNL     1       6.465   4.626  18.058  0.00  0.00    +0.000 A 
BRANCH  16  23
ATOM     22  C   UNL     1       7.116   4.856  14.454  0.00  0.00    +0.000 C 
ATOM     23  O   UNL     1       7.459   4.638  15.817  0.00  0.00    +0.000 OA
ENDBRANCH  16  23
ENDBRANCH  14  19
ENDBRANCH  13  14
ENDBRANCH   1  13
TORSDOF 5
ENDMDL
MODEL 7
REMARK VINA RESULT:      -6.9      2.088      2.819
REMARK  Name = 
REMARK  8 active torsions:
REMARK  status: ('A' for Active; 'I' for Inactive)
REMARK    1  A    between atoms: C_1  and  O_2
REMARK    2  A    between atoms: O_2  and  C_3
REMARK    3  A    between atoms: C_6  and  N_7
REMARK    4  A    between atoms: N_7  and  C_8
REMARK    5  A    between atoms: N_7  and  C_9
REMARK    6  A    between atoms: C_9  and  C_10
REMARK    7  A    between atoms: C_13  and  C_14
REMARK    8  A    between atoms: C_19  and  C_20
REMARK                            x       y       z     vdW  Elec       q    Type
REMARK                         _______ _______ _______ _____ _____    ______ ____
ROOT
ATOM      1  C   UNL     1       3.687   4.626  19.324  0.00  0.00    +0.000 A 
ATOM      2  C   UNL     1       2.390   4.176  19.358  0.00  0.00    +0.000 A 
ATOM      3  O   UNL     1       1.578   5.225  19.660  0.00  0.00    +0.000 OA
ATOM      4  C   UNL     1       2.430   6.295  19.784  0.00  0.00    +0.000 A 
ATOM      5  N   UNL     1       3.701   5.981  19.603  0.00  0.00    +0.000 NA
ENDROOT
BRANCH   4   6
ATOM      6  C   UNL     1       1.797   7.598  20.017  0.00  0.00    +0.000 A 
ATOM      7  C   UNL     1       1.195   7.858  21.264  0.00  0.00    +0.000 A 
ATOM      8  C   UNL     1       0.529   9.060  21.513  0.00  0.00    +0.000 A 
ATOM      9  C   UNL     1       0.456  10.030  20.521  0.00  0.00    +0.000 A 
ATOM     10  C   UNL     1       1.065   9.805  19.286  0.00  0.00    +0.000 A 
ATOM     11  C   UNL     1       1.741   8.599  19.019  0.00  0.00    +0.000 A 
ATOM     12  C   UNL     1       2.361   8.412  17.661  0.00  0.00    +0.000 C 
ENDBRANCH   4   6
BRANCH   1  13
ATOM     13  C   UNL     1       4.955   3.892  19.014  0.00  0.00    +0.000 C 
BRANCH  13  14
ATOM     14  N   UNL     1       6.060   4.600  18.340  0.00  0.00    +0.000 N 
ATOM     15  C   UNL     1       6.920   5.428  19.177  0.00  0.00    +0.000 C 
BRANCH  14  19
ATOM     16  C   UNL     1       6.466   4.444  14.120  0.00  0.00    +0.000 A 
ATOM     17  C   UNL     1       5.280   4.055  14.740  0.00  0.00    +0.000 A 
ATOM     18  C   UNL     1       5.141   4.133  16.133  0.00  0.00    +0.000 A 
ATOM     19  C   UNL     1       6.191   4.560  16.961  0.00  0.00    +0.000 A 
ATOM     20  C   UNL     1       7.373   4.940  16.312  0.00  0.00    +0.000 A 
ATOM     21  C   UNL     1       7.516   4.890  14.912  0.00  0.00    +0.000 A 
BRANCH  16  23
ATOM     22  C   UNL     1       6.049   3.046  12.265  0.00  0.00    +0.000 C 
ATOM     23  O   UNL     1       6.490   4.304  12.764  0.00  0.00    +0.000 OA
ENDBRANCH  16  23
ENDBRANCH  14  19
ENDBRANCH  13  14
ENDBRANCH   1  13
TORSDOF 5
ENDMDL
MODEL 8
REMARK VINA RESULT:      -6.9      3.491      8.209
REMARK  Name = 
REMARK  8 active torsions:
REMARK  status: ('A' for Active; 'I' for Inactive)
REMARK    1  A    between atoms: C_1  and  O_2
REMARK    2  A    between atoms: O_2  and  C_3
REMARK    3  A    between atoms: C_6  and  N_7
REMARK    4  A    between atoms: N_7  and  C_8
REMARK    5  A    between atoms: N_7  and  C_9
REMARK    6  A    between atoms: C_9  and  C_10
REMARK    7  A    between atoms: C_13  and  C_14
REMARK    8  A    between atoms: C_19  and  C_20
REMARK                            x       y       z     vdW  Elec       q    Type
REMARK                         _______ _______ _______ _____ _____    ______ ____
ROOT
ATOM      1  C   UNL     1       1.784   8.790  18.749  0.00  0.00    +0.000 A 
ATOM      2  C   UNL     1       1.838   8.193  19.985  0.00  0.00    +0.000 A 
ATOM      3  O   UNL     1       2.200   6.892  19.819  0.00  0.00    +0.000 OA
ATOM      4  C   UNL     1       2.372   6.752  18.463  0.00  0.00    +0.000 A 
ATOM      5  N   UNL     1       2.123   7.858  17.783  0.00  0.00    +0.000 NA
ENDROOT
BRANCH   4   6
ATOM      6  C   UNL     1       2.865   5.448  18.007  0.00  0.00    +0.000 A 
ATOM      7  C   UNL     1       1.982   4.351  17.972  0.00  0.00    +0.000 A 
ATOM      8  C   UNL     1       2.419   3.077  17.603  0.00  0.00    +0.000 A 
ATOM      9  C   UNL     1       3.749   2.876  17.255  0.00  0.00    +0.000 A 
ATOM     10  C   UNL     1       4.638   3.951  17.259  0.00  0.00    +0.000 A 
ATOM     11  C   UNL     1       4.212   5.242  17.629  0.00  0.00    +0.000 A 
ATOM     12  C   UNL     1       5.225   6.355  17.628  0.00  0.00    +0.000 C 
ENDBRANCH   4   6
BRANCH   1  13
ATOM     13  C   UNL     1       1.468  10.205  18.374  0.00  0.00    +0.000 C 
BRANCH  13  14
ATOM     14  N   UNL     1       0.426  10.938  19.116  0.00  0.00    +0.000 N 
ATOM     15  C   UNL     1       0.821  11.547  20.381  0.00  0.00    +0.000 C 
BRANCH  14  19
ATOM     16  C   UNL     1      -3.587  10.969  17.739  0.00  0.00    +0.000 A 
ATOM     17  C   UNL     1      -2.639  10.126  17.163  0.00  0.00    +0.000 A 
ATOM     18  C   UNL     1      -1.320  10.100  17.640  0.00  0.00    +0.000 A 
ATOM     19  C   UNL     1      -0.888  10.942  18.676  0.00  0.00    +0.000 A 
ATOM     20  C   UNL     1      -1.860  11.784  19.233  0.00  0.00    +0.000 A 
ATOM     21  C   UNL     1      -3.194  11.800  18.780  0.00  0.00    +0.000 A 
BRANCH  16  23
ATOM     22  C   UNL     1      -5.917  11.153  18.067  0.00  0.00    +0.000 C 
ATOM     23  O   UNL     1      -4.829  10.921  17.179  0.00  0.00    +0.000 OA
ENDBRANCH  16  23
ENDBRANCH  14  19
ENDBRANCH  13  14
ENDBRANCH   1  13
TORSDOF 5
ENDMDL
MODEL 9
REMARK VINA RESULT:      -6.9      3.167      7.721
REMARK  Name = 
REMARK  8 active torsions:
REMARK  status: ('A' for Active; 'I' for Inactive)
REMARK    1  A    between atoms: C_1  and  O_2
REMARK    2  A    between atoms: O_2  and  C_3
REMARK    3  A    between atoms: C_6  and  N_7
REMARK    4  A    between atoms: N_7  and  C_8
REMARK    5  A    between atoms: N_7  and  C_9
REMARK    6  A    between atoms: C_9  and  C_10
REMARK    7  A    between atoms: C_13  and  C_14
REMARK    8  A    between atoms: C_19  and  C_20
REMARK                            x       y       z     vdW  Elec       q    Type
REMARK                         _______ _______ _______ _____ _____    ______ ____
ROOT
ATOM      1  C   UNL     1       5.356   6.013  16.853  0.00  0.00    +0.000 A 
ATOM      2  C   UNL     1       6.188   4.990  17.239  0.00  0.00    +0.000 A 
ATOM      3  O   UNL     1       6.490   4.244  16.142  0.00  0.00    +0.000 OA
ATOM      4  C   UNL     1       5.829   4.865  15.110  0.00  0.00    +0.000 A 
ATOM      5  N   UNL     1       5.129   5.919  15.491  0.00  0.00    +0.000 NA
ENDROOT
BRANCH   4   6
ATOM      6  C   UNL     1       6.063   4.314  13.771  0.00  0.00    +0.000 A 
ATOM      7  C   UNL     1       5.150   3.381  13.241  0.00  0.00    +0.000 A 
ATOM      8  C   UNL     1       5.360   2.783  11.996  0.00  0.00    +0.000 A 
ATOM      9  C   UNL     1       6.488   3.111  11.253  0.00  0.00    +0.000 A 
ATOM     10  C   UNL     1       7.394   4.049  11.746  0.00  0.00    +0.000 A 
ATOM     11  C   UNL     1       7.196   4.661  12.999  0.00  0.00    +0.000 A 
ATOM     12  C   UNL     1       8.221   5.653  13.481  0.00  0.00    +0.000 C 
ENDBRANCH   4   6
BRANCH   1  13
ATOM     13  C   UNL     1       4.758   7.126  17.658  0.00  0.00    +0.000 C 
BRANCH  13  14
ATOM     14  N   UNL     1       3.310   7.127  17.935  0.00  0.00    +0.000 N 
ATOM     15  C   UNL     1       2.585   8.361  17.652  0.00  0.00    +0.000 C 
BRANCH  14  19
ATOM     16  C   UNL     1       1.484   3.779  19.795  0.00  0.00    +0.000 A 
ATOM     17  C   UNL     1       2.114   4.765  20.553  0.00  0.00    +0.000 A 
ATOM     18  C   UNL     1       2.692   5.884  19.935  0.00  0.00    +0.000 A 
ATOM     19  C   UNL     1       2.703   6.039  18.541  0.00  0.00    +0.000 A 
ATOM     20  C   UNL     1       2.069   5.031  17.803  0.00  0.00    +0.000 A 
ATOM     21  C   UNL     1       1.462   3.916  18.413  0.00  0.00    +0.000 A 
BRANCH  16  23
ATOM     22  C   UNL     1       1.539   2.531  21.796  0.00  0.00    +0.000 C 
ATOM     23  O   UNL     1       0.977   2.731  20.504  0.00  0.00    +0.000 OA
ENDBRANCH  16  23
ENDBRANCH  14  19
ENDBRANCH  13  14
ENDBRANCH   1  13
TORSDOF 5
ENDMDL
