MODEL 1
REMARK VINA RESULT:      -7.2      0.000      0.000
REMARK  Name = 
REMARK  11 active torsions:
REMARK  status: ('A' for Active; 'I' for Inactive)
REMARK    1  A    between atoms: C_1  and  C_2
REMARK    2  A    between atoms: C_2  and  N_3
REMARK    3  A    between atoms: N_3  and  C_4
REMARK    4  A    between atoms: C_4  and  C_5
REMARK    5  A    between atoms: C_6  and  C_8
REMARK    6  A    between atoms: C_9  and  C_10
REMARK    7  A    between atoms: N_11  and  C_12
REMARK    8  A    between atoms: C_12  and  C_13
REMARK    9  A    between atoms: C_21  and  C_22
REMARK   10  A    between atoms: C_22  and  C_23
REMARK   11  A    between atoms: N_25  and  C_26
REMARK                            x       y       z     vdW  Elec       q    Type
REMARK                         _______ _______ _______ _____ _____    ______ ____
ROOT
ATOM      1  C   UNL     1       3.398   6.919  17.913  0.00  0.00    +0.000 C 
ATOM      2  C   UNL     1       2.947   5.637  17.824  0.00  0.00    +0.000 C 
ATOM      3  C   UNL     1       1.483   5.256  17.701  0.00  0.00    +0.000 C 
ATOM      4  N   UNL     1       3.878   4.560  17.836  0.00  0.00    +0.000 N 
ATOM      5  C   UNL     1       5.256   4.756  17.664  0.00  0.00    +0.000 C 
ATOM      6  O   UNL     1       6.084   3.844  17.671  0.00  0.00    +0.000 OA
ATOM      7  C   UNL     1       5.698   6.155  17.326  0.00  0.00    +0.000 C 
ATOM      8  C   UNL     1       4.870   7.087  18.211  0.00  0.00    +0.000 C 
ENDROOT
BRANCH   1  10
ATOM      9  N   UNL     1       1.815   8.555  19.075  0.00  0.00    +0.000 N 
ATOM     10  C   UNL     1       2.478   8.124  17.913  0.00  0.00    +0.000 C 
ATOM     11  O   UNL     1       2.321   8.730  16.849  0.00  0.00    +0.000 OA
BRANCH   9  13
ATOM     12  C   UNL     1       1.538  11.024  18.941  0.00  0.00    +0.000 C 
ATOM     13  C   UNL     1       0.860   9.661  18.910  0.00  0.00    +0.000 C 
ENDBRANCH   9  13
BRANCH   9  14
ATOM     14  C   UNL     1       1.772   7.844  20.351  0.00  0.00    +0.000 C 
ATOM     15  C   UNL     1       1.166   8.543  21.557  0.00  0.00    +0.000 C 
ENDBRANCH   9  14
ENDBRANCH   1  10
BRANCH   4  16
ATOM     16  C   UNL     1       3.466   3.156  18.013  0.00  0.00    +0.000 C 
BRANCH  16  17
ATOM     17  C   UNL     1       2.724   2.848  19.299  0.00  0.00    +0.000 A 
ATOM     18  C   UNL     1       3.380   2.948  20.536  0.00  0.00    +0.000 A 
ATOM     19  C   UNL     1       2.676   2.798  21.736  0.00  0.00    +0.000 A 
ATOM     20  C   UNL     1       1.308   2.539  21.718  0.00  0.00    +0.000 A 
ATOM     21  C   UNL     1       0.644   2.417  20.501  0.00  0.00    +0.000 A 
ATOM     22  C   UNL     1       1.347   2.570  19.302  0.00  0.00    +0.000 A 
ENDBRANCH  16  17
ENDBRANCH   4  16
BRANCH   7  23
ATOM     23  C   UNL     1       5.574   6.390  15.811  0.00  0.00    +0.000 C 
BRANCH  23  24
ATOM     24  C   UNL     1       6.408   5.421  14.996  0.00  0.00    +0.000 C 
ATOM     25  O   UNL     1       7.634   5.413  15.068  0.00  0.00    +0.000 OA
ATOM     26  N   UNL     1       5.667   4.600  14.171  0.00  0.00    +0.000 N 
ATOM     27  H   UNL     1       4.657   4.664  14.182  0.00  0.00    +0.000 HD
BRANCH  26  28
ATOM     28  C   UNL     1       6.265   3.625  13.318  0.00  0.00    +0.000 C 
ATOM     29  C   UNL     1       5.621   3.220  12.021  0.00  0.00    +0.000 C 
ATOM     30  C   UNL     1       6.871   4.049  12.005  0.00  0.00    +0.000 C 
ENDBRANCH  26  28
ENDBRANCH  23  24
ENDBRANCH   7  23
TORSDOF 8
ENDMDL
MODEL 2
REMARK VINA RESULT:      -7.0      2.117      5.950
REMARK  Name = 
REMARK  11 active torsions:
REMARK  status: ('A' for Active; 'I' for Inactive)
REMARK    1  A    between atoms: C_1  and  C_2
REMARK    2  A    between atoms: C_2  and  N_3
REMARK    3  A    between atoms: N_3  and  C_4
REMARK    4  A    between atoms: C_4  and  C_5
REMARK    5  A    between atoms: C_6  and  C_8
REMARK    6  A    between atoms: C_9  and  C_10
REMARK    7  A    between atoms: N_11  and  C_12
REMARK    8  A    between atoms: C_12  and  C_13
REMARK    9  A    between atoms: C_21  and  C_22
REMARK   10  A    between atoms: C_22  and  C_23
REMARK   11  A    between atoms: N_25  and  C_26
REMARK                            x       y       z     vdW  Elec       q    Type
REMARK                         _______ _______ _______ _____ _____    ______ ____
ROOT
ATOM      1  C   UNL     1       1.957   6.331  19.343  0.00  0.00    +0.000 C 
ATOM      2  C   UNL     1       1.705   7.544  19.910  0.00  0.00    +0.000 C 
ATOM      3  C   UNL     1       1.319   7.741  21.364  0.00  0.00    +0.000 C 
ATOM      4  N   UNL     1       1.808   8.724  19.121  0.00  0.00    +0.000 N 
ATOM      5  C   UNL     1       2.418   8.734  17.858  0.00  0.00    +0.000 C 
ATOM      6  O   UNL     1       2.520   9.739  17.154  0.00  0.00    +0.000 OA
ATOM      7  C   UNL     1       3.087   7.456  17.426  0.00  0.00    +0.000 C 
ATOM      8  C   UNL     1       2.149   6.323  17.844  0.00  0.00    +0.000 C 
ENDROOT
BRANCH   1  10
ATOM      9  N   UNL     1       2.977   4.179  20.274  0.00  0.00    +0.000 N 
ATOM     10  C   UNL     1       1.866   5.025  20.107  0.00  0.00    +0.000 C 
ATOM     11  O   UNL     1       0.773   4.712  20.588  0.00  0.00    +0.000 OA
BRANCH   9  13
ATOM     12  C   UNL     1       1.968   1.918  20.031  0.00  0.00    +0.000 C 
ATOM     13  C   UNL     1       2.724   2.888  20.929  0.00  0.00    +0.000 C 
ENDBRANCH   9  13
BRANCH   9  14
ATOM     14  C   UNL     1       4.277   4.334  19.622  0.00  0.00    +0.000 C 
ATOM     15  C   UNL     1       4.547   3.564  18.340  0.00  0.00    +0.000 C 
ENDBRANCH   9  14
ENDBRANCH   1  10
BRANCH   4  16
ATOM     16  C   UNL     1       1.299  10.030  19.576  0.00  0.00    +0.000 C 
BRANCH  16  17
ATOM     17  C   UNL     1      -0.121  10.362  19.158  0.00  0.00    +0.000 A 
ATOM     18  C   UNL     1      -0.851  11.344  19.846  0.00  0.00    +0.000 A 
ATOM     19  C   UNL     1      -2.108  11.755  19.391  0.00  0.00    +0.000 A 
ATOM     20  C   UNL     1      -2.658  11.187  18.244  0.00  0.00    +0.000 A 
ATOM     21  C   UNL     1      -1.958  10.198  17.560  0.00  0.00    +0.000 A 
ATOM     22  C   UNL     1      -0.700   9.789  18.013  0.00  0.00    +0.000 A 
ENDBRANCH  16  17
ENDBRANCH   4  16
BRANCH   7  23
ATOM     23  C   UNL     1       4.510   7.391  18.004  0.00  0.00    +0.000 C 
BRANCH  23  24
ATOM     24  C   UNL     1       5.542   6.962  16.979  0.00  0.00    +0.000 C 
ATOM     25  O   UNL     1       6.682   7.419  16.988  0.00  0.00    +0.000 OA
ATOM     26  N   UNL     1       5.069   6.059  16.051  0.00  0.00    +0.000 N 
ATOM     27  H   UNL     1       4.117   5.723  16.123  0.00  0.00    +0.000 HD
BRANCH  26  28
ATOM     28  C   UNL     1       5.881   5.539  14.999  0.00  0.00    +0.000 C 
ATOM     29  C   UNL     1       6.829   4.397  15.233  0.00  0.00    +0.000 C 
ATOM     30  C   UNL     1       5.583   4.178  14.425  0.00  0.00    +0.000 C 
ENDBRANCH  26  28
ENDBRANCH  23  24
ENDBRANCH   7  23
TORSDOF 8
ENDMDL
MODEL 3
REMARK VINA RESULT:      -6.7      4.596      9.005
REMARK  Name = 
REMARK  11 active torsions:
REMARK  status: ('A' for Active; 'I' for Inactive)
REMARK    1  A    between atoms: C_1  and  C_2
REMARK    2  A    between atoms: C_2  and  N_3
REMARK    3  A    between atoms: N_3  and  C_4
REMARK    4  A    between atoms: C_4  and  C_5
REMARK    5  A    between atoms: C_6  and  C_8
REMARK    6  A    between atoms: C_9  and  C_10
REMARK    7  A    between atoms: N_11  and  C_12
REMARK    8  A    between atoms: C_12  and  C_13
REMARK    9  A    between atoms: C_21  and  C_22
REMARK   10  A    between atoms: C_22  and  C_23
REMARK   11  A    between atoms: N_25  and  C_26
REMARK                            x       y       z     vdW  Elec       q    Type
REMARK                         _______ _______ _______ _____ _____    ______ ____
ROOT
ATOM      1  C   UNL     1       0.143  11.671  21.022  0.00  0.00    +0.000 C 
ATOM      2  C   UNL     1       0.044  10.780  19.997  0.00  0.00    +0.000 C 
ATOM      3  C   UNL     1      -1.044   9.729  19.883  0.00  0.00    +0.000 C 
ATOM      4  N   UNL     1       1.000  10.811  18.942  0.00  0.00    +0.000 N 
ATOM      5  C   UNL     1       1.885  11.884  18.761  0.00  0.00    +0.000 C 
ATOM      6  O   UNL     1       2.723  11.937  17.860  0.00  0.00    +0.000 OA
ATOM      7  C   UNL     1       1.687  13.077  19.659  0.00  0.00    +0.000 C 
ATOM      8  C   UNL     1       1.395  12.516  21.051  0.00  0.00    +0.000 C 
ENDROOT
BRANCH   1  10
ATOM      9  N   UNL     1      -2.069  12.357  22.104  0.00  0.00    +0.000 N 
ATOM     10  C   UNL     1      -0.827  11.705  22.187  0.00  0.00    +0.000 C 
ATOM     11  O   UNL     1      -0.494  11.137  23.231  0.00  0.00    +0.000 OA
BRANCH   9  13
ATOM     12  C   UNL     1      -2.963  13.833  23.896  0.00  0.00    +0.000 C 
ATOM     13  C   UNL     1      -2.860  12.418  23.341  0.00  0.00    +0.000 C 
ENDBRANCH   9  13
BRANCH   9  14
ATOM     14  C   UNL     1      -2.518  13.207  21.002  0.00  0.00    +0.000 C 
ATOM     15  C   UNL     1      -3.419  12.606  19.936  0.00  0.00    +0.000 C 
ENDBRANCH   9  14
ENDBRANCH   1  10
BRANCH   4  16
ATOM     16  C   UNL     1       1.124   9.729  17.950  0.00  0.00    +0.000 C 
BRANCH  16  17
ATOM     17  C   UNL     1       1.999   8.560  18.360  0.00  0.00    +0.000 A 
ATOM     18  C   UNL     1       1.766   7.891  19.572  0.00  0.00    +0.000 A 
ATOM     19  C   UNL     1       2.476   6.732  19.901  0.00  0.00    +0.000 A 
ATOM     20  C   UNL     1       3.435   6.226  19.026  0.00  0.00    +0.000 A 
ATOM     21  C   UNL     1       3.693   6.886  17.829  0.00  0.00    +0.000 A 
ATOM     22  C   UNL     1       2.982   8.043  17.499  0.00  0.00    +0.000 A 
ENDBRANCH  16  17
ENDBRANCH   4  16
BRANCH   7  23
ATOM     23  C   UNL     1       0.604  13.997  19.071  0.00  0.00    +0.000 C 
BRANCH  23  24
ATOM     24  C   UNL     1       1.092  15.418  18.861  0.00  0.00    +0.000 C 
ATOM     25  O   UNL     1       2.260  15.732  19.071  0.00  0.00    +0.000 OA
ATOM     26  N   UNL     1       0.107  16.294  18.452  0.00  0.00    +0.000 N 
ATOM     27  H   UNL     1      -0.830  15.950  18.290  0.00  0.00    +0.000 HD
BRANCH  26  28
ATOM     28  C   UNL     1       0.361  17.677  18.208  0.00  0.00    +0.000 C 
ATOM     29  C   UNL     1       0.962  18.145  16.912  0.00  0.00    +0.000 C 
ATOM     30  C   UNL     1      -0.481  18.427  17.209  0.00  0.00    +0.000 C 
ENDBRANCH  26  28
ENDBRANCH  23  24
ENDBRANCH   7  23
TORSDOF 8
ENDMDL
MODEL 4
REMARK VINA RESULT:      -6.6      6.271     11.607
REMARK  Name = 
REMARK  11 active torsions:
REMARK  status: ('A' for Active; 'I' for Inactive)
REMARK    1  A    between atoms: C_1  and  C_2
REMARK    2  A    between atoms: C_2  and  N_3
REMARK    3  A    between atoms: N_3  and  C_4
REMARK    4  A    between atoms: C_4  and  C_5
REMARK    5  A    between atoms: C_6  and  C_8
REMARK    6  A    between atoms: C_9  and  C_10
REMARK    7  A    between atoms: N_11  and  C_12
REMARK    8  A    between atoms: C_12  and  C_13
REMARK    9  A    between atoms: C_21  and  C_22
REMARK   10  A    between atoms: C_22  and  C_23
REMARK   11  A    between atoms: N_25  and  C_26
REMARK                            x       y       z     vdW  Elec       q    Type
REMARK                         _______ _______ _______ _____ _____    ______ ____
ROOT
ATOM      1  C   UNL     1      -1.002  11.440  19.760  0.00  0.00    +0.000 C 
ATOM      2  C   UNL     1      -2.204  11.238  19.152  0.00  0.00    +0.000 C 
ATOM      3  C   UNL     1      -2.529  10.038  18.283  0.00  0.00    +0.000 C 
ATOM      4  N   UNL     1      -3.249  12.189  19.327  0.00  0.00    +0.000 N 
ATOM      5  C   UNL     1      -3.200  13.189  20.309  0.00  0.00    +0.000 C 
ATOM      6  O   UNL     1      -4.088  14.024  20.483  0.00  0.00    +0.000 OA
ATOM      7  C   UNL     1      -2.043  13.128  21.271  0.00  0.00    +0.000 C 
ATOM      8  C   UNL     1      -0.812  12.779  20.433  0.00  0.00    +0.000 C 
ENDROOT
BRANCH   1  10
ATOM      9  N   UNL     1       0.326   9.375  20.474  0.00  0.00    +0.000 N 
ATOM     10  C   UNL     1       0.166  10.483  19.624  0.00  0.00    +0.000 C 
ATOM     11  O   UNL     1       0.991  10.703  18.732  0.00  0.00    +0.000 OA
BRANCH   9  13
ATOM     12  C   UNL     1       1.398   7.145  20.734  0.00  0.00    +0.000 C 
ATOM     13  C   UNL     1       1.564   8.599  20.312  0.00  0.00    +0.000 C 
ENDBRANCH   9  13
BRANCH   9  14
ATOM     14  C   UNL     1      -0.468   9.090  21.668  0.00  0.00    +0.000 C 
ATOM     15  C   UNL     1       0.055   9.548  23.020  0.00  0.00    +0.000 C 
ENDBRANCH   9  14
ENDBRANCH   1  10
BRANCH   4  16
ATOM     16  C   UNL     1      -4.471  12.187  18.502  0.00  0.00    +0.000 C 
BRANCH  16  17
ATOM     17  C   UNL     1      -5.660  11.456  19.094  0.00  0.00    +0.000 A 
ATOM     18  C   UNL     1      -5.979  10.158  18.666  0.00  0.00    +0.000 A 
ATOM     19  C   UNL     1      -6.989   9.422  19.295  0.00  0.00    +0.000 A 
ATOM     20  C   UNL     1      -7.700   9.974  20.358  0.00  0.00    +0.000 A 
ATOM     21  C   UNL     1      -7.411  11.266  20.784  0.00  0.00    +0.000 A 
ATOM     22  C   UNL     1      -6.400  12.002  20.158  0.00  0.00    +0.000 A 
ENDBRANCH  16  17
ENDBRANCH   4  16
BRANCH   7  23
ATOM     23  C   UNL     1      -2.367  12.154  22.417  0.00  0.00    +0.000 C 
BRANCH  23  24
ATOM     24  C   UNL     1      -3.288  12.758  23.459  0.00  0.00    +0.000 C 
ATOM     25  O   UNL     1      -2.860  13.503  24.337  0.00  0.00    +0.000 OA
ATOM     26  N   UNL     1      -4.605  12.369  23.336  0.00  0.00    +0.000 N 
ATOM     27  H   UNL     1      -4.876  11.760  22.574  0.00  0.00    +0.000 HD
BRANCH  26  28
ATOM     28  C   UNL     1      -5.627  12.821  24.224  0.00  0.00    +0.000 C 
ATOM     29  C   UNL     1      -6.583  13.911  23.827  0.00  0.00    +0.000 C 
ATOM     30  C   UNL     1      -7.069  12.495  23.933  0.00  0.00    +0.000 C 
ENDBRANCH  26  28
ENDBRANCH  23  24
ENDBRANCH   7  23
TORSDOF 8
ENDMDL
MODEL 5
REMARK VINA RESULT:      -6.6      3.947      6.914
REMARK  Name = 
REMARK  11 active torsions:
REMARK  status: ('A' for Active; 'I' for Inactive)
REMARK    1  A    between atoms: C_1  and  C_2
REMARK    2  A    between atoms: C_2  and  N_3
REMARK    3  A    between atoms: N_3  and  C_4
REMARK    4  A    between atoms: C_4  and  C_5
REMARK    5  A    between atoms: C_6  and  C_8
REMARK    6  A    between atoms: C_9  and  C_10
REMARK    7  A    between atoms: N_11  and  C_12
REMARK    8  A    between atoms: C_12  and  C_13
REMARK    9  A    between atoms: C_21  and  C_22
REMARK   10  A    between atoms: C_22  and  C_23
REMARK   11  A    between atoms: N_25  and  C_26
REMARK                            x       y       z     vdW  Elec       q    Type
REMARK                         _______ _______ _______ _____ _____    ______ ____
ROOT
ATOM      1  C   UNL     1       0.575  10.277  20.765  0.00  0.00    +0.000 C 
ATOM      2  C   UNL     1       1.165   9.049  20.770  0.00  0.00    +0.000 C 
ATOM      3  C   UNL     1       1.185   8.119  21.968  0.00  0.00    +0.000 C 
ATOM      4  N   UNL     1       1.807   8.572  19.592  0.00  0.00    +0.000 N 
ATOM      5  C   UNL     1       1.633   9.182  18.341  0.00  0.00    +0.000 C 
ATOM      6  O   UNL     1       2.176   8.792  17.307  0.00  0.00    +0.000 OA
ATOM      7  C   UNL     1       0.620  10.294  18.272  0.00  0.00    +0.000 C 
ATOM      8  C   UNL     1       0.816  11.127  19.539  0.00  0.00    +0.000 C 
ENDROOT
BRANCH   1  10
ATOM      9  N   UNL     1      -1.180  11.786  21.851  0.00  0.00    +0.000 N 
ATOM     10  C   UNL     1      -0.125  10.865  21.974  0.00  0.00    +0.000 C 
ATOM     11  O   UNL     1       0.260  10.510  23.092  0.00  0.00    +0.000 OA
BRANCH   9  13
ATOM     12  C   UNL     1      -3.180  12.125  23.291  0.00  0.00    +0.000 C 
ATOM     13  C   UNL     1      -1.689  12.369  23.100  0.00  0.00    +0.000 C 
ENDBRANCH   9  13
BRANCH   9  14
ATOM     14  C   UNL     1      -1.623  12.420  20.610  0.00  0.00    +0.000 C 
ATOM     15  C   UNL     1      -1.291  13.885  20.379  0.00  0.00    +0.000 C 
ENDBRANCH   9  14
ENDBRANCH   1  10
BRANCH   4  16
ATOM     16  C   UNL     1       2.688   7.391  19.591  0.00  0.00    +0.000 C 
BRANCH  16  17
ATOM     17  C   UNL     1       2.001   6.060  19.357  0.00  0.00    +0.000 A 
ATOM     18  C   UNL     1       1.986   5.486  18.075  0.00  0.00    +0.000 A 
ATOM     19  C   UNL     1       1.476   4.200  17.870  0.00  0.00    +0.000 A 
ATOM     20  C   UNL     1       0.966   3.470  18.940  0.00  0.00    +0.000 A 
ATOM     21  C   UNL     1       0.955   4.028  20.215  0.00  0.00    +0.000 A 
ATOM     22  C   UNL     1       1.468   5.313  20.421  0.00  0.00    +0.000 A 
ENDBRANCH  16  17
ENDBRANCH   4  16
BRANCH   7  23
ATOM     23  C   UNL     1      -0.787   9.707  18.071  0.00  0.00    +0.000 C 
BRANCH  23  24
ATOM     24  C   UNL     1      -1.656  10.558  17.166  0.00  0.00    +0.000 C 
ATOM     25  O   UNL     1      -1.954  11.712  17.465  0.00  0.00    +0.000 OA
ATOM     26  N   UNL     1      -2.085   9.909  16.028  0.00  0.00    +0.000 N 
ATOM     27  H   UNL     1      -1.783   8.959  15.852  0.00  0.00    +0.000 HD
BRANCH  26  28
ATOM     28  C   UNL     1      -2.919  10.534  15.053  0.00  0.00    +0.000 C 
ATOM     29  C   UNL     1      -3.021   9.999  13.652  0.00  0.00    +0.000 C 
ATOM     30  C   UNL     1      -4.179   9.848  14.594  0.00  0.00    +0.000 C 
ENDBRANCH  26  28
ENDBRANCH  23  24
ENDBRANCH   7  23
TORSDOF 8
ENDMDL
MODEL 6
REMARK VINA RESULT:      -6.5      4.508      9.038
REMARK  Name = 
REMARK  11 active torsions:
REMARK  status: ('A' for Active; 'I' for Inactive)
REMARK    1  A    between atoms: C_1  and  C_2
REMARK    2  A    between atoms: C_2  and  N_3
REMARK    3  A    between atoms: N_3  and  C_4
REMARK    4  A    between atoms: C_4  and  C_5
REMARK    5  A    between atoms: C_6  and  C_8
REMARK    6  A    between atoms: C_9  and  C_10
REMARK    7  A    between atoms: N_11  and  C_12
REMARK    8  A    between atoms: C_12  and  C_13
REMARK    9  A    between atoms: C_21  and  C_22
REMARK   10  A    between atoms: C_22  and  C_23
REMARK   11  A    between atoms: N_25  and  C_26
REMARK                            x       y       z     vdW  Elec       q    Type
REMARK                         _______ _______ _______ _____ _____    ______ ____
ROOT
ATOM      1  C   UNL     1      -0.232  11.183  21.019  0.00  0.00    +0.000 C 
ATOM      2  C   UNL     1       0.744  12.068  20.674  0.00  0.00    +0.000 C 
ATOM      3  C   UNL     1       1.133  13.274  21.508  0.00  0.00    +0.000 C 
ATOM      4  N   UNL     1       1.473  11.877  19.466  0.00  0.00    +0.000 N 
ATOM      5  C   UNL     1       1.425  10.677  18.741  0.00  0.00    +0.000 C 
ATOM      6  O   UNL     1       2.043  10.484  17.694  0.00  0.00    +0.000 OA
ATOM      7  C   UNL     1       0.670   9.539  19.375  0.00  0.00    +0.000 C 
ATOM      8  C   UNL     1      -0.596  10.152  19.975  0.00  0.00    +0.000 C 
ENDROOT
BRANCH   1  10
ATOM      9  N   UNL     1      -2.203  12.127  22.346  0.00  0.00    +0.000 N 
ATOM     10  C   UNL     1      -1.059  11.312  22.283  0.00  0.00    +0.000 C 
ATOM     11  O   UNL     1      -0.699  10.672  23.276  0.00  0.00    +0.000 OA
BRANCH   9  13
ATOM     12  C   UNL     1      -4.262  12.799  23.570  0.00  0.00    +0.000 C 
ATOM     13  C   UNL     1      -2.842  12.257  23.664  0.00  0.00    +0.000 C 
ENDBRANCH   9  13
BRANCH   9  14
ATOM     14  C   UNL     1      -2.645  13.063  21.314  0.00  0.00    +0.000 C 
ATOM     15  C   UNL     1      -3.388  12.519  20.105  0.00  0.00    +0.000 C 
ENDBRANCH   9  14
ENDBRANCH   1  10
BRANCH   4  16
ATOM     16  C   UNL     1       2.345  12.917  18.893  0.00  0.00    +0.000 C 
BRANCH  16  17
ATOM     17  C   UNL     1       1.694  14.268  18.668  0.00  0.00    +0.000 A 
ATOM     18  C   UNL     1       0.299  14.370  18.546  0.00  0.00    +0.000 A 
ATOM     19  C   UNL     1      -0.326  15.620  18.473  0.00  0.00    +0.000 A 
ATOM     20  C   UNL     1       0.434  16.786  18.513  0.00  0.00    +0.000 A 
ATOM     21  C   UNL     1       1.820  16.704  18.614  0.00  0.00    +0.000 A 
ATOM     22  C   UNL     1       2.444  15.456  18.690  0.00  0.00    +0.000 A 
ENDBRANCH  16  17
ENDBRANCH   4  16
BRANCH   7  23
ATOM     23  C   UNL     1       1.582   8.793  20.363  0.00  0.00    +0.000 C 
BRANCH  23  24
ATOM     24  C   UNL     1       2.036   7.444  19.839  0.00  0.00    +0.000 C 
ATOM     25  O   UNL     1       2.552   7.328  18.731  0.00  0.00    +0.000 OA
ATOM     26  N   UNL     1       1.787   6.395  20.700  0.00  0.00    +0.000 N 
ATOM     27  H   UNL     1       1.368   6.580  21.603  0.00  0.00    +0.000 HD
BRANCH  26  28
ATOM     28  C   UNL     1       2.131   5.046  20.390  0.00  0.00    +0.000 C 
ATOM     29  C   UNL     1       2.089   3.967  21.436  0.00  0.00    +0.000 C 
ATOM     30  C   UNL     1       1.057   3.990  20.347  0.00  0.00    +0.000 C 
ENDBRANCH  26  28
ENDBRANCH  23  24
ENDBRANCH   7  23
TORSDOF 8
ENDMDL
MODEL 7
REMARK VINA RESULT:      -6.5      8.386     10.445
REMARK  Name = 
REMARK  11 active torsions:
REMARK  status: ('A' for Active; 'I' for Inactive)
REMARK    1  A    between atoms: C_1  and  C_2
REMARK    2  A    between atoms: C_2  and  N_3
REMARK    3  A    between atoms: N_3  and  C_4
REMARK    4  A    between atoms: C_4  and  C_5
REMARK    5  A    between atoms: C_6  and  C_8
REMARK    6  A    between atoms: C_9  and  C_10
REMARK    7  A    between atoms: N_11  and  C_12
REMARK    8  A    between atoms: C_12  and  C_13
REMARK    9  A    between atoms: C_21  and  C_22
REMARK   10  A    between atoms: C_22  and  C_23
REMARK   11  A    between atoms: N_25  and  C_26
REMARK                            x       y       z     vdW  Elec       q    Type
REMARK                         _______ _______ _______ _____ _____    ______ ____
ROOT
ATOM      1  C   UNL     1       1.121  13.789  20.269  0.00  0.00    +0.000 C 
ATOM      2  C   UNL     1       0.269  13.549  21.304  0.00  0.00    +0.000 C 
ATOM      3  C   UNL     1      -0.096  14.574  22.362  0.00  0.00    +0.000 C 
ATOM      4  N   UNL     1      -0.343  12.270  21.431  0.00  0.00    +0.000 N 
ATOM      5  C   UNL     1      -0.327  11.324  20.396  0.00  0.00    +0.000 C 
ATOM      6  O   UNL     1      -0.847  10.210  20.477  0.00  0.00    +0.000 OA
ATOM      7  C   UNL     1       0.253  11.776  19.082  0.00  0.00    +0.000 C 
ATOM      8  C   UNL     1       1.498  12.593  19.426  0.00  0.00    +0.000 C 
ENDROOT
BRANCH   1  10
ATOM      9  N   UNL     1       1.160  16.228  19.505  0.00  0.00    +0.000 N 
ATOM     10  C   UNL     1       1.819  15.118  20.061  0.00  0.00    +0.000 C 
ATOM     11  O   UNL     1       3.004  15.206  20.397  0.00  0.00    +0.000 OA
BRANCH   9  13
ATOM     12  C   UNL     1       1.849  18.468  20.340  0.00  0.00    +0.000 C 
ATOM     13  C   UNL     1       1.986  17.418  19.247  0.00  0.00    +0.000 C 
ENDBRANCH   9  13
BRANCH   9  14
ATOM     14  C   UNL     1      -0.175  16.222  18.909  0.00  0.00    +0.000 C 
ATOM     15  C   UNL     1      -0.494  17.233  17.821  0.00  0.00    +0.000 C 
ENDBRANCH   9  14
ENDBRANCH   1  10
BRANCH   4  16
ATOM     16  C   UNL     1      -1.054  11.847  22.650  0.00  0.00    +0.000 C 
BRANCH  16  17
ATOM     17  C   UNL     1      -2.527  12.202  22.707  0.00  0.00    +0.000 A 
ATOM     18  C   UNL     1      -3.192  12.272  23.941  0.00  0.00    +0.000 A 
ATOM     19  C   UNL     1      -4.512  12.727  24.022  0.00  0.00    +0.000 A 
ATOM     20  C   UNL     1      -5.191  13.113  22.868  0.00  0.00    +0.000 A 
ATOM     21  C   UNL     1      -4.555  13.033  21.633  0.00  0.00    +0.000 A 
ATOM     22  C   UNL     1      -3.235  12.581  21.553  0.00  0.00    +0.000 A 
ENDBRANCH  16  17
ENDBRANCH   4  16
BRANCH   7  23
ATOM     23  C   UNL     1      -0.821  12.511  18.262  0.00  0.00    +0.000 C 
BRANCH  23  24
ATOM     24  C   UNL     1      -1.891  11.579  17.726  0.00  0.00    +0.000 C 
ATOM     25  O   UNL     1      -1.612  10.465  17.292  0.00  0.00    +0.000 OA
ATOM     26  N   UNL     1      -3.163  12.114  17.749  0.00  0.00    +0.000 N 
ATOM     27  H   UNL     1      -3.308  13.038  18.135  0.00  0.00    +0.000 HD
BRANCH  26  28
ATOM     28  C   UNL     1      -4.306  11.400  17.281  0.00  0.00    +0.000 C 
ATOM     29  C   UNL     1      -5.365  10.911  18.229  0.00  0.00    +0.000 C 
ATOM     30  C   UNL     1      -5.662  12.057  17.307  0.00  0.00    +0.000 C 
ENDBRANCH  26  28
ENDBRANCH  23  24
ENDBRANCH   7  23
TORSDOF 8
ENDMDL
MODEL 8
REMARK VINA RESULT:      -6.5      5.278      9.830
REMARK  Name = 
REMARK  11 active torsions:
REMARK  status: ('A' for Active; 'I' for Inactive)
REMARK    1  A    between atoms: C_1  and  C_2
REMARK    2  A    between atoms: C_2  and  N_3
REMARK    3  A    between atoms: N_3  and  C_4
REMARK    4  A    between atoms: C_4  and  C_5
REMARK    5  A    between atoms: C_6  and  C_8
REMARK    6  A    between atoms: C_9  and  C_10
REMARK    7  A    between atoms: N_11  and  C_12
REMARK    8  A    between atoms: C_12  and  C_13
REMARK    9  A    between atoms: C_21  and  C_22
REMARK   10  A    between atoms: C_22  and  C_23
REMARK   11  A    between atoms: N_25  and  C_26
REMARK                            x       y       z     vdW  Elec       q    Type
REMARK                         _______ _______ _______ _____ _____    ______ ____
ROOT
ATOM      1  C   UNL     1      -0.120  13.165  19.151  0.00  0.00    +0.000 C 
ATOM      2  C   UNL     1       0.221  12.148  19.990  0.00  0.00    +0.000 C 
ATOM      3  C   UNL     1       1.152  12.300  21.178  0.00  0.00    +0.000 C 
ATOM      4  N   UNL     1      -0.317  10.848  19.775  0.00  0.00    +0.000 N 
ATOM      5  C   UNL     1      -1.392  10.613  18.905  0.00  0.00    +0.000 C 
ATOM      6  O   UNL     1      -1.876   9.500  18.699  0.00  0.00    +0.000 OA
ATOM      7  C   UNL     1      -2.048  11.829  18.305  0.00  0.00    +0.000 C 
ATOM      8  C   UNL     1      -0.913  12.779  17.923  0.00  0.00    +0.000 C 
ENDROOT
BRANCH   1  10
ATOM      9  N   UNL     1       1.637  14.978  18.748  0.00  0.00    +0.000 N 
ATOM     10  C   UNL     1       0.409  14.578  19.302  0.00  0.00    +0.000 C 
ATOM     11  O   UNL     1      -0.276  15.386  19.937  0.00  0.00    +0.000 OA
BRANCH   9  13
ATOM     12  C   UNL     1       1.775  17.335  17.962  0.00  0.00    +0.000 C 
ATOM     13  C   UNL     1       2.088  16.339  19.071  0.00  0.00    +0.000 C 
ENDBRANCH   9  13
BRANCH   9  14
ATOM     14  C   UNL     1       2.623  14.097  18.125  0.00  0.00    +0.000 C 
ATOM     15  C   UNL     1       4.096  14.454  18.239  0.00  0.00    +0.000 C 
ENDBRANCH   9  14
ENDBRANCH   1  10
BRANCH   4  16
ATOM     16  C   UNL     1       0.201   9.651  20.461  0.00  0.00    +0.000 C 
BRANCH  16  17
ATOM     17  C   UNL     1       1.241   8.855  19.695  0.00  0.00    +0.000 A 
ATOM     18  C   UNL     1       1.745   7.656  20.223  0.00  0.00    +0.000 A 
ATOM     19  C   UNL     1       2.601   6.844  19.472  0.00  0.00    +0.000 A 
ATOM     20  C   UNL     1       2.973   7.222  18.183  0.00  0.00    +0.000 A 
ATOM     21  C   UNL     1       2.499   8.417  17.650  0.00  0.00    +0.000 A 
ATOM     22  C   UNL     1       1.641   9.227  18.400  0.00  0.00    +0.000 A 
ENDBRANCH  16  17
ENDBRANCH   4  16
BRANCH   7  23
ATOM     23  C   UNL     1      -3.090  12.395  19.284  0.00  0.00    +0.000 C 
BRANCH  23  24
ATOM     24  C   UNL     1      -4.501  11.933  18.973  0.00  0.00    +0.000 C 
ATOM     25  O   UNL     1      -4.781  11.413  17.897  0.00  0.00    +0.000 OA
ATOM     26  N   UNL     1      -5.407  12.180  19.983  0.00  0.00    +0.000 N 
ATOM     27  H   UNL     1      -5.089  12.603  20.845  0.00  0.00    +0.000 HD
BRANCH  26  28
ATOM     28  C   UNL     1      -6.786  11.828  19.882  0.00  0.00    +0.000 C 
ATOM     29  C   UNL     1      -7.264  10.438  20.197  0.00  0.00    +0.000 C 
ATOM     30  C   UNL     1      -7.586  11.567  21.132  0.00  0.00    +0.000 C 
ENDBRANCH  26  28
ENDBRANCH  23  24
ENDBRANCH   7  23
TORSDOF 8
ENDMDL
MODEL 9
REMARK VINA RESULT:      -6.5      5.771     11.292
REMARK  Name = 
REMARK  11 active torsions:
REMARK  status: ('A' for Active; 'I' for Inactive)
REMARK    1  A    between atoms: C_1  and  C_2
REMARK    2  A    between atoms: C_2  and  N_3
REMARK    3  A    between atoms: N_3  and  C_4
REMARK    4  A    between atoms: C_4  and  C_5
REMARK    5  A    between atoms: C_6  and  C_8
REMARK    6  A    between atoms: C_9  and  C_10
REMARK    7  A    between atoms: N_11  and  C_12
REMARK    8  A    between atoms: C_12  and  C_13
REMARK    9  A    between atoms: C_21  and  C_22
REMARK   10  A    between atoms: C_22  and  C_23
REMARK   11  A    between atoms: N_25  and  C_26
REMARK                            x       y       z     vdW  Elec       q    Type
REMARK                         _______ _______ _______ _____ _____    ______ ____
ROOT
ATOM      1  C   UNL     1      -0.356  11.104  19.650  0.00  0.00    +0.000 C 
ATOM      2  C   UNL     1      -1.592  11.084  19.077  0.00  0.00    +0.000 C 
ATOM      3  C   UNL     1      -2.097   9.968  18.181  0.00  0.00    +0.000 C 
ATOM      4  N   UNL     1      -2.496  12.157  19.317  0.00  0.00    +0.000 N 
ATOM      5  C   UNL     1      -2.286  13.106  20.328  0.00  0.00    +0.000 C 
ATOM      6  O   UNL     1      -3.050  14.044  20.557  0.00  0.00    +0.000 OA
ATOM      7  C   UNL     1      -1.120  12.859  21.248  0.00  0.00    +0.000 C 
ATOM      8  C   UNL     1       0.029  12.381  20.359  0.00  0.00    +0.000 C 
ENDROOT
BRANCH   1  10
ATOM      9  N   UNL     1       0.761   8.900  20.306  0.00  0.00    +0.000 N 
ATOM     10  C   UNL     1       0.670  10.007  19.445  0.00  0.00    +0.000 C 
ATOM     11  O   UNL     1       1.441  10.110  18.486  0.00  0.00    +0.000 OA
BRANCH   9  13
ATOM     12  C   UNL     1       1.593   6.572  20.591  0.00  0.00    +0.000 C 
ATOM     13  C   UNL     1       1.877   7.973  20.066  0.00  0.00    +0.000 C 
ENDBRANCH   9  13
BRANCH   9  14
ATOM     14  C   UNL     1       0.037   8.732  21.565  0.00  0.00    +0.000 C 
ATOM     15  C   UNL     1       0.646   9.296  22.838  0.00  0.00    +0.000 C 
ENDBRANCH   9  14
ENDBRANCH   1  10
BRANCH   4  16
ATOM     16  C   UNL     1      -3.730  12.345  18.533  0.00  0.00    +0.000 C 
BRANCH  16  17
ATOM     17  C   UNL     1      -4.982  11.725  19.123  0.00  0.00    +0.000 A 
ATOM     18  C   UNL     1      -5.546  12.248  20.298  0.00  0.00    +0.000 A 
ATOM     19  C   UNL     1      -6.771  11.775  20.779  0.00  0.00    +0.000 A 
ATOM     20  C   UNL     1      -7.449  10.766  20.097  0.00  0.00    +0.000 A 
ATOM     21  C   UNL     1      -6.897  10.222  18.942  0.00  0.00    +0.000 A 
ATOM     22  C   UNL     1      -5.673  10.697  18.459  0.00  0.00    +0.000 A 
ENDBRANCH  16  17
ENDBRANCH   4  16
BRANCH   7  23
ATOM     23  C   UNL     1      -1.537  11.896  22.372  0.00  0.00    +0.000 C 
BRANCH  23  24
ATOM     24  C   UNL     1      -2.535  12.512  23.334  0.00  0.00    +0.000 C 
ATOM     25  O   UNL     1      -3.458  11.855  23.807  0.00  0.00    +0.000 OA
ATOM     26  N   UNL     1      -2.318  13.851  23.585  0.00  0.00    +0.000 N 
ATOM     27  H   UNL     1      -1.524  14.315  23.163  0.00  0.00    +0.000 HD
BRANCH  26  28
ATOM     28  C   UNL     1      -3.151  14.615  24.456  0.00  0.00    +0.000 C 
ATOM     29  C   UNL     1      -2.656  15.093  25.792  0.00  0.00    +0.000 C 
ATOM     30  C   UNL     1      -2.861  16.077  24.678  0.00  0.00    +0.000 C 
ENDBRANCH  26  28
ENDBRANCH  23  24
ENDBRANCH   7  23
TORSDOF 8
ENDMDL
