MODEL 1
REMARK VINA RESULT:      -6.9      0.000      0.000
REMARK  Name = 
REMARK  6 active torsions:
REMARK  status: ('A' for Active; 'I' for Inactive)
REMARK    1  A    between atoms: C_1  and  O_2
REMARK    2  A    between atoms: O_2  and  C_3
REMARK    3  A    between atoms: C_6  and  C_7
REMARK    4  A    between atoms: C_9  and  C_10
REMARK    5  A    between atoms: C_14  and  C_15
REMARK    6  A    between atoms: C_16  and  O_17
REMARK                            x       y       z     vdW  Elec       q    Type
REMARK                         _______ _______ _______ _____ _____    ______ ____
ROOT
ATOM      1  C   UNL     1       3.611   6.631  18.035  0.00  0.00    +0.000 A 
ATOM      2  C   UNL     1       2.987   5.668  18.865  0.00  0.00    +0.000 A 
ATOM      3  C   UNL     1       3.134   4.280  18.576  0.00  0.00    +0.000 A 
ATOM      4  C   UNL     1       3.925   3.838  17.457  0.00  0.00    +0.000 A 
ATOM      5  C   UNL     1       4.049   2.380  17.092  0.00  0.00    +0.000 C 
ATOM      6  C   UNL     1       4.592   4.815  16.672  0.00  0.00    +0.000 A 
ATOM      7  C   UNL     1       5.439   4.812  15.508  0.00  0.00    +0.000 A 
ATOM      8  C   UNL     1       5.935   3.691  14.686  0.00  0.00    +0.000 C 
ATOM      9  C   UNL     1       5.726   6.136  15.243  0.00  0.00    +0.000 A 
ATOM     10  O   UNL     1       5.169   6.936  16.171  0.00  0.00    +0.000 OA
ATOM     11  C   UNL     1       4.438   6.155  17.013  0.00  0.00    +0.000 A 
ATOM     12  C   UNL     1       2.466   3.241  19.486  0.00  0.00    +0.000 C 
ATOM     13  C   UNL     1       3.531   2.599  20.395  0.00  0.00    +0.000 C 
ATOM     14  C   UNL     1       1.273   3.810  20.278  0.00  0.00    +0.000 C 
ATOM     15  C   UNL     1       1.670   5.085  20.999  0.00  0.00    +0.000 C 
ATOM     16  C   UNL     1       2.076   6.151  19.987  0.00  0.00    +0.000 C 
ENDROOT
BRANCH   1  18
ATOM     17  C   UNL     1       2.194   8.466  17.564  0.00  0.00    +0.000 C 
ATOM     18  O   UNL     1       3.353   7.976  18.257  0.00  0.00    +0.000 OA
ENDBRANCH   1  18
BRANCH  14  19
ATOM     19  O   UNL     1       0.758   2.856  21.206  0.00  0.00    +0.000 OA
ATOM     20  H   UNL     1       0.182   3.321  21.837  0.00  0.00    +0.000 HD
ENDBRANCH  14  19
TORSDOF 2
ENDMDL
MODEL 2
REMARK VINA RESULT:      -6.7      1.606      5.828
REMARK  Name = 
REMARK  6 active torsions:
REMARK  status: ('A' for Active; 'I' for Inactive)
REMARK    1  A    between atoms: C_1  and  O_2
REMARK    2  A    between atoms: O_2  and  C_3
REMARK    3  A    between atoms: C_6  and  C_7
REMARK    4  A    between atoms: C_9  and  C_10
REMARK    5  A    between atoms: C_14  and  C_15
REMARK    6  A    between atoms: C_16  and  O_17
REMARK                            x       y       z     vdW  Elec       q    Type
REMARK                         _______ _______ _______ _____ _____    ______ ____
ROOT
ATOM      1  C   UNL     1       3.684   3.760  18.635  0.00  0.00    +0.000 A 
ATOM      2  C   UNL     1       4.464   4.289  17.578  0.00  0.00    +0.000 A 
ATOM      3  C   UNL     1       4.414   5.684  17.289  0.00  0.00    +0.000 A 
ATOM      4  C   UNL     1       3.592   6.571  18.071  0.00  0.00    +0.000 A 
ATOM      5  C   UNL     1       3.474   8.041  17.750  0.00  0.00    +0.000 C 
ATOM      6  C   UNL     1       2.865   6.033  19.164  0.00  0.00    +0.000 A 
ATOM      7  C   UNL     1       1.953   6.539  20.156  0.00  0.00    +0.000 A 
ATOM      8  C   UNL     1       1.439   7.905  20.378  0.00  0.00    +0.000 C 
ATOM      9  C   UNL     1       1.584   5.453  20.924  0.00  0.00    +0.000 A 
ATOM     10  O   UNL     1       2.230   4.344  20.516  0.00  0.00    +0.000 OA
ATOM     11  C   UNL     1       2.969   4.669  19.421  0.00  0.00    +0.000 A 
ATOM     12  C   UNL     1       5.271   6.254  16.151  0.00  0.00    +0.000 C 
ATOM     13  C   UNL     1       6.490   6.983  16.745  0.00  0.00    +0.000 C 
ATOM     14  C   UNL     1       5.664   5.195  15.102  0.00  0.00    +0.000 C 
ATOM     15  C   UNL     1       6.275   3.979  15.775  0.00  0.00    +0.000 C 
ATOM     16  C   UNL     1       5.254   3.326  16.700  0.00  0.00    +0.000 C 
ENDROOT
BRANCH   1  18
ATOM     17  C   UNL     1       4.422   1.931  19.941  0.00  0.00    +0.000 C 
ATOM     18  O   UNL     1       3.649   2.385  18.819  0.00  0.00    +0.000 OA
ENDBRANCH   1  18
BRANCH  14  19
ATOM     19  O   UNL     1       6.562   5.729  14.131  0.00  0.00    +0.000 OA
ATOM     20  H   UNL     1       6.212   5.528  13.245  0.00  0.00    +0.000 HD
ENDBRANCH  14  19
TORSDOF 2
ENDMDL
MODEL 3
REMARK VINA RESULT:      -6.6      1.681      4.278
REMARK  Name = 
REMARK  6 active torsions:
REMARK  status: ('A' for Active; 'I' for Inactive)
REMARK    1  A    between atoms: C_1  and  O_2
REMARK    2  A    between atoms: O_2  and  C_3
REMARK    3  A    between atoms: C_6  and  C_7
REMARK    4  A    between atoms: C_9  and  C_10
REMARK    5  A    between atoms: C_14  and  C_15
REMARK    6  A    between atoms: C_16  and  O_17
REMARK                            x       y       z     vdW  Elec       q    Type
REMARK                         _______ _______ _______ _____ _____    ______ ____
ROOT
ATOM      1  C   UNL     1       3.579   6.434  17.757  0.00  0.00    +0.000 A 
ATOM      2  C   UNL     1       3.402   5.369  18.674  0.00  0.00    +0.000 A 
ATOM      3  C   UNL     1       2.573   5.549  19.819  0.00  0.00    +0.000 A 
ATOM      4  C   UNL     1       1.895   6.798  20.051  0.00  0.00    +0.000 A 
ATOM      5  C   UNL     1       1.061   7.037  21.285  0.00  0.00    +0.000 C 
ATOM      6  C   UNL     1       2.036   7.833  19.091  0.00  0.00    +0.000 A 
ATOM      7  C   UNL     1       1.562   9.184  18.942  0.00  0.00    +0.000 A 
ATOM      8  C   UNL     1       0.695   9.999  19.815  0.00  0.00    +0.000 C 
ATOM      9  C   UNL     1       2.106   9.650  17.761  0.00  0.00    +0.000 A 
ATOM     10  O   UNL     1       2.826   8.685  17.159  0.00  0.00    +0.000 OA
ATOM     11  C   UNL     1       2.834   7.597  17.976  0.00  0.00    +0.000 A 
ATOM     12  C   UNL     1       2.375   4.388  20.802  0.00  0.00    +0.000 C 
ATOM     13  C   UNL     1       0.986   3.762  20.580  0.00  0.00    +0.000 C 
ATOM     14  C   UNL     1       3.512   3.348  20.745  0.00  0.00    +0.000 C 
ATOM     15  C   UNL     1       3.755   2.900  19.315  0.00  0.00    +0.000 C 
ATOM     16  C   UNL     1       4.199   4.087  18.467  0.00  0.00    +0.000 C 
ENDROOT
BRANCH   1  18
ATOM     17  C   UNL     1       5.767   6.879  16.976  0.00  0.00    +0.000 C 
ATOM     18  O   UNL     1       4.486   6.281  16.719  0.00  0.00    +0.000 OA
ENDBRANCH   1  18
BRANCH  14  19
ATOM     19  O   UNL     1       3.233   2.222  21.577  0.00  0.00    +0.000 OA
ATOM     20  H   UNL     1       3.170   2.529  22.498  0.00  0.00    +0.000 HD
ENDBRANCH  14  19
TORSDOF 2
ENDMDL
MODEL 4
REMARK VINA RESULT:      -6.4      1.640      4.920
REMARK  Name = 
REMARK  6 active torsions:
REMARK  status: ('A' for Active; 'I' for Inactive)
REMARK    1  A    between atoms: C_1  and  O_2
REMARK    2  A    between atoms: O_2  and  C_3
REMARK    3  A    between atoms: C_6  and  C_7
REMARK    4  A    between atoms: C_9  and  C_10
REMARK    5  A    between atoms: C_14  and  C_15
REMARK    6  A    between atoms: C_16  and  O_17
REMARK                            x       y       z     vdW  Elec       q    Type
REMARK                         _______ _______ _______ _____ _____    ______ ____
ROOT
ATOM      1  C   UNL     1       3.279   7.060  18.314  0.00  0.00    +0.000 A 
ATOM      2  C   UNL     1       4.248   6.402  17.517  0.00  0.00    +0.000 A 
ATOM      3  C   UNL     1       4.636   5.066  17.831  0.00  0.00    +0.000 A 
ATOM      4  C   UNL     1       4.043   4.366  18.939  0.00  0.00    +0.000 A 
ATOM      5  C   UNL     1       4.477   2.975  19.331  0.00  0.00    +0.000 C 
ATOM      6  C   UNL     1       3.030   5.019  19.689  0.00  0.00    +0.000 A 
ATOM      7  C   UNL     1       2.215   4.702  20.832  0.00  0.00    +0.000 A 
ATOM      8  C   UNL     1       2.162   3.485  21.665  0.00  0.00    +0.000 C 
ATOM      9  C   UNL     1       1.434   5.817  21.064  0.00  0.00    +0.000 A 
ATOM     10  O   UNL     1       1.669   6.761  20.133  0.00  0.00    +0.000 OA
ATOM     11  C   UNL     1       2.667   6.312  19.325  0.00  0.00    +0.000 A 
ATOM     12  C   UNL     1       5.678   4.354  16.957  0.00  0.00    +0.000 C 
ATOM     13  C   UNL     1       4.967   3.344  16.037  0.00  0.00    +0.000 C 
ATOM     14  C   UNL     1       6.584   5.330  16.182  0.00  0.00    +0.000 C 
ATOM     15  C   UNL     1       5.750   6.349  15.426  0.00  0.00    +0.000 C 
ATOM     16  C   UNL     1       4.937   7.187  16.408  0.00  0.00    +0.000 C 
ENDROOT
BRANCH   1  18
ATOM     17  C   UNL     1       1.659   8.648  17.643  0.00  0.00    +0.000 C 
ATOM     18  O   UNL     1       3.008   8.398  18.070  0.00  0.00    +0.000 OA
ENDBRANCH   1  18
BRANCH  14  19
ATOM     19  O   UNL     1       7.453   4.638  15.286  0.00  0.00    +0.000 OA
ATOM     20  H   UNL     1       7.538   3.718  15.591  0.00  0.00    +0.000 HD
ENDBRANCH  14  19
TORSDOF 2
ENDMDL
MODEL 5
REMARK VINA RESULT:      -6.4      1.577      4.298
REMARK  Name = 
REMARK  6 active torsions:
REMARK  status: ('A' for Active; 'I' for Inactive)
REMARK    1  A    between atoms: C_1  and  O_2
REMARK    2  A    between atoms: O_2  and  C_3
REMARK    3  A    between atoms: C_6  and  C_7
REMARK    4  A    between atoms: C_9  and  C_10
REMARK    5  A    between atoms: C_14  and  C_15
REMARK    6  A    between atoms: C_16  and  O_17
REMARK                            x       y       z     vdW  Elec       q    Type
REMARK                         _______ _______ _______ _____ _____    ______ ____
ROOT
ATOM      1  C   UNL     1       3.776   6.233  17.431  0.00  0.00    +0.000 A 
ATOM      2  C   UNL     1       3.692   4.844  17.697  0.00  0.00    +0.000 A 
ATOM      3  C   UNL     1       2.916   4.379  18.799  0.00  0.00    +0.000 A 
ATOM      4  C   UNL     1       2.200   5.302  19.640  0.00  0.00    +0.000 A 
ATOM      5  C   UNL     1       1.421   4.844  20.848  0.00  0.00    +0.000 C 
ATOM      6  C   UNL     1       2.248   6.684  19.322  0.00  0.00    +0.000 A 
ATOM      7  C   UNL     1       1.711   7.898  19.879  0.00  0.00    +0.000 A 
ATOM      8  C   UNL     1       0.857   8.115  21.063  0.00  0.00    +0.000 C 
ATOM      9  C   UNL     1       2.173   8.922  19.076  0.00  0.00    +0.000 A 
ATOM     10  O   UNL     1       2.900   8.432  18.055  0.00  0.00    +0.000 OA
ATOM     11  C   UNL     1       2.996   7.085  18.219  0.00  0.00    +0.000 A 
ATOM     12  C   UNL     1       2.818   2.873  19.075  0.00  0.00    +0.000 C 
ATOM     13  C   UNL     1       1.447   2.356  18.604  0.00  0.00    +0.000 C 
ATOM     14  C   UNL     1       3.993   2.072  18.479  0.00  0.00    +0.000 C 
ATOM     15  C   UNL     1       4.180   2.411  17.011  0.00  0.00    +0.000 C 
ATOM     16  C   UNL     1       4.530   3.887  16.858  0.00  0.00    +0.000 C 
ENDROOT
BRANCH   1  18
ATOM     17  C   UNL     1       5.940   7.036  16.912  0.00  0.00    +0.000 C 
ATOM     18  O   UNL     1       4.635   6.673  16.434  0.00  0.00    +0.000 OA
ENDBRANCH   1  18
BRANCH  14  19
ATOM     19  O   UNL     1       3.804   0.667  18.643  0.00  0.00    +0.000 OA
ATOM     20  H   UNL     1       4.137   0.413  19.522  0.00  0.00    +0.000 HD
ENDBRANCH  14  19
TORSDOF 2
ENDMDL
MODEL 6
REMARK VINA RESULT:      -6.3      1.395      1.523
REMARK  Name = 
REMARK  6 active torsions:
REMARK  status: ('A' for Active; 'I' for Inactive)
REMARK    1  A    between atoms: C_1  and  O_2
REMARK    2  A    between atoms: O_2  and  C_3
REMARK    3  A    between atoms: C_6  and  C_7
REMARK    4  A    between atoms: C_9  and  C_10
REMARK    5  A    between atoms: C_14  and  C_15
REMARK    6  A    between atoms: C_16  and  O_17
REMARK                            x       y       z     vdW  Elec       q    Type
REMARK                         _______ _______ _______ _____ _____    ______ ____
ROOT
ATOM      1  C   UNL     1       3.413   6.216  18.545  0.00  0.00    +0.000 A 
ATOM      2  C   UNL     1       2.743   4.972  18.644  0.00  0.00    +0.000 A 
ATOM      3  C   UNL     1       3.189   3.862  17.869  0.00  0.00    +0.000 A 
ATOM      4  C   UNL     1       4.326   3.982  16.994  0.00  0.00    +0.000 A 
ATOM      5  C   UNL     1       4.783   2.843  16.116  0.00  0.00    +0.000 C 
ATOM      6  C   UNL     1       5.021   5.219  16.953  0.00  0.00    +0.000 A 
ATOM      7  C   UNL     1       6.153   5.752  16.241  0.00  0.00    +0.000 A 
ATOM      8  C   UNL     1       7.038   5.126  15.239  0.00  0.00    +0.000 C 
ATOM      9  C   UNL     1       6.286   7.060  16.662  0.00  0.00    +0.000 A 
ATOM     10  O   UNL     1       5.366   7.351  17.601  0.00  0.00    +0.000 OA
ATOM     11  C   UNL     1       4.563   6.263  17.750  0.00  0.00    +0.000 A 
ATOM     12  C   UNL     1       2.468   2.514  17.989  0.00  0.00    +0.000 C 
ATOM     13  C   UNL     1       3.319   1.554  18.840  0.00  0.00    +0.000 C 
ATOM     14  C   UNL     1       1.023   2.646  18.509  0.00  0.00    +0.000 C 
ATOM     15  C   UNL     1       0.986   3.473  19.782  0.00  0.00    +0.000 C 
ATOM     16  C   UNL     1       1.485   4.886  19.500  0.00  0.00    +0.000 C 
ENDROOT
BRANCH   1  18
ATOM     17  C   UNL     1       2.210   8.244  18.350  0.00  0.00    +0.000 C 
ATOM     18  O   UNL     1       2.888   7.315  19.210  0.00  0.00    +0.000 OA
ENDBRANCH   1  18
BRANCH  14  19
ATOM     19  O   UNL     1       0.427   1.369  18.729  0.00  0.00    +0.000 OA
ATOM     20  H   UNL     1      -0.392   1.317  18.206  0.00  0.00    +0.000 HD
ENDBRANCH  14  19
TORSDOF 2
ENDMDL
MODEL 7
REMARK VINA RESULT:      -6.2      1.840      5.605
REMARK  Name = 
REMARK  6 active torsions:
REMARK  status: ('A' for Active; 'I' for Inactive)
REMARK    1  A    between atoms: C_1  and  O_2
REMARK    2  A    between atoms: O_2  and  C_3
REMARK    3  A    between atoms: C_6  and  C_7
REMARK    4  A    between atoms: C_9  and  C_10
REMARK    5  A    between atoms: C_14  and  C_15
REMARK    6  A    between atoms: C_16  and  O_17
REMARK                            x       y       z     vdW  Elec       q    Type
REMARK                         _______ _______ _______ _____ _____    ______ ____
ROOT
ATOM      1  C   UNL     1       2.457   5.496  20.303  0.00  0.00    +0.000 A 
ATOM      2  C   UNL     1       3.292   5.311  19.174  0.00  0.00    +0.000 A 
ATOM      3  C   UNL     1       3.434   6.358  18.217  0.00  0.00    +0.000 A 
ATOM      4  C   UNL     1       2.750   7.614  18.390  0.00  0.00    +0.000 A 
ATOM      5  C   UNL     1       2.834   8.717  17.364  0.00  0.00    +0.000 C 
ATOM      6  C   UNL     1       1.966   7.802  19.558  0.00  0.00    +0.000 A 
ATOM      7  C   UNL     1       1.143   8.853  20.098  0.00  0.00    +0.000 A 
ATOM      8  C   UNL     1       0.826  10.193  19.567  0.00  0.00    +0.000 C 
ATOM      9  C   UNL     1       0.635   8.365  21.286  0.00  0.00    +0.000 A 
ATOM     10  O   UNL     1       1.117   7.133  21.536  0.00  0.00    +0.000 OA
ATOM     11  C   UNL     1       1.883   6.760  20.475  0.00  0.00    +0.000 A 
ATOM     12  C   UNL     1       4.349   6.157  17.003  0.00  0.00    +0.000 C 
ATOM     13  C   UNL     1       5.663   6.928  17.221  0.00  0.00    +0.000 C 
ATOM     14  C   UNL     1       4.580   4.672  16.660  0.00  0.00    +0.000 C 
ATOM     15  C   UNL     1       5.025   3.903  17.892  0.00  0.00    +0.000 C 
ATOM     16  C   UNL     1       3.931   3.946  18.955  0.00  0.00    +0.000 C 
ENDROOT
BRANCH   1  18
ATOM     17  C   UNL     1       1.116   3.605  20.773  0.00  0.00    +0.000 C 
ATOM     18  O   UNL     1       2.233   4.424  21.154  0.00  0.00    +0.000 OA
ENDBRANCH   1  18
BRANCH  14  19
ATOM     19  O   UNL     1       5.534   4.520  15.610  0.00  0.00    +0.000 OA
ATOM     20  H   UNL     1       5.853   5.403  15.354  0.00  0.00    +0.000 HD
ENDBRANCH  14  19
TORSDOF 2
ENDMDL
MODEL 8
REMARK VINA RESULT:      -6.1      2.183      5.040
REMARK  Name = 
REMARK  6 active torsions:
REMARK  status: ('A' for Active; 'I' for Inactive)
REMARK    1  A    between atoms: C_1  and  O_2
REMARK    2  A    between atoms: O_2  and  C_3
REMARK    3  A    between atoms: C_6  and  C_7
REMARK    4  A    between atoms: C_9  and  C_10
REMARK    5  A    between atoms: C_14  and  C_15
REMARK    6  A    between atoms: C_16  and  O_17
REMARK                            x       y       z     vdW  Elec       q    Type
REMARK                         _______ _______ _______ _____ _____    ______ ____
ROOT
ATOM      1  C   UNL     1       4.785   4.899  18.431  0.00  0.00    +0.000 A 
ATOM      2  C   UNL     1       3.965   6.044  18.279  0.00  0.00    +0.000 A 
ATOM      3  C   UNL     1       2.721   6.123  18.972  0.00  0.00    +0.000 A 
ATOM      4  C   UNL     1       2.292   5.059  19.842  0.00  0.00    +0.000 A 
ATOM      5  C   UNL     1       0.955   5.088  20.540  0.00  0.00    +0.000 C 
ATOM      6  C   UNL     1       3.155   3.947  20.028  0.00  0.00    +0.000 A 
ATOM      7  C   UNL     1       3.116   2.714  20.769  0.00  0.00    +0.000 A 
ATOM      8  C   UNL     1       2.074   2.160  21.656  0.00  0.00    +0.000 C 
ATOM      9  C   UNL     1       4.297   2.060  20.482  0.00  0.00    +0.000 A 
ATOM     10  O   UNL     1       5.069   2.810  19.674  0.00  0.00    +0.000 OA
ATOM     11  C   UNL     1       4.370   3.931  19.351  0.00  0.00    +0.000 A 
ATOM     12  C   UNL     1       1.843   7.370  18.814  0.00  0.00    +0.000 C 
ATOM     13  C   UNL     1       1.969   8.247  20.073  0.00  0.00    +0.000 C 
ATOM     14  C   UNL     1       2.129   8.150  17.515  0.00  0.00    +0.000 C 
ATOM     15  C   UNL     1       3.615   8.430  17.377  0.00  0.00    +0.000 C 
ATOM     16  C   UNL     1       4.386   7.118  17.283  0.00  0.00    +0.000 C 
ENDROOT
BRANCH   1  18
ATOM     17  C   UNL     1       7.134   5.167  18.335  0.00  0.00    +0.000 C 
ATOM     18  O   UNL     1       5.928   4.786  17.652  0.00  0.00    +0.000 OA
ENDBRANCH   1  18
BRANCH  14  19
ATOM     19  O   UNL     1       1.388   9.368  17.462  0.00  0.00    +0.000 OA
ATOM     20  H   UNL     1       1.932  10.040  17.016  0.00  0.00    +0.000 HD
ENDBRANCH  14  19
TORSDOF 2
ENDMDL
MODEL 9
REMARK VINA RESULT:      -5.9      1.738      3.728
REMARK  Name = 
REMARK  6 active torsions:
REMARK  status: ('A' for Active; 'I' for Inactive)
REMARK    1  A    between atoms: C_1  and  O_2
REMARK    2  A    between atoms: O_2  and  C_3
REMARK    3  A    between atoms: C_6  and  C_7
REMARK    4  A    between atoms: C_9  and  C_10
REMARK    5  A    between atoms: C_14  and  C_15
REMARK    6  A    between atoms: C_16  and  O_17
REMARK                            x       y       z     vdW  Elec       q    Type
REMARK                         _______ _______ _______ _____ _____    ______ ____
ROOT
ATOM      1  C   UNL     1       4.518   4.790  18.100  0.00  0.00    +0.000 A 
ATOM      2  C   UNL     1       3.811   4.085  19.105  0.00  0.00    +0.000 A 
ATOM      3  C   UNL     1       2.748   4.725  19.807  0.00  0.00    +0.000 A 
ATOM      4  C   UNL     1       2.370   6.079  19.499  0.00  0.00    +0.000 A 
ATOM      5  C   UNL     1       1.291   6.802  20.266  0.00  0.00    +0.000 C 
ATOM      6  C   UNL     1       3.050   6.750  18.449  0.00  0.00    +0.000 A 
ATOM      7  C   UNL     1       3.000   8.055  17.844  0.00  0.00    +0.000 A 
ATOM      8  C   UNL     1       2.144   9.219  18.146  0.00  0.00    +0.000 C 
ATOM      9  C   UNL     1       3.973   8.059  16.865  0.00  0.00    +0.000 A 
ATOM     10  O   UNL     1       4.573   6.856  16.790  0.00  0.00    +0.000 OA
ATOM     11  C   UNL     1       4.061   6.070  17.775  0.00  0.00    +0.000 A 
ATOM     12  C   UNL     1       1.978   3.952  20.886  0.00  0.00    +0.000 C 
ATOM     13  C   UNL     1       0.609   3.523  20.326  0.00  0.00    +0.000 C 
ATOM     14  C   UNL     1       2.778   2.772  21.471  0.00  0.00    +0.000 C 
ATOM     15  C   UNL     1       3.320   1.891  20.360  0.00  0.00    +0.000 C 
ATOM     16  C   UNL     1       4.284   2.687  19.487  0.00  0.00    +0.000 C 
ENDROOT
BRANCH   1  18
ATOM     17  C   UNL     1       6.879   4.740  17.963  0.00  0.00    +0.000 C 
ATOM     18  O   UNL     1       5.627   4.194  17.518  0.00  0.00    +0.000 OA
ENDBRANCH   1  18
BRANCH  14  19
ATOM     19  O   UNL     1       1.988   2.001  22.375  0.00  0.00    +0.000 OA
ATOM     20  H   UNL     1       2.516   1.240  22.673  0.00  0.00    +0.000 HD
ENDBRANCH  14  19
TORSDOF 2
ENDMDL
