MODEL 1
REMARK VINA RESULT:      -6.4      0.000      0.000
REMARK  Name = 
REMARK  9 active torsions:
REMARK  status: ('A' for Active; 'I' for Inactive)
REMARK    1  A    between atoms: C_2  and  C_3
REMARK    2  A    between atoms: C_3  and  N_4
REMARK    3  A    between atoms: C_5  and  C_6
REMARK    4  A    between atoms: C_6  and  C_7
REMARK    5  A    between atoms: C_7  and  S_8
REMARK    6  A    between atoms: S_8  and  C_9
REMARK    7  A    between atoms: C_9  and  C_10
REMARK    8  A    between atoms: C_14  and  C_15
REMARK    9  A    between atoms: N_16  and  C_17
REMARK                            x       y       z     vdW  Elec       q    Type
REMARK                         _______ _______ _______ _____ _____    ______ ____
ROOT
ATOM      1  C   UNL     1       5.004   5.959  16.391  0.00  0.00    +0.000 C 
ENDROOT
BRANCH   1   3
ATOM      2  N   UNL     1       5.370   4.613  14.476  0.00  0.00    +0.000 NA
ATOM      3  C   UNL     1       5.936   5.122  15.515  0.00  0.00    +0.000 C 
ATOM      4  N   UNL     1       7.259   4.981  15.875  0.00  0.00    +0.000 N 
ATOM      5  H   UNL     1       7.823   4.455  15.218  0.00  0.00    +0.000 HD
BRANCH   4   6
ATOM      6  C   UNL     1       7.576   4.664  17.251  0.00  0.00    +0.000 C 
ATOM      7  N   UNL     1       7.870   4.506  18.358  0.00  0.00    +0.000 NA
ENDBRANCH   4   6
BRANCH   2   8
ATOM      8  C   UNL     1       6.071   3.718  13.571  0.00  0.00    +0.000 C 
BRANCH   8  10
ATOM      9  C   UNL     1       4.502   3.221  11.476  0.00  0.00    +0.000 C 
ATOM     10  C   UNL     1       5.206   3.458  12.419  0.00  0.00    +0.000 C 
ENDBRANCH   8  10
ENDBRANCH   2   8
ENDBRANCH   1   3
BRANCH   1  11
ATOM     11  C   UNL     1       4.194   5.106  17.356  0.00  0.00    +0.000 C 
BRANCH  11  12
ATOM     12  S   UNL     1       4.458   5.621  19.090  0.00  0.00    +0.000 S 
BRANCH  12  13
ATOM     13  C   UNL     1       2.873   5.104  19.843  0.00  0.00    +0.000 C 
BRANCH  13  14
ATOM     14  C   UNL     1       2.386   3.761  19.404  0.00  0.00    +0.000 A 
ATOM     15  N   UNL     1       1.149   3.599  18.813  0.00  0.00    +0.000 NA
ATOM     16  C   UNL     1       1.014   2.310  18.603  0.00  0.00    +0.000 A 
ATOM     17  N   UNL     1       2.123   1.626  19.005  0.00  0.00    +0.000 N 
ATOM     18  C   UNL     1       3.019   2.533  19.504  0.00  0.00    +0.000 A 
ATOM     19  C   UNL     1       4.339   2.129  20.050  0.00  0.00    +0.000 C 
ATOM     20  H   UNL     1       2.241   0.623  18.971  0.00  0.00    +0.000 HD
ENDBRANCH  13  14
ENDBRANCH  12  13
ENDBRANCH  11  12
ENDBRANCH   1  11
TORSDOF 8
ENDMDL
MODEL 2
REMARK VINA RESULT:      -6.4      1.125      1.294
REMARK  Name = 
REMARK  9 active torsions:
REMARK  status: ('A' for Active; 'I' for Inactive)
REMARK    1  A    between atoms: C_2  and  C_3
REMARK    2  A    between atoms: C_3  and  N_4
REMARK    3  A    between atoms: C_5  and  C_6
REMARK    4  A    between atoms: C_6  and  C_7
REMARK    5  A    between atoms: C_7  and  S_8
REMARK    6  A    between atoms: S_8  and  C_9
REMARK    7  A    between atoms: C_9  and  C_10
REMARK    8  A    between atoms: C_14  and  C_15
REMARK    9  A    between atoms: N_16  and  C_17
REMARK                            x       y       z     vdW  Elec       q    Type
REMARK                         _______ _______ _______ _____ _____    ______ ____
ROOT
ATOM      1  C   UNL     1       5.020   6.745  17.239  0.00  0.00    +0.000 C 
ENDROOT
BRANCH   1   3
ATOM      2  N   UNL     1       6.042   5.635  15.412  0.00  0.00    +0.000 NA
ATOM      3  C   UNL     1       6.246   6.095  16.597  0.00  0.00    +0.000 C 
ATOM      4  N   UNL     1       7.435   6.055  17.294  0.00  0.00    +0.000 N 
ATOM      5  H   UNL     1       8.212   5.655  16.783  0.00  0.00    +0.000 HD
BRANCH   4   6
ATOM      6  C   UNL     1       7.414   5.639  18.680  0.00  0.00    +0.000 C 
ATOM      7  N   UNL     1       7.312   5.364  19.799  0.00  0.00    +0.000 NA
ENDBRANCH   4   6
BRANCH   2   8
ATOM      8  C   UNL     1       7.062   4.908  14.675  0.00  0.00    +0.000 C 
BRANCH   8  10
ATOM      9  C   UNL     1       5.880   3.456  12.779  0.00  0.00    +0.000 C 
ATOM     10  C   UNL     1       6.402   4.119  13.633  0.00  0.00    +0.000 C 
ENDBRANCH   8  10
ENDBRANCH   2   8
ENDBRANCH   1   3
BRANCH   1  11
ATOM     11  C   UNL     1       3.995   5.719  17.700  0.00  0.00    +0.000 C 
BRANCH  11  12
ATOM     12  S   UNL     1       2.819   6.438  18.901  0.00  0.00    +0.000 S 
BRANCH  12  13
ATOM     13  C   UNL     1       2.726   5.090  20.133  0.00  0.00    +0.000 C 
BRANCH  13  14
ATOM     14  C   UNL     1       2.272   3.776  19.584  0.00  0.00    +0.000 A 
ATOM     15  N   UNL     1       0.995   3.603  19.088  0.00  0.00    +0.000 NA
ATOM     16  C   UNL     1       0.910   2.341  18.741  0.00  0.00    +0.000 A 
ATOM     17  N   UNL     1       2.086   1.687  18.960  0.00  0.00    +0.000 N 
ATOM     18  C   UNL     1       2.976   2.588  19.482  0.00  0.00    +0.000 A 
ATOM     19  C   UNL     1       4.361   2.209  19.858  0.00  0.00    +0.000 C 
ATOM     20  H   UNL     1       2.254   0.705  18.797  0.00  0.00    +0.000 HD
ENDBRANCH  13  14
ENDBRANCH  12  13
ENDBRANCH  11  12
ENDBRANCH   1  11
TORSDOF 8
ENDMDL
MODEL 3
REMARK VINA RESULT:      -6.3      2.597      4.595
REMARK  Name = 
REMARK  9 active torsions:
REMARK  status: ('A' for Active; 'I' for Inactive)
REMARK    1  A    between atoms: C_2  and  C_3
REMARK    2  A    between atoms: C_3  and  N_4
REMARK    3  A    between atoms: C_5  and  C_6
REMARK    4  A    between atoms: C_6  and  C_7
REMARK    5  A    between atoms: C_7  and  S_8
REMARK    6  A    between atoms: S_8  and  C_9
REMARK    7  A    between atoms: C_9  and  C_10
REMARK    8  A    between atoms: C_14  and  C_15
REMARK    9  A    between atoms: N_16  and  C_17
REMARK                            x       y       z     vdW  Elec       q    Type
REMARK                         _______ _______ _______ _____ _____    ______ ____
ROOT
ATOM      1  C   UNL     1       7.158   4.927  18.309  0.00  0.00    +0.000 C 
ENDROOT
BRANCH   1   3
ATOM      2  N   UNL     1       7.633   7.241  18.119  0.00  0.00    +0.000 NA
ATOM      3  C   UNL     1       7.435   6.160  17.448  0.00  0.00    +0.000 C 
ATOM      4  N   UNL     1       7.461   6.035  16.076  0.00  0.00    +0.000 N 
ATOM      5  H   UNL     1       7.701   6.884  15.578  0.00  0.00    +0.000 HD
BRANCH   4   6
ATOM      6  C   UNL     1       6.402   5.295  15.424  0.00  0.00    +0.000 C 
ATOM      7  N   UNL     1       5.518   4.796  14.871  0.00  0.00    +0.000 NA
ENDBRANCH   4   6
BRANCH   2   8
ATOM      8  C   UNL     1       7.826   8.530  17.476  0.00  0.00    +0.000 C 
BRANCH   8  10
ATOM      9  C   UNL     1       9.220  10.096  19.119  0.00  0.00    +0.000 C 
ATOM     10  C   UNL     1       8.582   9.390  18.388  0.00  0.00    +0.000 C 
ENDBRANCH   8  10
ENDBRANCH   2   8
ENDBRANCH   1   3
BRANCH   1  11
ATOM     11  C   UNL     1       6.000   5.142  19.273  0.00  0.00    +0.000 C 
BRANCH  11  12
ATOM     12  S   UNL     1       4.409   4.624  18.536  0.00  0.00    +0.000 S 
BRANCH  12  13
ATOM     13  C   UNL     1       4.172   3.002  19.349  0.00  0.00    +0.000 C 
BRANCH  13  14
ATOM     14  C   UNL     1       2.925   2.894  20.165  0.00  0.00    +0.000 A 
ATOM     15  N   UNL     1       2.970   2.763  21.539  0.00  0.00    +0.000 NA
ATOM     16  C   UNL     1       1.725   2.642  21.933  0.00  0.00    +0.000 A 
ATOM     17  N   UNL     1       0.864   2.718  20.878  0.00  0.00    +0.000 N 
ATOM     18  C   UNL     1       1.606   2.895  19.742  0.00  0.00    +0.000 A 
ATOM     19  C   UNL     1       0.988   3.002  18.396  0.00  0.00    +0.000 C 
ATOM     20  H   UNL     1      -0.141   2.622  20.929  0.00  0.00    +0.000 HD
ENDBRANCH  13  14
ENDBRANCH  12  13
ENDBRANCH  11  12
ENDBRANCH   1  11
TORSDOF 8
ENDMDL
MODEL 4
REMARK VINA RESULT:      -6.3      1.974      2.657
REMARK  Name = 
REMARK  9 active torsions:
REMARK  status: ('A' for Active; 'I' for Inactive)
REMARK    1  A    between atoms: C_2  and  C_3
REMARK    2  A    between atoms: C_3  and  N_4
REMARK    3  A    between atoms: C_5  and  C_6
REMARK    4  A    between atoms: C_6  and  C_7
REMARK    5  A    between atoms: C_7  and  S_8
REMARK    6  A    between atoms: S_8  and  C_9
REMARK    7  A    between atoms: C_9  and  C_10
REMARK    8  A    between atoms: C_14  and  C_15
REMARK    9  A    between atoms: N_16  and  C_17
REMARK                            x       y       z     vdW  Elec       q    Type
REMARK                         _______ _______ _______ _____ _____    ______ ____
ROOT
ATOM      1  C   UNL     1       7.322   5.077  18.348  0.00  0.00    +0.000 C 
ENDROOT
BRANCH   1   3
ATOM      2  N   UNL     1       7.341   4.782  15.997  0.00  0.00    +0.000 NA
ATOM      3  C   UNL     1       7.175   5.647  16.936  0.00  0.00    +0.000 C 
ATOM      4  N   UNL     1       6.882   6.983  16.773  0.00  0.00    +0.000 N 
ATOM      5  H   UNL     1       6.750   7.273  15.811  0.00  0.00    +0.000 HD
BRANCH   4   6
ATOM      6  C   UNL     1       7.621   7.958  17.546  0.00  0.00    +0.000 C 
ATOM      7  N   UNL     1       8.299   8.700  18.118  0.00  0.00    +0.000 NA
ENDBRANCH   4   6
BRANCH   2   8
ATOM      8  C   UNL     1       7.325   5.150  14.591  0.00  0.00    +0.000 C 
BRANCH   8  10
ATOM      9  C   UNL     1       5.587   3.564  13.342  0.00  0.00    +0.000 C 
ATOM     10  C   UNL     1       6.380   4.274  13.897  0.00  0.00    +0.000 C 
ENDBRANCH   8  10
ENDBRANCH   2   8
ENDBRANCH   1   3
BRANCH   1  11
ATOM     11  C   UNL     1       6.044   5.210  19.162  0.00  0.00    +0.000 C 
BRANCH  11  12
ATOM     12  S   UNL     1       4.627   4.417  18.321  0.00  0.00    +0.000 S 
BRANCH  12  13
ATOM     13  C   UNL     1       4.300   3.018  19.454  0.00  0.00    +0.000 C 
BRANCH  13  14
ATOM     14  C   UNL     1       2.939   3.023  20.070  0.00  0.00    +0.000 A 
ATOM     15  N   UNL     1       2.747   2.720  21.403  0.00  0.00    +0.000 NA
ATOM     16  C   UNL     1       1.451   2.764  21.602  0.00  0.00    +0.000 A 
ATOM     17  N   UNL     1       0.788   3.112  20.463  0.00  0.00    +0.000 N 
ATOM     18  C   UNL     1       1.718   3.299  19.476  0.00  0.00    +0.000 A 
ATOM     19  C   UNL     1       1.342   3.672  18.089  0.00  0.00    +0.000 C 
ATOM     20  H   UNL     1      -0.215   3.182  20.363  0.00  0.00    +0.000 HD
ENDBRANCH  13  14
ENDBRANCH  12  13
ENDBRANCH  11  12
ENDBRANCH   1  11
TORSDOF 8
ENDMDL
MODEL 5
REMARK VINA RESULT:      -6.2      1.753      2.364
REMARK  Name = 
REMARK  9 active torsions:
REMARK  status: ('A' for Active; 'I' for Inactive)
REMARK    1  A    between atoms: C_2  and  C_3
REMARK    2  A    between atoms: C_3  and  N_4
REMARK    3  A    between atoms: C_5  and  C_6
REMARK    4  A    between atoms: C_6  and  C_7
REMARK    5  A    between atoms: C_7  and  S_8
REMARK    6  A    between atoms: S_8  and  C_9
REMARK    7  A    between atoms: C_9  and  C_10
REMARK    8  A    between atoms: C_14  and  C_15
REMARK    9  A    between atoms: N_16  and  C_17
REMARK                            x       y       z     vdW  Elec       q    Type
REMARK                         _______ _______ _______ _____ _____    ______ ____
ROOT
ATOM      1  C   UNL     1       7.156   4.696  17.884  0.00  0.00    +0.000 C 
ENDROOT
BRANCH   1   3
ATOM      2  N   UNL     1       7.276   4.613  15.519  0.00  0.00    +0.000 NA
ATOM      3  C   UNL     1       7.079   5.392  16.525  0.00  0.00    +0.000 C 
ATOM      4  N   UNL     1       6.810   6.743  16.470  0.00  0.00    +0.000 N 
ATOM      5  H   UNL     1       6.725   7.120  15.534  0.00  0.00    +0.000 HD
BRANCH   4   6
ATOM      6  C   UNL     1       7.527   7.632  17.359  0.00  0.00    +0.000 C 
ATOM      7  N   UNL     1       8.101   8.411  17.991  0.00  0.00    +0.000 NA
ENDBRANCH   4   6
BRANCH   2   8
ATOM      8  C   UNL     1       7.327   5.106  14.153  0.00  0.00    +0.000 C 
BRANCH   8  10
ATOM      9  C   UNL     1       5.961   3.413  12.615  0.00  0.00    +0.000 C 
ATOM     10  C   UNL     1       6.569   4.186  13.303  0.00  0.00    +0.000 C 
ENDBRANCH   8  10
ENDBRANCH   2   8
ENDBRANCH   1   3
BRANCH   1  11
ATOM     11  C   UNL     1       5.794   4.572  18.550  0.00  0.00    +0.000 C 
BRANCH  11  12
ATOM     12  S   UNL     1       4.591   3.725  17.463  0.00  0.00    +0.000 S 
BRANCH  12  13
ATOM     13  C   UNL     1       3.073   4.675  17.834  0.00  0.00    +0.000 C 
BRANCH  13  14
ATOM     14  C   UNL     1       2.029   3.910  18.581  0.00  0.00    +0.000 A 
ATOM     15  N   UNL     1       1.490   2.742  18.077  0.00  0.00    +0.000 NA
ATOM     16  C   UNL     1       0.579   2.362  18.942  0.00  0.00    +0.000 A 
ATOM     17  N   UNL     1       0.520   3.213  20.005  0.00  0.00    +0.000 N 
ATOM     18  C   UNL     1       1.448   4.200  19.805  0.00  0.00    +0.000 A 
ATOM     19  C   UNL     1       1.644   5.314  20.766  0.00  0.00    +0.000 C 
ATOM     20  H   UNL     1      -0.122   3.143  20.782  0.00  0.00    +0.000 HD
ENDBRANCH  13  14
ENDBRANCH  12  13
ENDBRANCH  11  12
ENDBRANCH   1  11
TORSDOF 8
ENDMDL
MODEL 6
REMARK VINA RESULT:      -6.2      1.126      1.347
REMARK  Name = 
REMARK  9 active torsions:
REMARK  status: ('A' for Active; 'I' for Inactive)
REMARK    1  A    between atoms: C_2  and  C_3
REMARK    2  A    between atoms: C_3  and  N_4
REMARK    3  A    between atoms: C_5  and  C_6
REMARK    4  A    between atoms: C_6  and  C_7
REMARK    5  A    between atoms: C_7  and  S_8
REMARK    6  A    between atoms: S_8  and  C_9
REMARK    7  A    between atoms: C_9  and  C_10
REMARK    8  A    between atoms: C_14  and  C_15
REMARK    9  A    between atoms: N_16  and  C_17
REMARK                            x       y       z     vdW  Elec       q    Type
REMARK                         _______ _______ _______ _____ _____    ______ ____
ROOT
ATOM      1  C   UNL     1       4.681   4.186  16.544  0.00  0.00    +0.000 C 
ENDROOT
BRANCH   1   3
ATOM      2  N   UNL     1       5.542   4.005  14.343  0.00  0.00    +0.000 NA
ATOM      3  C   UNL     1       5.797   4.436  15.530  0.00  0.00    +0.000 C 
ATOM      4  N   UNL     1       6.946   5.082  15.933  0.00  0.00    +0.000 N 
ATOM      5  H   UNL     1       7.616   5.256  15.194  0.00  0.00    +0.000 HD
BRANCH   4   6
ATOM      6  C   UNL     1       7.581   4.668  17.166  0.00  0.00    +0.000 C 
ATOM      7  N   UNL     1       8.008   4.381  18.202  0.00  0.00    +0.000 NA
ENDBRANCH   4   6
BRANCH   2   8
ATOM      8  C   UNL     1       6.514   4.074  13.266  0.00  0.00    +0.000 C 
BRANCH   8  10
ATOM      9  C   UNL     1       5.873   2.257  11.427  0.00  0.00    +0.000 C 
ATOM     10  C   UNL     1       6.164   3.066  12.265  0.00  0.00    +0.000 C 
ENDBRANCH   8  10
ENDBRANCH   2   8
ENDBRANCH   1   3
BRANCH   1  11
ATOM     11  C   UNL     1       4.232   5.463  17.239  0.00  0.00    +0.000 C 
BRANCH  11  12
ATOM     12  S   UNL     1       4.377   5.323  19.056  0.00  0.00    +0.000 S 
BRANCH  12  13
ATOM     13  C   UNL     1       4.132   3.524  19.279  0.00  0.00    +0.000 C 
BRANCH  13  14
ATOM     14  C   UNL     1       2.702   3.099  19.372  0.00  0.00    +0.000 A 
ATOM     15  N   UNL     1       2.002   2.671  18.262  0.00  0.00    +0.000 NA
ATOM     16  C   UNL     1       0.781   2.427  18.676  0.00  0.00    +0.000 A 
ATOM     17  N   UNL     1       0.660   2.649  20.016  0.00  0.00    +0.000 N 
ATOM     18  C   UNL     1       1.878   3.062  20.485  0.00  0.00    +0.000 A 
ATOM     19  C   UNL     1       2.105   3.410  21.910  0.00  0.00    +0.000 C 
ATOM     20  H   UNL     1      -0.190   2.557  20.554  0.00  0.00    +0.000 HD
ENDBRANCH  13  14
ENDBRANCH  12  13
ENDBRANCH  11  12
ENDBRANCH   1  11
TORSDOF 8
ENDMDL
MODEL 7
REMARK VINA RESULT:      -6.1      1.645      2.234
REMARK  Name = 
REMARK  9 active torsions:
REMARK  status: ('A' for Active; 'I' for Inactive)
REMARK    1  A    between atoms: C_2  and  C_3
REMARK    2  A    between atoms: C_3  and  N_4
REMARK    3  A    between atoms: C_5  and  C_6
REMARK    4  A    between atoms: C_6  and  C_7
REMARK    5  A    between atoms: C_7  and  S_8
REMARK    6  A    between atoms: S_8  and  C_9
REMARK    7  A    between atoms: C_9  and  C_10
REMARK    8  A    between atoms: C_14  and  C_15
REMARK    9  A    between atoms: N_16  and  C_17
REMARK                            x       y       z     vdW  Elec       q    Type
REMARK                         _______ _______ _______ _____ _____    ______ ____
ROOT
ATOM      1  C   UNL     1       4.537   5.520  17.046  0.00  0.00    +0.000 C 
ENDROOT
BRANCH   1   3
ATOM      2  N   UNL     1       5.597   4.721  15.083  0.00  0.00    +0.000 NA
ATOM      3  C   UNL     1       5.722   5.527  16.080  0.00  0.00    +0.000 C 
ATOM      4  N   UNL     1       6.792   6.360  16.326  0.00  0.00    +0.000 N 
ATOM      5  H   UNL     1       7.513   6.345  15.615  0.00  0.00    +0.000 HD
BRANCH   4   6
ATOM      6  C   UNL     1       7.338   6.414  17.665  0.00  0.00    +0.000 C 
ATOM      7  N   UNL     1       7.806   6.358  18.721  0.00  0.00    +0.000 NA
ENDBRANCH   4   6
BRANCH   2   8
ATOM      8  C   UNL     1       6.655   4.525  14.106  0.00  0.00    +0.000 C 
BRANCH   8  10
ATOM      9  C   UNL     1       5.704   3.055  12.097  0.00  0.00    +0.000 C 
ATOM     10  C   UNL     1       6.120   3.723  13.004  0.00  0.00    +0.000 C 
ENDBRANCH   8  10
ENDBRANCH   2   8
ENDBRANCH   1   3
BRANCH   1  11
ATOM     11  C   UNL     1       4.345   4.169  17.718  0.00  0.00    +0.000 C 
BRANCH  11  12
ATOM     12  S   UNL     1       2.902   3.278  17.034  0.00  0.00    +0.000 S 
BRANCH  12  13
ATOM     13  C   UNL     1       1.572   3.897  18.126  0.00  0.00    +0.000 C 
BRANCH  13  14
ATOM     14  C   UNL     1       1.823   3.696  19.586  0.00  0.00    +0.000 A 
ATOM     15  N   UNL     1       1.958   2.434  20.129  0.00  0.00    +0.000 NA
ATOM     16  C   UNL     1       2.113   2.610  21.420  0.00  0.00    +0.000 A 
ATOM     17  N   UNL     1       2.115   3.935  21.741  0.00  0.00    +0.000 N 
ATOM     18  C   UNL     1       1.949   4.648  20.584  0.00  0.00    +0.000 A 
ATOM     19  C   UNL     1       1.886   6.131  20.567  0.00  0.00    +0.000 C 
ATOM     20  H   UNL     1       2.191   4.315  22.674  0.00  0.00    +0.000 HD
ENDBRANCH  13  14
ENDBRANCH  12  13
ENDBRANCH  11  12
ENDBRANCH   1  11
TORSDOF 8
ENDMDL
MODEL 8
REMARK VINA RESULT:      -6.1      1.625      1.863
REMARK  Name = 
REMARK  9 active torsions:
REMARK  status: ('A' for Active; 'I' for Inactive)
REMARK    1  A    between atoms: C_2  and  C_3
REMARK    2  A    between atoms: C_3  and  N_4
REMARK    3  A    between atoms: C_5  and  C_6
REMARK    4  A    between atoms: C_6  and  C_7
REMARK    5  A    between atoms: C_7  and  S_8
REMARK    6  A    between atoms: S_8  and  C_9
REMARK    7  A    between atoms: C_9  and  C_10
REMARK    8  A    between atoms: C_14  and  C_15
REMARK    9  A    between atoms: N_16  and  C_17
REMARK                            x       y       z     vdW  Elec       q    Type
REMARK                         _______ _______ _______ _____ _____    ______ ____
ROOT
ATOM      1  C   UNL     1       4.580   5.516  17.003  0.00  0.00    +0.000 C 
ENDROOT
BRANCH   1   3
ATOM      2  N   UNL     1       5.547   4.526  15.079  0.00  0.00    +0.000 NA
ATOM      3  C   UNL     1       5.718   5.425  15.985  0.00  0.00    +0.000 C 
ATOM      4  N   UNL     1       6.796   6.276  16.097  0.00  0.00    +0.000 N 
ATOM      5  H   UNL     1       7.483   6.189  15.357  0.00  0.00    +0.000 HD
BRANCH   4   6
ATOM      6  C   UNL     1       7.406   6.460  17.396  0.00  0.00    +0.000 C 
ATOM      7  N   UNL     1       7.805   6.652  18.464  0.00  0.00    +0.000 NA
ENDBRANCH   4   6
BRANCH   2   8
ATOM      8  C   UNL     1       6.557   4.231  14.077  0.00  0.00    +0.000 C 
BRANCH   8  10
ATOM      9  C   UNL     1       5.369   3.121  11.967  0.00  0.00    +0.000 C 
ATOM     10  C   UNL     1       5.897   3.614  12.926  0.00  0.00    +0.000 C 
ENDBRANCH   8  10
ENDBRANCH   2   8
ENDBRANCH   1   3
BRANCH   1  11
ATOM     11  C   UNL     1       4.230   4.163  17.604  0.00  0.00    +0.000 C 
BRANCH  11  12
ATOM     12  S   UNL     1       2.520   3.668  17.190  0.00  0.00    +0.000 S 
BRANCH  12  13
ATOM     13  C   UNL     1       2.349   2.156  18.205  0.00  0.00    +0.000 C 
BRANCH  13  14
ATOM     14  C   UNL     1       2.236   2.404  19.674  0.00  0.00    +0.000 A 
ATOM     15  N   UNL     1       1.038   2.771  20.254  0.00  0.00    +0.000 NA
ATOM     16  C   UNL     1       1.295   2.957  21.527  0.00  0.00    +0.000 A 
ATOM     17  N   UNL     1       2.603   2.699  21.811  0.00  0.00    +0.000 N 
ATOM     18  C   UNL     1       3.219   2.328  20.646  0.00  0.00    +0.000 A 
ATOM     19  C   UNL     1       4.663   1.989  20.584  0.00  0.00    +0.000 C 
ATOM     20  H   UNL     1       3.041   2.801  22.715  0.00  0.00    +0.000 HD
ENDBRANCH  13  14
ENDBRANCH  12  13
ENDBRANCH  11  12
ENDBRANCH   1  11
TORSDOF 8
ENDMDL
MODEL 9
REMARK VINA RESULT:      -6.0      1.871      2.374
REMARK  Name = 
REMARK  9 active torsions:
REMARK  status: ('A' for Active; 'I' for Inactive)
REMARK    1  A    between atoms: C_2  and  C_3
REMARK    2  A    between atoms: C_3  and  N_4
REMARK    3  A    between atoms: C_5  and  C_6
REMARK    4  A    between atoms: C_6  and  C_7
REMARK    5  A    between atoms: C_7  and  S_8
REMARK    6  A    between atoms: S_8  and  C_9
REMARK    7  A    between atoms: C_9  and  C_10
REMARK    8  A    between atoms: C_14  and  C_15
REMARK    9  A    between atoms: N_16  and  C_17
REMARK                            x       y       z     vdW  Elec       q    Type
REMARK                         _______ _______ _______ _____ _____    ______ ____
ROOT
ATOM      1  C   UNL     1       4.902   7.153  17.655  0.00  0.00    +0.000 C 
ENDROOT
BRANCH   1   3
ATOM      2  N   UNL     1       5.738   5.149  16.708  0.00  0.00    +0.000 NA
ATOM      3  C   UNL     1       6.015   6.384  16.944  0.00  0.00    +0.000 C 
ATOM      4  N   UNL     1       7.183   7.036  16.612  0.00  0.00    +0.000 N 
ATOM      5  H   UNL     1       7.851   6.473  16.098  0.00  0.00    +0.000 HD
BRANCH   4   6
ATOM      6  C   UNL     1       7.818   7.875  17.605  0.00  0.00    +0.000 C 
ATOM      7  N   UNL     1       8.304   8.627  18.337  0.00  0.00    +0.000 NA
ENDBRANCH   4   6
BRANCH   2   8
ATOM      8  C   UNL     1       6.703   4.236  16.119  0.00  0.00    +0.000 C 
BRANCH   8  10
ATOM      9  C   UNL     1       6.036   3.855  13.567  0.00  0.00    +0.000 C 
ATOM     10  C   UNL     1       6.331   4.015  14.720  0.00  0.00    +0.000 C 
ENDBRANCH   8  10
ENDBRANCH   2   8
ENDBRANCH   1   3
BRANCH   1  11
ATOM     11  C   UNL     1       3.551   6.465  17.531  0.00  0.00    +0.000 C 
BRANCH  11  12
ATOM     12  S   UNL     1       2.752   6.256  19.163  0.00  0.00    +0.000 S 
BRANCH  12  13
ATOM     13  C   UNL     1       3.697   4.836  19.824  0.00  0.00    +0.000 C 
BRANCH  13  14
ATOM     14  C   UNL     1       3.251   3.503  19.316  0.00  0.00    +0.000 A 
ATOM     15  N   UNL     1       4.013   2.779  18.421  0.00  0.00    +0.000 NA
ATOM     16  C   UNL     1       3.319   1.700  18.146  0.00  0.00    +0.000 A 
ATOM     17  N   UNL     1       2.149   1.672  18.845  0.00  0.00    +0.000 N 
ATOM     18  C   UNL     1       2.091   2.805  19.612  0.00  0.00    +0.000 A 
ATOM     19  C   UNL     1       0.937   3.110  20.493  0.00  0.00    +0.000 C 
ATOM     20  H   UNL     1       1.438   0.958  18.777  0.00  0.00    +0.000 HD
ENDBRANCH  13  14
ENDBRANCH  12  13
ENDBRANCH  11  12
ENDBRANCH   1  11
TORSDOF 8
ENDMDL
