MODEL 1
REMARK VINA RESULT:      -8.8      0.000      0.000
REMARK  Name = 
REMARK  11 active torsions:
REMARK  status: ('A' for Active; 'I' for Inactive)
REMARK    1  A    between atoms: C_1  and  C_2
REMARK    2  A    between atoms: C_4  and  C_5
REMARK    3  A    between atoms: C_7  and  N_8
REMARK    4  A    between atoms: N_8  and  C_9
REMARK    5  A    between atoms: C_9  and  C_10
REMARK    6  A    between atoms: N_12  and  C_13
REMARK    7  A    between atoms: C_13  and  C_14
REMARK    8  A    between atoms: C_19  and  C_21
REMARK    9  A    between atoms: C_21  and  C_22
REMARK   10  A    between atoms: C_22  and  C_23
REMARK   11  A    between atoms: C_28  and  C_29
REMARK                            x       y       z     vdW  Elec       q    Type
REMARK                         _______ _______ _______ _____ _____    ______ ____
ROOT
ATOM      1  N   UNL     1       4.874   5.599  18.012  0.00  0.00    +0.000 N 
ATOM      2  C   UNL     1       6.088   5.483  18.688  0.00  0.00    +0.000 C 
ATOM      3  O   UNL     1       6.176   5.156  19.877  0.00  0.00    +0.000 OA
ENDROOT
BRANCH   1  10
ATOM      4  C   UNL     1       1.285   2.159  18.654  0.00  0.00    +0.000 C 
ATOM      5  C   UNL     1       1.907   3.496  18.945  0.00  0.00    +0.000 A 
ATOM      6  C   UNL     1       1.266   4.388  19.819  0.00  0.00    +0.000 A 
ATOM      7  C   UNL     1       1.834   5.630  20.122  0.00  0.00    +0.000 A 
ATOM      8  C   UNL     1       1.137   6.609  21.017  0.00  0.00    +0.000 C 
ATOM      9  C   UNL     1       3.058   5.982  19.546  0.00  0.00    +0.000 A 
ATOM     10  C   UNL     1       3.695   5.123  18.654  0.00  0.00    +0.000 A 
ATOM     11  C   UNL     1       3.124   3.875  18.351  0.00  0.00    +0.000 A 
ENDBRANCH   1  10
BRANCH   1  12
ATOM     12  C   UNL     1       4.785   5.643  16.537  0.00  0.00    +0.000 C 
BRANCH  12  13
ATOM     13  C   UNL     1       5.636   4.613  15.776  0.00  0.00    +0.000 C 
ATOM     14  O   UNL     1       5.635   3.427  16.104  0.00  0.00    +0.000 OA
ATOM     15  N   UNL     1       6.321   5.067  14.670  0.00  0.00    +0.000 N 
ATOM     16  H   UNL     1       6.046   5.957  14.270  0.00  0.00    +0.000 HD
BRANCH  15  17
ATOM     17  C   UNL     1       6.992   4.123  13.783  0.00  0.00    +0.000 C 
BRANCH  17  18
ATOM     18  C   UNL     1       6.256   3.894  12.462  0.00  0.00    +0.000 C 
ATOM     19  C   UNL     1       4.747   3.759  12.581  0.00  0.00    +0.000 C 
ATOM     20  C   UNL     1       4.412   2.933  11.364  0.00  0.00    +0.000 C 
ATOM     21  C   UNL     1       5.596   1.992  11.284  0.00  0.00    +0.000 C 
ATOM     22  O   UNL     1       6.725   2.683  11.836  0.00  0.00    +0.000 OA
ENDBRANCH  17  18
ENDBRANCH  15  17
ENDBRANCH  12  13
ENDBRANCH   1  12
BRANCH   2  23
ATOM     23  C   UNL     1       7.343   5.899  17.924  0.00  0.00    +0.000 C 
BRANCH  23  24
ATOM     24  C   UNL     1       8.287   6.738  18.772  0.00  0.00    +0.000 C 
BRANCH  24  25
ATOM     25  C   UNL     1       8.272   8.170  18.279  0.00  0.00    +0.000 C 
ATOM     26  O   UNL     1       7.704   8.444  17.228  0.00  0.00    +0.000 OA
ATOM     27  N   UNL     1       8.987   9.021  19.093  0.00  0.00    +0.000 N 
ATOM     28  C   UNL     1       9.123  10.375  18.870  0.00  0.00    +0.000 A 
ATOM     29  C   UNL     1       9.849  11.248  19.719  0.00  0.00    +0.000 A 
ATOM     30  C   UNL     1       9.689  12.494  19.150  0.00  0.00    +0.000 A 
ATOM     31  C   UNL     1      10.104  13.859  19.500  0.00  0.00    +0.000 C 
ATOM     32  O   UNL     1       8.945  12.369  18.024  0.00  0.00    +0.000 OA
ATOM     33  N   UNL     1       8.590  11.051  17.850  0.00  0.00    +0.000 NA
ATOM     34  H   UNL     1       9.529   8.625  19.857  0.00  0.00    +0.000 HD
ENDBRANCH  24  25
ENDBRANCH  23  24
ENDBRANCH   2  23
TORSDOF 8
ENDMDL
MODEL 2
REMARK VINA RESULT:      -8.5      3.664      6.888
REMARK  Name = 
REMARK  11 active torsions:
REMARK  status: ('A' for Active; 'I' for Inactive)
REMARK    1  A    between atoms: C_1  and  C_2
REMARK    2  A    between atoms: C_4  and  C_5
REMARK    3  A    between atoms: C_7  and  N_8
REMARK    4  A    between atoms: N_8  and  C_9
REMARK    5  A    between atoms: C_9  and  C_10
REMARK    6  A    between atoms: N_12  and  C_13
REMARK    7  A    between atoms: C_13  and  C_14
REMARK    8  A    between atoms: C_19  and  C_21
REMARK    9  A    between atoms: C_21  and  C_22
REMARK   10  A    between atoms: C_22  and  C_23
REMARK   11  A    between atoms: C_28  and  C_29
REMARK                            x       y       z     vdW  Elec       q    Type
REMARK                         _______ _______ _______ _____ _____    ______ ____
ROOT
ATOM      1  N   UNL     1       1.902   7.270  19.830  0.00  0.00    +0.000 N 
ATOM      2  C   UNL     1       2.602   7.290  18.624  0.00  0.00    +0.000 C 
ATOM      3  O   UNL     1       2.563   8.236  17.829  0.00  0.00    +0.000 OA
ENDROOT
BRANCH   1  10
ATOM      4  C   UNL     1      -0.529   9.977  23.279  0.00  0.00    +0.000 C 
ATOM      5  C   UNL     1       0.046   9.792  21.902  0.00  0.00    +0.000 A 
ATOM      6  C   UNL     1      -0.109  10.803  20.941  0.00  0.00    +0.000 A 
ATOM      7  C   UNL     1       0.434  10.664  19.659  0.00  0.00    +0.000 A 
ATOM      8  C   UNL     1       0.237  11.716  18.610  0.00  0.00    +0.000 C 
ATOM      9  C   UNL     1       1.140   9.501  19.336  0.00  0.00    +0.000 A 
ATOM     10  C   UNL     1       1.278   8.475  20.268  0.00  0.00    +0.000 A 
ATOM     11  C   UNL     1       0.734   8.616  21.556  0.00  0.00    +0.000 A 
ENDBRANCH   1  10
BRANCH   1  12
ATOM     12  C   UNL     1       2.215   6.321  20.918  0.00  0.00    +0.000 C 
BRANCH  12  13
ATOM     13  C   UNL     1       1.567   4.931  20.811  0.00  0.00    +0.000 C 
ATOM     14  O   UNL     1       0.476   4.783  20.263  0.00  0.00    +0.000 OA
ATOM     15  N   UNL     1       2.304   3.863  21.277  0.00  0.00    +0.000 N 
ATOM     16  H   UNL     1       3.297   3.997  21.426  0.00  0.00    +0.000 HD
BRANCH  15  17
ATOM     17  C   UNL     1       1.849   2.497  21.039  0.00  0.00    +0.000 C 
BRANCH  17  18
ATOM     18  C   UNL     1       2.391   1.888  19.745  0.00  0.00    +0.000 C 
ATOM     19  C   UNL     1       3.786   2.346  19.353  0.00  0.00    +0.000 C 
ATOM     20  C   UNL     1       3.767   2.154  17.856  0.00  0.00    +0.000 C 
ATOM     21  C   UNL     1       2.345   2.538  17.505  0.00  0.00    +0.000 C 
ATOM     22  O   UNL     1       1.527   2.221  18.640  0.00  0.00    +0.000 OA
ENDBRANCH  17  18
ENDBRANCH  15  17
ENDBRANCH  12  13
ENDBRANCH   1  12
BRANCH   2  23
ATOM     23  C   UNL     1       3.351   6.015  18.245  0.00  0.00    +0.000 C 
BRANCH  23  24
ATOM     24  C   UNL     1       4.755   5.970  18.829  0.00  0.00    +0.000 C 
BRANCH  24  25
ATOM     25  C   UNL     1       5.771   5.971  17.706  0.00  0.00    +0.000 C 
ATOM     26  O   UNL     1       6.806   6.618  17.825  0.00  0.00    +0.000 OA
ATOM     27  N   UNL     1       5.356   5.247  16.611  0.00  0.00    +0.000 N 
ATOM     28  C   UNL     1       6.099   5.085  15.461  0.00  0.00    +0.000 A 
ATOM     29  C   UNL     1       5.672   4.328  14.342  0.00  0.00    +0.000 A 
ATOM     30  C   UNL     1       6.724   4.400  13.454  0.00  0.00    +0.000 A 
ATOM     31  C   UNL     1       7.013   3.827  12.133  0.00  0.00    +0.000 C 
ATOM     32  O   UNL     1       7.700   5.172  13.993  0.00  0.00    +0.000 OA
ATOM     33  N   UNL     1       7.313   5.596  15.243  0.00  0.00    +0.000 NA
ATOM     34  H   UNL     1       4.406   4.881  16.599  0.00  0.00    +0.000 HD
ENDBRANCH  24  25
ENDBRANCH  23  24
ENDBRANCH   2  23
TORSDOF 8
ENDMDL
MODEL 3
REMARK VINA RESULT:      -8.5      0.607      1.711
REMARK  Name = 
REMARK  11 active torsions:
REMARK  status: ('A' for Active; 'I' for Inactive)
REMARK    1  A    between atoms: C_1  and  C_2
REMARK    2  A    between atoms: C_4  and  C_5
REMARK    3  A    between atoms: C_7  and  N_8
REMARK    4  A    between atoms: N_8  and  C_9
REMARK    5  A    between atoms: C_9  and  C_10
REMARK    6  A    between atoms: N_12  and  C_13
REMARK    7  A    between atoms: C_13  and  C_14
REMARK    8  A    between atoms: C_19  and  C_21
REMARK    9  A    between atoms: C_21  and  C_22
REMARK   10  A    between atoms: C_22  and  C_23
REMARK   11  A    between atoms: C_28  and  C_29
REMARK                            x       y       z     vdW  Elec       q    Type
REMARK                         _______ _______ _______ _____ _____    ______ ____
ROOT
ATOM      1  N   UNL     1       4.886   5.720  18.080  0.00  0.00    +0.000 N 
ATOM      2  C   UNL     1       6.069   5.371  18.731  0.00  0.00    +0.000 C 
ATOM      3  O   UNL     1       6.106   4.923  19.883  0.00  0.00    +0.000 OA
ENDROOT
BRANCH   1  10
ATOM      4  C   UNL     1       1.027   6.646  21.143  0.00  0.00    +0.000 C 
ATOM      5  C   UNL     1       1.794   5.752  20.209  0.00  0.00    +0.000 A 
ATOM      6  C   UNL     1       1.346   4.442  19.974  0.00  0.00    +0.000 A 
ATOM      7  C   UNL     1       2.030   3.596  19.094  0.00  0.00    +0.000 A 
ATOM      8  C   UNL     1       1.588   2.182  18.870  0.00  0.00    +0.000 C 
ATOM      9  C   UNL     1       3.173   4.066  18.442  0.00  0.00    +0.000 A 
ATOM     10  C   UNL     1       3.649   5.353  18.685  0.00  0.00    +0.000 A 
ATOM     11  C   UNL     1       2.960   6.202  19.567  0.00  0.00    +0.000 A 
ENDBRANCH   1  10
BRANCH   1  12
ATOM     12  C   UNL     1       4.810   5.918  16.618  0.00  0.00    +0.000 C 
BRANCH  12  13
ATOM     13  C   UNL     1       5.644   4.953  15.760  0.00  0.00    +0.000 C 
ATOM     14  O   UNL     1       5.641   3.744  15.985  0.00  0.00    +0.000 OA
ATOM     15  N   UNL     1       6.316   5.497  14.686  0.00  0.00    +0.000 N 
ATOM     16  H   UNL     1       6.040   6.419  14.367  0.00  0.00    +0.000 HD
BRANCH  15  17
ATOM     17  C   UNL     1       6.969   4.628  13.712  0.00  0.00    +0.000 C 
BRANCH  17  18
ATOM     18  C   UNL     1       6.070   3.506  13.192  0.00  0.00    +0.000 C 
ATOM     19  C   UNL     1       6.632   2.724  12.016  0.00  0.00    +0.000 C 
ATOM     20  C   UNL     1       5.375   2.218  11.351  0.00  0.00    +0.000 C 
ATOM     21  C   UNL     1       4.424   3.381  11.543  0.00  0.00    +0.000 C 
ATOM     22  O   UNL     1       4.805   4.044  12.757  0.00  0.00    +0.000 OA
ENDBRANCH  17  18
ENDBRANCH  15  17
ENDBRANCH  12  13
ENDBRANCH   1  12
BRANCH   2  23
ATOM     23  C   UNL     1       7.373   5.680  17.999  0.00  0.00    +0.000 C 
BRANCH  23  24
ATOM     24  C   UNL     1       8.274   6.617  18.789  0.00  0.00    +0.000 C 
BRANCH  24  25
ATOM     25  C   UNL     1       8.176   8.016  18.217  0.00  0.00    +0.000 C 
ATOM     26  O   UNL     1       7.580   8.200  17.162  0.00  0.00    +0.000 OA
ATOM     27  N   UNL     1       8.855   8.949  18.969  0.00  0.00    +0.000 N 
ATOM     28  C   UNL     1       8.916  10.293  18.669  0.00  0.00    +0.000 A 
ATOM     29  C   UNL     1       9.606  11.249  19.455  0.00  0.00    +0.000 A 
ATOM     30  C   UNL     1       9.372  12.451  18.820  0.00  0.00    +0.000 A 
ATOM     31  C   UNL     1       9.717  13.853  19.086  0.00  0.00    +0.000 C 
ATOM     32  O   UNL     1       8.620  12.223  17.715  0.00  0.00    +0.000 OA
ATOM     33  N   UNL     1       8.333  10.881  17.622  0.00  0.00    +0.000 NA
ATOM     34  H   UNL     1       9.429   8.625  19.746  0.00  0.00    +0.000 HD
ENDBRANCH  24  25
ENDBRANCH  23  24
ENDBRANCH   2  23
TORSDOF 8
ENDMDL
MODEL 4
REMARK VINA RESULT:      -8.5      4.080      7.575
REMARK  Name = 
REMARK  11 active torsions:
REMARK  status: ('A' for Active; 'I' for Inactive)
REMARK    1  A    between atoms: C_1  and  C_2
REMARK    2  A    between atoms: C_4  and  C_5
REMARK    3  A    between atoms: C_7  and  N_8
REMARK    4  A    between atoms: N_8  and  C_9
REMARK    5  A    between atoms: C_9  and  C_10
REMARK    6  A    between atoms: N_12  and  C_13
REMARK    7  A    between atoms: C_13  and  C_14
REMARK    8  A    between atoms: C_19  and  C_21
REMARK    9  A    between atoms: C_21  and  C_22
REMARK   10  A    between atoms: C_22  and  C_23
REMARK   11  A    between atoms: C_28  and  C_29
REMARK                            x       y       z     vdW  Elec       q    Type
REMARK                         _______ _______ _______ _____ _____    ______ ____
ROOT
ATOM      1  N   UNL     1       5.632   5.353  16.138  0.00  0.00    +0.000 N 
ATOM      2  C   UNL     1       4.786   6.452  16.277  0.00  0.00    +0.000 C 
ATOM      3  O   UNL     1       4.545   7.248  15.362  0.00  0.00    +0.000 OA
ENDROOT
BRANCH   1  10
ATOM      4  C   UNL     1       5.297   2.640  11.935  0.00  0.00    +0.000 C 
ATOM      5  C   UNL     1       5.975   3.665  12.801  0.00  0.00    +0.000 A 
ATOM      6  C   UNL     1       7.170   4.262  12.369  0.00  0.00    +0.000 A 
ATOM      7  C   UNL     1       7.810   5.232  13.148  0.00  0.00    +0.000 A 
ATOM      8  C   UNL     1       9.110   5.843  12.719  0.00  0.00    +0.000 C 
ATOM      9  C   UNL     1       7.248   5.610  14.370  0.00  0.00    +0.000 A 
ATOM     10  C   UNL     1       6.079   5.008  14.829  0.00  0.00    +0.000 A 
ATOM     11  C   UNL     1       5.436   4.034  14.046  0.00  0.00    +0.000 A 
ENDBRANCH   1  10
BRANCH   1  12
ATOM     12  C   UNL     1       5.645   4.231  17.098  0.00  0.00    +0.000 C 
BRANCH  12  13
ATOM     13  C   UNL     1       4.311   3.494  17.297  0.00  0.00    +0.000 C 
ATOM     14  O   UNL     1       3.372   3.668  16.523  0.00  0.00    +0.000 OA
ATOM     15  N   UNL     1       4.255   2.575  18.323  0.00  0.00    +0.000 N 
ATOM     16  H   UNL     1       5.128   2.249  18.721  0.00  0.00    +0.000 HD
BRANCH  15  17
ATOM     17  C   UNL     1       3.097   1.697  18.460  0.00  0.00    +0.000 C 
BRANCH  17  18
ATOM     18  C   UNL     1       2.142   2.112  19.579  0.00  0.00    +0.000 C 
ATOM     19  C   UNL     1       1.314   3.354  19.291  0.00  0.00    +0.000 C 
ATOM     20  C   UNL     1       1.026   3.864  20.682  0.00  0.00    +0.000 C 
ATOM     21  C   UNL     1       2.317   3.548  21.409  0.00  0.00    +0.000 C 
ATOM     22  O   UNL     1       2.880   2.385  20.787  0.00  0.00    +0.000 OA
ENDBRANCH  17  18
ENDBRANCH  15  17
ENDBRANCH  12  13
ENDBRANCH   1  12
BRANCH   2  23
ATOM     23  C   UNL     1       4.237   6.723  17.677  0.00  0.00    +0.000 C 
BRANCH  23  24
ATOM     24  C   UNL     1       2.974   7.570  17.651  0.00  0.00    +0.000 C 
BRANCH  24  25
ATOM     25  C   UNL     1       2.383   7.641  19.044  0.00  0.00    +0.000 C 
ATOM     26  O   UNL     1       2.555   6.711  19.824  0.00  0.00    +0.000 OA
ATOM     27  N   UNL     1       1.640   8.782  19.250  0.00  0.00    +0.000 N 
ATOM     28  C   UNL     1       1.003   9.090  20.434  0.00  0.00    +0.000 A 
ATOM     29  C   UNL     1       0.250  10.272  20.644  0.00  0.00    +0.000 A 
ATOM     30  C   UNL     1      -0.164  10.189  21.956  0.00  0.00    +0.000 A 
ATOM     31  C   UNL     1      -0.920  11.059  22.867  0.00  0.00    +0.000 C 
ATOM     32  O   UNL     1       0.285   9.024  22.484  0.00  0.00    +0.000 OA
ATOM     33  N   UNL     1       1.014   8.340  21.538  0.00  0.00    +0.000 NA
ATOM     34  H   UNL     1       1.464   9.400  18.460  0.00  0.00    +0.000 HD
ENDBRANCH  24  25
ENDBRANCH  23  24
ENDBRANCH   2  23
TORSDOF 8
ENDMDL
MODEL 5
REMARK VINA RESULT:      -8.4      1.368      1.592
REMARK  Name = 
REMARK  11 active torsions:
REMARK  status: ('A' for Active; 'I' for Inactive)
REMARK    1  A    between atoms: C_1  and  C_2
REMARK    2  A    between atoms: C_4  and  C_5
REMARK    3  A    between atoms: C_7  and  N_8
REMARK    4  A    between atoms: N_8  and  C_9
REMARK    5  A    between atoms: C_9  and  C_10
REMARK    6  A    between atoms: N_12  and  C_13
REMARK    7  A    between atoms: C_13  and  C_14
REMARK    8  A    between atoms: C_19  and  C_21
REMARK    9  A    between atoms: C_21  and  C_22
REMARK   10  A    between atoms: C_22  and  C_23
REMARK   11  A    between atoms: C_28  and  C_29
REMARK                            x       y       z     vdW  Elec       q    Type
REMARK                         _______ _______ _______ _____ _____    ______ ____
ROOT
ATOM      1  N   UNL     1       5.312   5.931  18.214  0.00  0.00    +0.000 N 
ATOM      2  C   UNL     1       6.684   5.814  18.430  0.00  0.00    +0.000 C 
ATOM      3  O   UNL     1       7.187   4.954  19.162  0.00  0.00    +0.000 OA
ENDROOT
BRANCH   1  10
ATOM      4  C   UNL     1       3.823   1.144  18.292  0.00  0.00    +0.000 C 
ATOM      5  C   UNL     1       3.682   2.584  18.702  0.00  0.00    +0.000 A 
ATOM      6  C   UNL     1       2.608   2.973  19.517  0.00  0.00    +0.000 A 
ATOM      7  C   UNL     1       2.464   4.303  19.929  0.00  0.00    +0.000 A 
ATOM      8  C   UNL     1       1.297   4.740  20.761  0.00  0.00    +0.000 C 
ATOM      9  C   UNL     1       3.406   5.252  19.522  0.00  0.00    +0.000 A 
ATOM     10  C   UNL     1       4.462   4.889  18.688  0.00  0.00    +0.000 A 
ATOM     11  C   UNL     1       4.606   3.554  18.277  0.00  0.00    +0.000 A 
ENDBRANCH   1  10
BRANCH   1  12
ATOM     12  C   UNL     1       4.745   6.711  17.095  0.00  0.00    +0.000 C 
BRANCH  12  13
ATOM     13  C   UNL     1       5.269   6.363  15.692  0.00  0.00    +0.000 C 
ATOM     14  O   UNL     1       5.119   7.141  14.751  0.00  0.00    +0.000 OA
ATOM     15  N   UNL     1       5.982   5.190  15.568  0.00  0.00    +0.000 N 
ATOM     16  H   UNL     1       6.337   4.755  16.412  0.00  0.00    +0.000 HD
BRANCH  15  17
ATOM     17  C   UNL     1       6.676   4.881  14.322  0.00  0.00    +0.000 C 
BRANCH  17  18
ATOM     18  C   UNL     1       6.104   3.669  13.586  0.00  0.00    +0.000 C 
ATOM     19  C   UNL     1       6.841   3.281  12.315  0.00  0.00    +0.000 C 
ATOM     20  C   UNL     1       5.758   2.584  11.528  0.00  0.00    +0.000 C 
ATOM     21  C   UNL     1       4.533   3.401  11.883  0.00  0.00    +0.000 C 
ATOM     22  O   UNL     1       4.737   3.919  13.204  0.00  0.00    +0.000 OA
ENDBRANCH  17  18
ENDBRANCH  15  17
ENDBRANCH  12  13
ENDBRANCH   1  12
BRANCH   2  23
ATOM     23  C   UNL     1       7.571   6.891  17.810  0.00  0.00    +0.000 C 
BRANCH  23  24
ATOM     24  C   UNL     1       8.453   7.581  18.839  0.00  0.00    +0.000 C 
BRANCH  24  25
ATOM     25  C   UNL     1       8.518   9.064  18.538  0.00  0.00    +0.000 C 
ATOM     26  O   UNL     1       7.865   9.523  17.608  0.00  0.00    +0.000 OA
ATOM     27  N   UNL     1       9.396   9.737  19.359  0.00  0.00    +0.000 N 
ATOM     28  C   UNL     1       9.633  11.093  19.295  0.00  0.00    +0.000 A 
ATOM     29  C   UNL     1      10.528  11.782  20.151  0.00  0.00    +0.000 A 
ATOM     30  C   UNL     1      10.424  13.103  19.770  0.00  0.00    +0.000 A 
ATOM     31  C   UNL     1      11.001  14.370  20.236  0.00  0.00    +0.000 C 
ATOM     32  O   UNL     1       9.551  13.192  18.736  0.00  0.00    +0.000 OA
ATOM     33  N   UNL     1       9.056  11.943  18.442  0.00  0.00    +0.000 NA
ATOM     34  H   UNL     1       9.981   9.198  19.994  0.00  0.00    +0.000 HD
ENDBRANCH  24  25
ENDBRANCH  23  24
ENDBRANCH   2  23
TORSDOF 8
ENDMDL
MODEL 6
REMARK VINA RESULT:      -8.3      1.130      1.707
REMARK  Name = 
REMARK  11 active torsions:
REMARK  status: ('A' for Active; 'I' for Inactive)
REMARK    1  A    between atoms: C_1  and  C_2
REMARK    2  A    between atoms: C_4  and  C_5
REMARK    3  A    between atoms: C_7  and  N_8
REMARK    4  A    between atoms: N_8  and  C_9
REMARK    5  A    between atoms: C_9  and  C_10
REMARK    6  A    between atoms: N_12  and  C_13
REMARK    7  A    between atoms: C_13  and  C_14
REMARK    8  A    between atoms: C_19  and  C_21
REMARK    9  A    between atoms: C_21  and  C_22
REMARK   10  A    between atoms: C_22  and  C_23
REMARK   11  A    between atoms: C_28  and  C_29
REMARK                            x       y       z     vdW  Elec       q    Type
REMARK                         _______ _______ _______ _____ _____    ______ ____
ROOT
ATOM      1  N   UNL     1       4.985   5.433  17.991  0.00  0.00    +0.000 N 
ATOM      2  C   UNL     1       6.174   5.894  18.556  0.00  0.00    +0.000 C 
ATOM      3  O   UNL     1       6.501   5.673  19.727  0.00  0.00    +0.000 OA
ENDROOT
BRANCH   1  10
ATOM      4  C   UNL     1       0.728   4.025  20.233  0.00  0.00    +0.000 C 
ATOM      5  C   UNL     1       2.171   3.809  19.873  0.00  0.00    +0.000 A 
ATOM      6  C   UNL     1       2.847   2.677  20.355  0.00  0.00    +0.000 A 
ATOM      7  C   UNL     1       4.186   2.442  20.018  0.00  0.00    +0.000 A 
ATOM      8  C   UNL     1       4.931   1.262  20.563  0.00  0.00    +0.000 C 
ATOM      9  C   UNL     1       4.853   3.349  19.190  0.00  0.00    +0.000 A 
ATOM     10  C   UNL     1       4.207   4.493  18.727  0.00  0.00    +0.000 A 
ATOM     11  C   UNL     1       2.863   4.727  19.064  0.00  0.00    +0.000 A 
ENDBRANCH   1  10
BRANCH   1  12
ATOM     12  C   UNL     1       4.760   5.394  16.531  0.00  0.00    +0.000 C 
BRANCH  12  13
ATOM     13  C   UNL     1       5.746   4.542  15.716  0.00  0.00    +0.000 C 
ATOM     14  O   UNL     1       5.968   3.370  16.017  0.00  0.00    +0.000 OA
ATOM     15  N   UNL     1       6.293   5.127  14.594  0.00  0.00    +0.000 N 
ATOM     16  H   UNL     1       5.849   5.959  14.224  0.00  0.00    +0.000 HD
BRANCH  15  17
ATOM     17  C   UNL     1       7.083   4.329  13.661  0.00  0.00    +0.000 C 
BRANCH  17  18
ATOM     18  C   UNL     1       6.338   3.975  12.374  0.00  0.00    +0.000 C 
ATOM     19  C   UNL     1       4.832   3.825  12.522  0.00  0.00    +0.000 C 
ATOM     20  C   UNL     1       4.500   2.891  11.385  0.00  0.00    +0.000 C 
ATOM     21  C   UNL     1       5.700   1.968  11.371  0.00  0.00    +0.000 C 
ATOM     22  O   UNL     1       6.822   2.724  11.847  0.00  0.00    +0.000 OA
ENDBRANCH  17  18
ENDBRANCH  15  17
ENDBRANCH  12  13
ENDBRANCH   1  12
BRANCH   2  23
ATOM     23  C   UNL     1       7.035   6.810  17.690  0.00  0.00    +0.000 C 
BRANCH  23  24
ATOM     24  C   UNL     1       8.260   7.326  18.432  0.00  0.00    +0.000 C 
BRANCH  24  25
ATOM     25  C   UNL     1       8.379   8.823  18.233  0.00  0.00    +0.000 C 
ATOM     26  O   UNL     1       7.865   9.347  17.252  0.00  0.00    +0.000 OA
ATOM     27  N   UNL     1       9.139   9.431  19.207  0.00  0.00    +0.000 N 
ATOM     28  C   UNL     1       9.394  10.785  19.260  0.00  0.00    +0.000 A 
ATOM     29  C   UNL     1      10.167  11.406  20.273  0.00  0.00    +0.000 A 
ATOM     30  C   UNL     1      10.128  12.749  19.961  0.00  0.00    +0.000 A 
ATOM     31  C   UNL     1      10.645  13.976  20.579  0.00  0.00    +0.000 C 
ATOM     32  O   UNL     1       9.408  12.914  18.824  0.00  0.00    +0.000 OA
ATOM     33  N   UNL     1       8.949  11.693  18.389  0.00  0.00    +0.000 NA
ATOM     34  H   UNL     1       9.625   8.846  19.884  0.00  0.00    +0.000 HD
ENDBRANCH  24  25
ENDBRANCH  23  24
ENDBRANCH   2  23
TORSDOF 8
ENDMDL
MODEL 7
REMARK VINA RESULT:      -8.2      1.834      5.999
REMARK  Name = 
REMARK  11 active torsions:
REMARK  status: ('A' for Active; 'I' for Inactive)
REMARK    1  A    between atoms: C_1  and  C_2
REMARK    2  A    between atoms: C_4  and  C_5
REMARK    3  A    between atoms: C_7  and  N_8
REMARK    4  A    between atoms: N_8  and  C_9
REMARK    5  A    between atoms: C_9  and  C_10
REMARK    6  A    between atoms: N_12  and  C_13
REMARK    7  A    between atoms: C_13  and  C_14
REMARK    8  A    between atoms: C_19  and  C_21
REMARK    9  A    between atoms: C_21  and  C_22
REMARK   10  A    between atoms: C_22  and  C_23
REMARK   11  A    between atoms: C_28  and  C_29
REMARK                            x       y       z     vdW  Elec       q    Type
REMARK                         _______ _______ _______ _____ _____    ______ ____
ROOT
ATOM      1  N   UNL     1       6.173   4.862  15.947  0.00  0.00    +0.000 N 
ATOM      2  C   UNL     1       7.164   4.704  16.914  0.00  0.00    +0.000 C 
ATOM      3  O   UNL     1       8.277   4.222  16.677  0.00  0.00    +0.000 OA
ENDROOT
BRANCH   1  10
ATOM      4  C   UNL     1       8.640   6.147  11.776  0.00  0.00    +0.000 C 
ATOM      5  C   UNL     1       7.663   5.285  12.526  0.00  0.00    +0.000 A 
ATOM      6  C   UNL     1       6.967   4.270  11.851  0.00  0.00    +0.000 A 
ATOM      7  C   UNL     1       6.068   3.441  12.531  0.00  0.00    +0.000 A 
ATOM      8  C   UNL     1       5.286   2.384  11.811  0.00  0.00    +0.000 C 
ATOM      9  C   UNL     1       5.863   3.630  13.900  0.00  0.00    +0.000 A 
ATOM     10  C   UNL     1       6.523   4.651  14.581  0.00  0.00    +0.000 A 
ATOM     11  C   UNL     1       7.427   5.481  13.898  0.00  0.00    +0.000 A 
ENDBRANCH   1  10
BRANCH   1  12
ATOM     12  C   UNL     1       5.000   5.739  16.142  0.00  0.00    +0.000 C 
BRANCH  12  13
ATOM     13  C   UNL     1       3.921   5.222  17.107  0.00  0.00    +0.000 C 
ATOM     14  O   UNL     1       3.282   5.999  17.815  0.00  0.00    +0.000 OA
ATOM     15  N   UNL     1       3.650   3.871  17.072  0.00  0.00    +0.000 N 
ATOM     16  H   UNL     1       3.973   3.340  16.271  0.00  0.00    +0.000 HD
BRANCH  15  17
ATOM     17  C   UNL     1       2.513   3.330  17.810  0.00  0.00    +0.000 C 
BRANCH  17  18
ATOM     18  C   UNL     1       2.576   3.599  19.314  0.00  0.00    +0.000 C 
ATOM     19  C   UNL     1       3.228   2.500  20.138  0.00  0.00    +0.000 C 
ATOM     20  C   UNL     1       2.583   2.700  21.487  0.00  0.00    +0.000 C 
ATOM     21  C   UNL     1       1.172   3.099  21.109  0.00  0.00    +0.000 C 
ATOM     22  O   UNL     1       1.246   3.771  19.844  0.00  0.00    +0.000 OA
ENDBRANCH  17  18
ENDBRANCH  15  17
ENDBRANCH  12  13
ENDBRANCH   1  12
BRANCH   2  23
ATOM     23  C   UNL     1       6.781   5.049  18.352  0.00  0.00    +0.000 C 
BRANCH  23  24
ATOM     24  C   UNL     1       7.848   5.876  19.054  0.00  0.00    +0.000 C 
BRANCH  24  25
ATOM     25  C   UNL     1       7.906   7.258  18.438  0.00  0.00    +0.000 C 
ATOM     26  O   UNL     1       7.358   7.465  17.361  0.00  0.00    +0.000 OA
ATOM     27  N   UNL     1       8.655   8.143  19.181  0.00  0.00    +0.000 N 
ATOM     28  C   UNL     1       8.858   9.464  18.843  0.00  0.00    +0.000 A 
ATOM     29  C   UNL     1       9.619  10.372  19.619  0.00  0.00    +0.000 A 
ATOM     30  C   UNL     1       9.524  11.569  18.942  0.00  0.00    +0.000 A 
ATOM     31  C   UNL     1      10.001  12.938  19.175  0.00  0.00    +0.000 C 
ATOM     32  O   UNL     1       8.782  11.381  17.823  0.00  0.00    +0.000 OA
ATOM     33  N   UNL     1       8.365  10.072  17.761  0.00  0.00    +0.000 NA
ATOM     34  H   UNL     1       9.173   7.790  19.984  0.00  0.00    +0.000 HD
ENDBRANCH  24  25
ENDBRANCH  23  24
ENDBRANCH   2  23
TORSDOF 8
ENDMDL
MODEL 8
REMARK VINA RESULT:      -8.2      1.809      5.955
REMARK  Name = 
REMARK  11 active torsions:
REMARK  status: ('A' for Active; 'I' for Inactive)
REMARK    1  A    between atoms: C_1  and  C_2
REMARK    2  A    between atoms: C_4  and  C_5
REMARK    3  A    between atoms: C_7  and  N_8
REMARK    4  A    between atoms: N_8  and  C_9
REMARK    5  A    between atoms: C_9  and  C_10
REMARK    6  A    between atoms: N_12  and  C_13
REMARK    7  A    between atoms: C_13  and  C_14
REMARK    8  A    between atoms: C_19  and  C_21
REMARK    9  A    between atoms: C_21  and  C_22
REMARK   10  A    between atoms: C_22  and  C_23
REMARK   11  A    between atoms: C_28  and  C_29
REMARK                            x       y       z     vdW  Elec       q    Type
REMARK                         _______ _______ _______ _____ _____    ______ ____
ROOT
ATOM      1  N   UNL     1       6.037   4.481  16.019  0.00  0.00    +0.000 N 
ATOM      2  C   UNL     1       7.123   4.590  16.888  0.00  0.00    +0.000 C 
ATOM      3  O   UNL     1       8.297   4.439  16.533  0.00  0.00    +0.000 OA
ENDROOT
BRANCH   1  10
ATOM      4  C   UNL     1       5.467   2.281  11.551  0.00  0.00    +0.000 C 
ATOM      5  C   UNL     1       6.085   3.314  12.451  0.00  0.00    +0.000 A 
ATOM      6  C   UNL     1       7.048   4.198  11.938  0.00  0.00    +0.000 A 
ATOM      7  C   UNL     1       7.624   5.182  12.750  0.00  0.00    +0.000 A 
ATOM      8  C   UNL     1       8.685   6.101  12.226  0.00  0.00    +0.000 C 
ATOM      9  C   UNL     1       7.230   5.284  14.087  0.00  0.00    +0.000 A 
ATOM     10  C   UNL     1       6.298   4.397  14.621  0.00  0.00    +0.000 A 
ATOM     11  C   UNL     1       5.719   3.410  13.805  0.00  0.00    +0.000 A 
ENDBRANCH   1  10
BRANCH   1  12
ATOM     12  C   UNL     1       4.694   4.996  16.355  0.00  0.00    +0.000 C 
BRANCH  12  13
ATOM     13  C   UNL     1       3.695   3.969  16.913  0.00  0.00    +0.000 C 
ATOM     14  O   UNL     1       3.996   2.780  17.003  0.00  0.00    +0.000 OA
ATOM     15  N   UNL     1       2.494   4.459  17.380  0.00  0.00    +0.000 N 
ATOM     16  H   UNL     1       2.424   5.453  17.567  0.00  0.00    +0.000 HD
BRANCH  15  17
ATOM     17  C   UNL     1       1.574   3.584  18.099  0.00  0.00    +0.000 C 
BRANCH  17  18
ATOM     18  C   UNL     1       2.100   3.129  19.461  0.00  0.00    +0.000 C 
ATOM     19  C   UNL     1       1.034   2.663  20.439  0.00  0.00    +0.000 C 
ATOM     20  C   UNL     1       1.698   2.921  21.769  0.00  0.00    +0.000 C 
ATOM     21  C   UNL     1       2.457   4.204  21.500  0.00  0.00    +0.000 C 
ATOM     22  O   UNL     1       2.802   4.209  20.108  0.00  0.00    +0.000 OA
ENDBRANCH  17  18
ENDBRANCH  15  17
ENDBRANCH  12  13
ENDBRANCH   1  12
BRANCH   2  23
ATOM     23  C   UNL     1       6.801   4.793  18.367  0.00  0.00    +0.000 C 
BRANCH  23  24
ATOM     24  C   UNL     1       7.797   5.713  19.057  0.00  0.00    +0.000 C 
BRANCH  24  25
ATOM     25  C   UNL     1       7.716   7.097  18.445  0.00  0.00    +0.000 C 
ATOM     26  O   UNL     1       6.951   7.303  17.510  0.00  0.00    +0.000 OA
ATOM     27  N   UNL     1       8.603   7.983  19.014  0.00  0.00    +0.000 N 
ATOM     28  C   UNL     1       8.724   9.306  18.644  0.00  0.00    +0.000 A 
ATOM     29  C   UNL     1       9.629  10.217  19.242  0.00  0.00    +0.000 A 
ATOM     30  C   UNL     1       9.387  11.414  18.604  0.00  0.00    +0.000 A 
ATOM     31  C   UNL     1       9.897  12.785  18.733  0.00  0.00    +0.000 C 
ATOM     32  O   UNL     1       8.424  11.225  17.668  0.00  0.00    +0.000 OA
ATOM     33  N   UNL     1       8.009   9.913  17.693  0.00  0.00    +0.000 NA
ATOM     34  H   UNL     1       9.281   7.632  19.687  0.00  0.00    +0.000 HD
ENDBRANCH  24  25
ENDBRANCH  23  24
ENDBRANCH   2  23
TORSDOF 8
ENDMDL
MODEL 9
REMARK VINA RESULT:      -8.1      5.320      9.821
REMARK  Name = 
REMARK  11 active torsions:
REMARK  status: ('A' for Active; 'I' for Inactive)
REMARK    1  A    between atoms: C_1  and  C_2
REMARK    2  A    between atoms: C_4  and  C_5
REMARK    3  A    between atoms: C_7  and  N_8
REMARK    4  A    between atoms: N_8  and  C_9
REMARK    5  A    between atoms: C_9  and  C_10
REMARK    6  A    between atoms: N_12  and  C_13
REMARK    7  A    between atoms: C_13  and  C_14
REMARK    8  A    between atoms: C_19  and  C_21
REMARK    9  A    between atoms: C_21  and  C_22
REMARK   10  A    between atoms: C_22  and  C_23
REMARK   11  A    between atoms: C_28  and  C_29
REMARK                            x       y       z     vdW  Elec       q    Type
REMARK                         _______ _______ _______ _____ _____    ______ ____
ROOT
ATOM      1  N   UNL     1       1.171   8.923  19.704  0.00  0.00    +0.000 N 
ATOM      2  C   UNL     1       1.983   8.144  18.881  0.00  0.00    +0.000 C 
ATOM      3  O   UNL     1       2.138   8.363  17.674  0.00  0.00    +0.000 OA
ENDROOT
BRANCH   1  10
ATOM      4  C   UNL     1       1.534  13.850  18.850  0.00  0.00    +0.000 C 
ATOM      5  C   UNL     1       0.782  12.549  18.808  0.00  0.00    +0.000 A 
ATOM      6  C   UNL     1      -0.536  12.521  18.325  0.00  0.00    +0.000 A 
ATOM      7  C   UNL     1      -1.250  11.320  18.257  0.00  0.00    +0.000 A 
ATOM      8  C   UNL     1      -2.672  11.285  17.786  0.00  0.00    +0.000 C 
ATOM      9  C   UNL     1      -0.639  10.134  18.674  0.00  0.00    +0.000 A 
ATOM     10  C   UNL     1       0.658  10.147  19.184  0.00  0.00    +0.000 A 
ATOM     11  C   UNL     1       1.375  11.353  19.250  0.00  0.00    +0.000 A 
ENDBRANCH   1  10
BRANCH   1  12
ATOM     12  C   UNL     1       1.257   8.882  21.178  0.00  0.00    +0.000 C 
BRANCH  12  13
ATOM     13  C   UNL     1      -0.027   9.244  21.943  0.00  0.00    +0.000 C 
ATOM     14  O   UNL     1      -0.824   8.373  22.286  0.00  0.00    +0.000 OA
ATOM     15  N   UNL     1      -0.189  10.567  22.294  0.00  0.00    +0.000 N 
ATOM     16  H   UNL     1       0.623  11.172  22.265  0.00  0.00    +0.000 HD
BRANCH  15  17
ATOM     17  C   UNL     1      -1.277  10.962  23.184  0.00  0.00    +0.000 C 
BRANCH  17  18
ATOM     18  C   UNL     1      -1.671  12.434  23.053  0.00  0.00    +0.000 C 
ATOM     19  C   UNL     1      -2.097  12.864  21.659  0.00  0.00    +0.000 C 
ATOM     20  C   UNL     1      -1.780  14.339  21.680  0.00  0.00    +0.000 C 
ATOM     21  C   UNL     1      -0.509  14.379  22.502  0.00  0.00    +0.000 C 
ATOM     22  O   UNL     1      -0.564  13.279  23.421  0.00  0.00    +0.000 OA
ENDBRANCH  17  18
ENDBRANCH  15  17
ENDBRANCH  12  13
ENDBRANCH   1  12
BRANCH   2  23
ATOM     23  C   UNL     1       2.605   6.900  19.510  0.00  0.00    +0.000 C 
BRANCH  23  24
ATOM     24  C   UNL     1       2.756   5.760  18.514  0.00  0.00    +0.000 C 
BRANCH  24  25
ATOM     25  C   UNL     1       4.195   5.682  18.047  0.00  0.00    +0.000 C 
ATOM     26  O   UNL     1       5.104   5.814  18.859  0.00  0.00    +0.000 OA
ATOM     27  N   UNL     1       4.305   5.517  16.684  0.00  0.00    +0.000 N 
ATOM     28  C   UNL     1       5.503   5.411  16.009  0.00  0.00    +0.000 A 
ATOM     29  C   UNL     1       5.609   5.229  14.608  0.00  0.00    +0.000 A 
ATOM     30  C   UNL     1       6.964   5.133  14.374  0.00  0.00    +0.000 A 
ATOM     31  C   UNL     1       7.803   4.891  13.193  0.00  0.00    +0.000 C 
ATOM     32  O   UNL     1       7.623   5.279  15.550  0.00  0.00    +0.000 OA
ATOM     33  N   UNL     1       6.714   5.449  16.569  0.00  0.00    +0.000 NA
ATOM     34  H   UNL     1       3.461   5.569  16.116  0.00  0.00    +0.000 HD
ENDBRANCH  24  25
ENDBRANCH  23  24
ENDBRANCH   2  23
TORSDOF 8
ENDMDL
