MODEL 1
REMARK VINA RESULT:      -6.1      0.000      0.000
REMARK  Name = 
REMARK  6 active torsions:
REMARK  status: ('A' for Active; 'I' for Inactive)
REMARK    1  A    between atoms: C_1  and  N_2
REMARK    2  A    between atoms: N_2  and  S_3
REMARK    3  A    between atoms: S_3  and  C_6
REMARK    4  A    between atoms: C_7  and  C_8
REMARK    5  A    between atoms: C_10  and  O_11
REMARK    6  A    between atoms: C_12  and  O_13
REMARK                            x       y       z     vdW  Elec       q    Type
REMARK                         _______ _______ _______ _____ _____    ______ ____
ROOT
ATOM      1  C   UNL     1       3.142   4.725  17.834  0.00  0.00    +0.000 C 
ATOM      2  C   UNL     1       3.338   4.593  19.365  0.00  0.00    +0.000 C 
ATOM      3  C   UNL     1       2.645   3.293  19.763  0.00  0.00    +0.000 C 
ATOM      4  C   UNL     1       1.518   3.156  18.740  0.00  0.00    +0.000 C 
ATOM      5  C   UNL     1       2.178   3.591  17.440  0.00  0.00    +0.000 C 
ENDROOT
BRANCH   1   7
ATOM      6  C   UNL     1       5.673   4.675  17.612  0.00  0.00    +0.000 C 
ATOM      7  C   UNL     1       4.444   4.756  17.071  0.00  0.00    +0.000 C 
BRANCH   6   8
ATOM      8  S   UNL     1       7.079   4.708  16.589  0.00  0.00    +0.000 S 
ATOM      9  O   UNL     1       6.713   4.177  15.297  0.00  0.00    +0.000 OA
ATOM     10  O   UNL     1       8.210   4.178  17.322  0.00  0.00    +0.000 OA
BRANCH   8  12
ATOM     11  C   UNL     1       7.390   7.159  17.572  0.00  0.00    +0.000 C 
ATOM     12  N   UNL     1       7.372   6.363  16.332  0.00  0.00    +0.000 NA
ATOM     13  H   UNL     1       8.240   6.477  15.807  0.00  0.00    +0.000 HD
ENDBRANCH   8  12
ENDBRANCH   6   8
ENDBRANCH   1   7
BRANCH   3  14
ATOM     14  O   UNL     1       3.538   2.180  19.650  0.00  0.00    +0.000 OA
ATOM     15  H   UNL     1       3.320   1.528  20.341  0.00  0.00    +0.000 HD
ENDBRANCH   3  14
BRANCH   4  16
ATOM     16  O   UNL     1       1.066   1.814  18.634  0.00  0.00    +0.000 OA
ATOM     17  H   UNL     1       0.818   1.543  19.541  0.00  0.00    +0.000 HD
ENDBRANCH   4  16
TORSDOF 5
ENDMDL
MODEL 2
REMARK VINA RESULT:      -6.0      1.488      1.781
REMARK  Name = 
REMARK  6 active torsions:
REMARK  status: ('A' for Active; 'I' for Inactive)
REMARK    1  A    between atoms: C_1  and  N_2
REMARK    2  A    between atoms: N_2  and  S_3
REMARK    3  A    between atoms: S_3  and  C_6
REMARK    4  A    between atoms: C_7  and  C_8
REMARK    5  A    between atoms: C_10  and  O_11
REMARK    6  A    between atoms: C_12  and  O_13
REMARK                            x       y       z     vdW  Elec       q    Type
REMARK                         _______ _______ _______ _____ _____    ______ ____
ROOT
ATOM      1  C   UNL     1       3.060   4.943  17.684  0.00  0.00    +0.000 C 
ATOM      2  C   UNL     1       2.619   5.082  19.164  0.00  0.00    +0.000 C 
ATOM      3  C   UNL     1       2.234   3.677  19.617  0.00  0.00    +0.000 C 
ATOM      4  C   UNL     1       1.740   3.005  18.336  0.00  0.00    +0.000 C 
ATOM      5  C   UNL     1       2.729   3.493  17.288  0.00  0.00    +0.000 C 
ENDROOT
BRANCH   1   7
ATOM      6  C   UNL     1       5.365   4.754  16.630  0.00  0.00    +0.000 C 
ATOM      7  C   UNL     1       4.491   5.363  17.452  0.00  0.00    +0.000 C 
BRANCH   6   8
ATOM      8  S   UNL     1       6.979   5.376  16.460  0.00  0.00    +0.000 S 
ATOM      9  O   UNL     1       7.878   4.514  17.190  0.00  0.00    +0.000 OA
ATOM     10  O   UNL     1       6.962   6.806  16.689  0.00  0.00    +0.000 OA
BRANCH   8  12
ATOM     11  C   UNL     1       6.411   4.233  14.127  0.00  0.00    +0.000 C 
ATOM     12  N   UNL     1       7.351   5.132  14.818  0.00  0.00    +0.000 NA
ATOM     13  H   UNL     1       7.413   6.035  14.345  0.00  0.00    +0.000 HD
ENDBRANCH   8  12
ENDBRANCH   6   8
ENDBRANCH   1   7
BRANCH   3  14
ATOM     14  O   UNL     1       3.372   2.972  20.124  0.00  0.00    +0.000 OA
ATOM     15  H   UNL     1       4.128   3.120  19.526  0.00  0.00    +0.000 HD
ENDBRANCH   3  14
BRANCH   4  16
ATOM     16  O   UNL     1       1.788   1.590  18.434  0.00  0.00    +0.000 OA
ATOM     17  H   UNL     1       1.150   1.254  17.770  0.00  0.00    +0.000 HD
ENDBRANCH   4  16
TORSDOF 5
ENDMDL
MODEL 3
REMARK VINA RESULT:      -6.0      2.019      2.251
REMARK  Name = 
REMARK  6 active torsions:
REMARK  status: ('A' for Active; 'I' for Inactive)
REMARK    1  A    between atoms: C_1  and  N_2
REMARK    2  A    between atoms: N_2  and  S_3
REMARK    3  A    between atoms: S_3  and  C_6
REMARK    4  A    between atoms: C_7  and  C_8
REMARK    5  A    between atoms: C_10  and  O_11
REMARK    6  A    between atoms: C_12  and  O_13
REMARK                            x       y       z     vdW  Elec       q    Type
REMARK                         _______ _______ _______ _____ _____    ______ ____
ROOT
ATOM      1  C   UNL     1       2.446   5.119  19.010  0.00  0.00    +0.000 C 
ATOM      2  C   UNL     1       1.959   4.800  20.447  0.00  0.00    +0.000 C 
ATOM      3  C   UNL     1       1.547   3.331  20.431  0.00  0.00    +0.000 C 
ATOM      4  C   UNL     1       1.088   3.100  18.991  0.00  0.00    +0.000 C 
ATOM      5  C   UNL     1       2.114   3.870  18.174  0.00  0.00    +0.000 C 
ENDROOT
BRANCH   1   7
ATOM      6  C   UNL     1       4.953   4.759  18.797  0.00  0.00    +0.000 C 
ATOM      7  C   UNL     1       3.887   5.564  18.959  0.00  0.00    +0.000 C 
BRANCH   6   8
ATOM      8  S   UNL     1       6.554   5.433  18.741  0.00  0.00    +0.000 S 
ATOM      9  O   UNL     1       7.127   5.353  20.064  0.00  0.00    +0.000 OA
ATOM     10  O   UNL     1       6.515   6.687  18.017  0.00  0.00    +0.000 OA
BRANCH   8  12
ATOM     11  C   UNL     1       7.121   4.394  16.360  0.00  0.00    +0.000 C 
ATOM     12  N   UNL     1       7.440   4.331  17.797  0.00  0.00    +0.000 NA
ATOM     13  H   UNL     1       8.439   4.469  17.960  0.00  0.00    +0.000 HD
ENDBRANCH   8  12
ENDBRANCH   6   8
ENDBRANCH   1   7
BRANCH   3  14
ATOM     14  O   UNL     1       2.662   2.483  20.724  0.00  0.00    +0.000 OA
ATOM     15  H   UNL     1       3.013   2.122  19.889  0.00  0.00    +0.000 HD
ENDBRANCH   3  14
BRANCH   4  16
ATOM     16  O   UNL     1       1.120   1.724  18.645  0.00  0.00    +0.000 OA
ATOM     17  H   UNL     1       0.186   1.460  18.509  0.00  0.00    +0.000 HD
ENDBRANCH   4  16
TORSDOF 5
ENDMDL
MODEL 4
REMARK VINA RESULT:      -6.0      1.874      2.235
REMARK  Name = 
REMARK  6 active torsions:
REMARK  status: ('A' for Active; 'I' for Inactive)
REMARK    1  A    between atoms: C_1  and  N_2
REMARK    2  A    between atoms: N_2  and  S_3
REMARK    3  A    between atoms: S_3  and  C_6
REMARK    4  A    between atoms: C_7  and  C_8
REMARK    5  A    between atoms: C_10  and  O_11
REMARK    6  A    between atoms: C_12  and  O_13
REMARK                            x       y       z     vdW  Elec       q    Type
REMARK                         _______ _______ _______ _____ _____    ______ ____
ROOT
ATOM      1  C   UNL     1       3.314   4.622  18.114  0.00  0.00    +0.000 C 
ATOM      2  C   UNL     1       3.926   4.054  19.419  0.00  0.00    +0.000 C 
ATOM      3  C   UNL     1       3.331   2.659  19.585  0.00  0.00    +0.000 C 
ATOM      4  C   UNL     1       1.959   2.769  18.920  0.00  0.00    +0.000 C 
ATOM      5  C   UNL     1       2.243   3.605  17.682  0.00  0.00    +0.000 C 
ENDROOT
BRANCH   1   7
ATOM      6  C   UNL     1       5.327   4.124  16.644  0.00  0.00    +0.000 C 
ATOM      7  C   UNL     1       4.351   4.948  17.066  0.00  0.00    +0.000 C 
BRANCH   6   8
ATOM      8  S   UNL     1       6.436   4.647  15.411  0.00  0.00    +0.000 S 
ATOM      9  O   UNL     1       7.777   4.540  15.933  0.00  0.00    +0.000 OA
ATOM     10  O   UNL     1       5.953   5.884  14.834  0.00  0.00    +0.000 OA
BRANCH   8  12
ATOM     11  C   UNL     1       6.563   3.955  12.847  0.00  0.00    +0.000 C 
ATOM     12  N   UNL     1       6.321   3.449  14.209  0.00  0.00    +0.000 NA
ATOM     13  H   UNL     1       6.952   2.679  14.435  0.00  0.00    +0.000 HD
ENDBRANCH   8  12
ENDBRANCH   6   8
ENDBRANCH   1   7
BRANCH   3  14
ATOM     14  O   UNL     1       4.121   1.679  18.902  0.00  0.00    +0.000 OA
ATOM     15  H   UNL     1       4.155   0.869  19.443  0.00  0.00    +0.000 HD
ENDBRANCH   3  14
BRANCH   4  16
ATOM     16  O   UNL     1       1.453   1.497  18.548  0.00  0.00    +0.000 OA
ATOM     17  H   UNL     1       1.430   1.494  17.569  0.00  0.00    +0.000 HD
ENDBRANCH   4  16
TORSDOF 5
ENDMDL
MODEL 5
REMARK VINA RESULT:      -6.0      2.380      2.803
REMARK  Name = 
REMARK  6 active torsions:
REMARK  status: ('A' for Active; 'I' for Inactive)
REMARK    1  A    between atoms: C_1  and  N_2
REMARK    2  A    between atoms: N_2  and  S_3
REMARK    3  A    between atoms: S_3  and  C_6
REMARK    4  A    between atoms: C_7  and  C_8
REMARK    5  A    between atoms: C_10  and  O_11
REMARK    6  A    between atoms: C_12  and  O_13
REMARK                            x       y       z     vdW  Elec       q    Type
REMARK                         _______ _______ _______ _____ _____    ______ ____
ROOT
ATOM      1  C   UNL     1       2.937   3.188  18.766  0.00  0.00    +0.000 C 
ATOM      2  C   UNL     1       1.639   4.031  18.687  0.00  0.00    +0.000 C 
ATOM      3  C   UNL     1       1.027   3.986  20.084  0.00  0.00    +0.000 C 
ATOM      4  C   UNL     1       1.479   2.632  20.633  0.00  0.00    +0.000 C 
ATOM      5  C   UNL     1       2.920   2.531  20.158  0.00  0.00    +0.000 C 
ENDROOT
BRANCH   1   7
ATOM      6  C   UNL     1       5.084   4.422  19.337  0.00  0.00    +0.000 C 
ATOM      7  C   UNL     1       4.179   3.982  18.444  0.00  0.00    +0.000 C 
BRANCH   6   8
ATOM      8  S   UNL     1       6.477   5.313  18.800  0.00  0.00    +0.000 S 
ATOM      9  O   UNL     1       7.346   5.524  19.933  0.00  0.00    +0.000 OA
ATOM     10  O   UNL     1       6.041   6.420  17.975  0.00  0.00    +0.000 OA
BRANCH   8  12
ATOM     11  C   UNL     1       7.122   4.495  16.354  0.00  0.00    +0.000 C 
ATOM     12  N   UNL     1       7.306   4.225  17.790  0.00  0.00    +0.000 NA
ATOM     13  H   UNL     1       8.296   4.215  18.040  0.00  0.00    +0.000 HD
ENDBRANCH   8  12
ENDBRANCH   6   8
ENDBRANCH   1   7
BRANCH   3  14
ATOM     14  O   UNL     1       1.546   5.037  20.906  0.00  0.00    +0.000 OA
ATOM     15  H   UNL     1       1.994   4.643  21.677  0.00  0.00    +0.000 HD
ENDBRANCH   3  14
BRANCH   4  16
ATOM     16  O   UNL     1       1.426   2.597  22.051  0.00  0.00    +0.000 OA
ATOM     17  H   UNL     1       0.820   3.320  22.315  0.00  0.00    +0.000 HD
ENDBRANCH   4  16
TORSDOF 5
ENDMDL
MODEL 6
REMARK VINA RESULT:      -6.0      1.079      1.211
REMARK  Name = 
REMARK  6 active torsions:
REMARK  status: ('A' for Active; 'I' for Inactive)
REMARK    1  A    between atoms: C_1  and  N_2
REMARK    2  A    between atoms: N_2  and  S_3
REMARK    3  A    between atoms: S_3  and  C_6
REMARK    4  A    between atoms: C_7  and  C_8
REMARK    5  A    between atoms: C_10  and  O_11
REMARK    6  A    between atoms: C_12  and  O_13
REMARK                            x       y       z     vdW  Elec       q    Type
REMARK                         _______ _______ _______ _____ _____    ______ ____
ROOT
ATOM      1  C   UNL     1       2.991   4.528  18.409  0.00  0.00    +0.000 C 
ATOM      2  C   UNL     1       3.489   3.463  19.420  0.00  0.00    +0.000 C 
ATOM      3  C   UNL     1       2.480   2.321  19.354  0.00  0.00    +0.000 C 
ATOM      4  C   UNL     1       1.171   3.017  18.978  0.00  0.00    +0.000 C 
ATOM      5  C   UNL     1       1.609   4.038  17.940  0.00  0.00    +0.000 C 
ENDROOT
BRANCH   1   7
ATOM      6  C   UNL     1       5.236   5.267  17.474  0.00  0.00    +0.000 C 
ATOM      7  C   UNL     1       3.984   4.806  17.306  0.00  0.00    +0.000 C 
BRANCH   6   8
ATOM      8  S   UNL     1       6.264   5.519  16.095  0.00  0.00    +0.000 S 
ATOM      9  O   UNL     1       5.518   6.251  15.100  0.00  0.00    +0.000 OA
ATOM     10  O   UNL     1       6.929   4.275  15.767  0.00  0.00    +0.000 OA
BRANCH   8  12
ATOM     11  C   UNL     1       7.603   6.608  18.117  0.00  0.00    +0.000 C 
ATOM     12  N   UNL     1       7.455   6.597  16.652  0.00  0.00    +0.000 NA
ATOM     13  H   UNL     1       8.344   6.390  16.192  0.00  0.00    +0.000 HD
ENDBRANCH   8  12
ENDBRANCH   6   8
ENDBRANCH   1   7
BRANCH   3  14
ATOM     14  O   UNL     1       2.836   1.381  18.335  0.00  0.00    +0.000 OA
ATOM     15  H   UNL     1       3.599   1.727  17.837  0.00  0.00    +0.000 HD
ENDBRANCH   3  14
BRANCH   4  16
ATOM     16  O   UNL     1       0.239   2.109  18.409  0.00  0.00    +0.000 OA
ATOM     17  H   UNL     1      -0.647   2.456  18.640  0.00  0.00    +0.000 HD
ENDBRANCH   4  16
TORSDOF 5
ENDMDL
MODEL 7
REMARK VINA RESULT:      -6.0      1.609      1.800
REMARK  Name = 
REMARK  6 active torsions:
REMARK  status: ('A' for Active; 'I' for Inactive)
REMARK    1  A    between atoms: C_1  and  N_2
REMARK    2  A    between atoms: N_2  and  S_3
REMARK    3  A    between atoms: S_3  and  C_6
REMARK    4  A    between atoms: C_7  and  C_8
REMARK    5  A    between atoms: C_10  and  O_11
REMARK    6  A    between atoms: C_12  and  O_13
REMARK                            x       y       z     vdW  Elec       q    Type
REMARK                         _______ _______ _______ _____ _____    ______ ____
ROOT
ATOM      1  C   UNL     1       3.195   4.059  17.821  0.00  0.00    +0.000 C 
ATOM      2  C   UNL     1       3.399   4.095  19.358  0.00  0.00    +0.000 C 
ATOM      3  C   UNL     1       3.871   2.698  19.748  0.00  0.00    +0.000 C 
ATOM      4  C   UNL     1       3.222   1.791  18.702  0.00  0.00    +0.000 C 
ATOM      5  C   UNL     1       3.375   2.585  17.415  0.00  0.00    +0.000 C 
ENDROOT
BRANCH   1   7
ATOM      6  C   UNL     1       5.381   4.879  16.817  0.00  0.00    +0.000 C 
ATOM      7  C   UNL     1       4.072   5.042  17.085  0.00  0.00    +0.000 C 
BRANCH   6   8
ATOM      8  S   UNL     1       6.248   6.103  15.939  0.00  0.00    +0.000 S 
ATOM      9  O   UNL     1       5.293   6.906  15.213  0.00  0.00    +0.000 OA
ATOM     10  O   UNL     1       7.377   5.493  15.266  0.00  0.00    +0.000 OA
BRANCH   8  12
ATOM     11  C   UNL     1       7.519   6.401  18.255  0.00  0.00    +0.000 C 
ATOM     12  N   UNL     1       6.871   7.124  17.147  0.00  0.00    +0.000 NA
ATOM     13  H   UNL     1       7.508   7.802  16.726  0.00  0.00    +0.000 HD
ENDBRANCH   8  12
ENDBRANCH   6   8
ENDBRANCH   1   7
BRANCH   3  14
ATOM     14  O   UNL     1       5.296   2.595  19.658  0.00  0.00    +0.000 OA
ATOM     15  H   UNL     1       5.619   3.239  19.002  0.00  0.00    +0.000 HD
ENDBRANCH   3  14
BRANCH   4  16
ATOM     16  O   UNL     1       3.898   0.548  18.594  0.00  0.00    +0.000 OA
ATOM     17  H   UNL     1       4.533   0.522  19.340  0.00  0.00    +0.000 HD
ENDBRANCH   4  16
TORSDOF 5
ENDMDL
MODEL 8
REMARK VINA RESULT:      -6.0      1.698      2.147
REMARK  Name = 
REMARK  6 active torsions:
REMARK  status: ('A' for Active; 'I' for Inactive)
REMARK    1  A    between atoms: C_1  and  N_2
REMARK    2  A    between atoms: N_2  and  S_3
REMARK    3  A    between atoms: S_3  and  C_6
REMARK    4  A    between atoms: C_7  and  C_8
REMARK    5  A    between atoms: C_10  and  O_11
REMARK    6  A    between atoms: C_12  and  O_13
REMARK                            x       y       z     vdW  Elec       q    Type
REMARK                         _______ _______ _______ _____ _____    ______ ____
ROOT
ATOM      1  C   UNL     1       2.975   4.521  18.462  0.00  0.00    +0.000 C 
ATOM      2  C   UNL     1       3.543   3.414  19.387  0.00  0.00    +0.000 C 
ATOM      3  C   UNL     1       2.590   2.230  19.253  0.00  0.00    +0.000 C 
ATOM      4  C   UNL     1       1.243   2.883  18.946  0.00  0.00    +0.000 C 
ATOM      5  C   UNL     1       1.611   3.996  17.978  0.00  0.00    +0.000 C 
ENDROOT
BRANCH   1   7
ATOM      6  C   UNL     1       5.211   5.309  17.545  0.00  0.00    +0.000 C 
ATOM      7  C   UNL     1       3.934   4.926  17.368  0.00  0.00    +0.000 C 
BRANCH   6   8
ATOM      8  S   UNL     1       6.192   5.729  16.173  0.00  0.00    +0.000 S 
ATOM      9  O   UNL     1       7.392   6.374  16.653  0.00  0.00    +0.000 OA
ATOM     10  O   UNL     1       5.358   6.354  15.167  0.00  0.00    +0.000 OA
BRANCH   8  12
ATOM     11  C   UNL     1       6.136   3.921  14.225  0.00  0.00    +0.000 C 
ATOM     12  N   UNL     1       6.702   4.232  15.549  0.00  0.00    +0.000 NA
ATOM     13  H   UNL     1       7.723   4.200  15.531  0.00  0.00    +0.000 HD
ENDBRANCH   8  12
ENDBRANCH   6   8
ENDBRANCH   1   7
BRANCH   3  14
ATOM     14  O   UNL     1       2.975   1.383  18.166  0.00  0.00    +0.000 OA
ATOM     15  H   UNL     1       3.790   0.906  18.410  0.00  0.00    +0.000 HD
ENDBRANCH   3  14
BRANCH   4  16
ATOM     16  O   UNL     1       0.348   1.971  18.327  0.00  0.00    +0.000 OA
ATOM     17  H   UNL     1      -0.253   2.517  17.778  0.00  0.00    +0.000 HD
ENDBRANCH   4  16
TORSDOF 5
ENDMDL
MODEL 9
REMARK VINA RESULT:      -5.9      2.854      5.616
REMARK  Name = 
REMARK  6 active torsions:
REMARK  status: ('A' for Active; 'I' for Inactive)
REMARK    1  A    between atoms: C_1  and  N_2
REMARK    2  A    between atoms: N_2  and  S_3
REMARK    3  A    between atoms: S_3  and  C_6
REMARK    4  A    between atoms: C_7  and  C_8
REMARK    5  A    between atoms: C_10  and  O_11
REMARK    6  A    between atoms: C_12  and  O_13
REMARK                            x       y       z     vdW  Elec       q    Type
REMARK                         _______ _______ _______ _____ _____    ______ ____
ROOT
ATOM      1  C   UNL     1       5.022   5.702  17.887  0.00  0.00    +0.000 C 
ATOM      2  C   UNL     1       5.336   5.757  16.371  0.00  0.00    +0.000 C 
ATOM      3  C   UNL     1       6.597   4.921  16.176  0.00  0.00    +0.000 C 
ATOM      4  C   UNL     1       7.340   5.072  17.503  0.00  0.00    +0.000 C 
ATOM      5  C   UNL     1       6.225   4.992  18.534  0.00  0.00    +0.000 C 
ENDROOT
BRANCH   1   7
ATOM      6  C   UNL     1       3.427   3.779  18.356  0.00  0.00    +0.000 C 
ATOM      7  C   UNL     1       3.675   5.091  18.190  0.00  0.00    +0.000 C 
BRANCH   6   8
ATOM      8  S   UNL     1       1.816   3.236  18.720  0.00  0.00    +0.000 S 
ATOM      9  O   UNL     1       1.886   1.857  19.141  0.00  0.00    +0.000 OA
ATOM     10  O   UNL     1       0.925   3.650  17.655  0.00  0.00    +0.000 OA
BRANCH   8  12
ATOM     11  C   UNL     1       1.906   3.534  21.360  0.00  0.00    +0.000 C 
ATOM     12  N   UNL     1       1.383   4.113  20.111  0.00  0.00    +0.000 NA
ATOM     13  H   UNL     1       1.675   5.086  20.005  0.00  0.00    +0.000 HD
ENDBRANCH   8  12
ENDBRANCH   6   8
ENDBRANCH   1   7
BRANCH   3  14
ATOM     14  O   UNL     1       6.271   3.544  15.960  0.00  0.00    +0.000 OA
ATOM     15  H   UNL     1       6.162   3.105  16.823  0.00  0.00    +0.000 HD
ENDBRANCH   3  14
BRANCH   4  16
ATOM     16  O   UNL     1       8.271   4.020  17.706  0.00  0.00    +0.000 OA
ATOM     17  H   UNL     1       9.017   4.414  18.203  0.00  0.00    +0.000 HD
ENDBRANCH   4  16
TORSDOF 5
ENDMDL
