MODEL 1
REMARK VINA RESULT:      -7.7      0.000      0.000
REMARK  Name = 
REMARK  10 active torsions:
REMARK  status: ('A' for Active; 'I' for Inactive)
REMARK    1  A    between atoms: C_1  and  O_2
REMARK    2  A    between atoms: O_2  and  C_3
REMARK    3  A    between atoms: C_8  and  C_9
REMARK    4  A    between atoms: C_9  and  C_11
REMARK    5  A    between atoms: C_15  and  O_16
REMARK    6  A    between atoms: O_16  and  C_17
REMARK    7  A    between atoms: C_17  and  C_18
REMARK    8  A    between atoms: C_18  and  N_19
REMARK    9  A    between atoms: N_19  and  C_20
REMARK   10  A    between atoms: N_19  and  C_21
REMARK                            x       y       z     vdW  Elec       q    Type
REMARK                         _______ _______ _______ _____ _____    ______ ____
ROOT
ATOM      1  C   UNL     1       3.487   5.391  19.239  0.00  0.00    +0.000 A 
ATOM      2  C   UNL     1       3.254   4.705  18.064  0.00  0.00    +0.000 A 
ATOM      3  C   UNL     1       4.482   4.534  17.383  0.00  0.00    +0.000 A 
ATOM      4  C   UNL     1       4.840   3.970  16.144  0.00  0.00    +0.000 A 
ATOM      5  C   UNL     1       6.180   3.958  15.751  0.00  0.00    +0.000 A 
ATOM      6  C   UNL     1       7.158   4.489  16.597  0.00  0.00    +0.000 A 
ATOM      7  C   UNL     1       6.826   5.039  17.847  0.00  0.00    +0.000 A 
ATOM      8  C   UNL     1       5.476   5.063  18.204  0.00  0.00    +0.000 A 
ATOM      9  N   UNL     1       4.855   5.546  19.336  0.00  0.00    +0.000 N 
ATOM     10  H   UNL     1       5.343   5.925  20.138  0.00  0.00    +0.000 HD
ENDROOT
BRANCH   1  11
ATOM     11  C   UNL     1       2.497   5.757  20.227  0.00  0.00    +0.000 C 
ATOM     12  O   UNL     1       2.127   4.965  21.087  0.00  0.00    +0.000 OA
BRANCH  11  18
ATOM     13  C   UNL     1       0.083  11.315  20.514  0.00  0.00    +0.000 A 
ATOM     14  C   UNL     1       0.533  11.401  19.197  0.00  0.00    +0.000 A 
ATOM     15  C   UNL     1       1.207  10.339  18.604  0.00  0.00    +0.000 A 
ATOM     16  C   UNL     1       1.435   9.167  19.346  0.00  0.00    +0.000 A 
ATOM     17  C   UNL     1       2.025   7.925  19.038  0.00  0.00    +0.000 A 
ATOM     18  C   UNL     1       1.971   7.110  20.151  0.00  0.00    +0.000 A 
ATOM     19  N   UNL     1       1.422   7.877  21.161  0.00  0.00    +0.000 N 
ATOM     20  C   UNL     1       1.030   9.110  20.679  0.00  0.00    +0.000 A 
ATOM     21  C   UNL     1       0.365  10.183  21.295  0.00  0.00    +0.000 A 
ATOM     22  H   UNL     1       1.323   7.591  22.132  0.00  0.00    +0.000 HD
BRANCH  13  24
ATOM     23  C   UNL     1      -0.881  12.081  22.511  0.00  0.00    +0.000 C 
ATOM     24  O   UNL     1      -0.623  12.321  21.126  0.00  0.00    +0.000 OA
ENDBRANCH  13  24
ENDBRANCH  11  18
ENDBRANCH   1  11
BRANCH   5  25
ATOM     25  O   UNL     1       6.406   3.441  14.498  0.00  0.00    +0.000 OA
BRANCH  25  26
ATOM     26  C   UNL     1       6.733   4.405  13.494  0.00  0.00    +0.000 C 
BRANCH  26  27
ATOM     27  C   UNL     1       6.622   3.770  12.096  0.00  0.00    +0.000 C 
BRANCH  27  28
ATOM     28  N   UNL     1       5.583   2.720  12.012  0.00  0.00    +0.000 NA
ATOM     29  C   UNL     1       4.351   3.208  11.390  0.00  0.00    +0.000 C 
ATOM     30  C   UNL     1       6.085   1.569  11.257  0.00  0.00    +0.000 C 
ENDBRANCH  27  28
ENDBRANCH  26  27
ENDBRANCH  25  26
ENDBRANCH   5  25
TORSDOF 7
ENDMDL
MODEL 2
REMARK VINA RESULT:      -7.7      2.344      8.992
REMARK  Name = 
REMARK  10 active torsions:
REMARK  status: ('A' for Active; 'I' for Inactive)
REMARK    1  A    between atoms: C_1  and  O_2
REMARK    2  A    between atoms: O_2  and  C_3
REMARK    3  A    between atoms: C_8  and  C_9
REMARK    4  A    between atoms: C_9  and  C_11
REMARK    5  A    between atoms: C_15  and  O_16
REMARK    6  A    between atoms: O_16  and  C_17
REMARK    7  A    between atoms: C_17  and  C_18
REMARK    8  A    between atoms: C_18  and  N_19
REMARK    9  A    between atoms: N_19  and  C_20
REMARK   10  A    between atoms: N_19  and  C_21
REMARK                            x       y       z     vdW  Elec       q    Type
REMARK                         _______ _______ _______ _____ _____    ______ ____
ROOT
ATOM      1  C   UNL     1       2.759   6.244  19.602  0.00  0.00    +0.000 A 
ATOM      2  C   UNL     1       2.555   7.222  18.650  0.00  0.00    +0.000 A 
ATOM      3  C   UNL     1       1.735   8.233  19.202  0.00  0.00    +0.000 A 
ATOM      4  C   UNL     1       1.170   9.418  18.694  0.00  0.00    +0.000 A 
ATOM      5  C   UNL     1       0.383  10.221  19.523  0.00  0.00    +0.000 A 
ATOM      6  C   UNL     1       0.177   9.853  20.855  0.00  0.00    +0.000 A 
ATOM      7  C   UNL     1       0.747   8.686  21.390  0.00  0.00    +0.000 A 
ATOM      8  C   UNL     1       1.507   7.886  20.533  0.00  0.00    +0.000 A 
ATOM      9  N   UNL     1       2.163   6.696  20.762  0.00  0.00    +0.000 N 
ATOM     10  H   UNL     1       2.228   6.243  21.665  0.00  0.00    +0.000 HD
ENDROOT
BRANCH   1  11
ATOM     11  C   UNL     1       3.550   5.044  19.440  0.00  0.00    +0.000 C 
ATOM     12  O   UNL     1       3.550   4.157  20.288  0.00  0.00    +0.000 OA
BRANCH  11  18
ATOM     13  C   UNL     1       7.218   5.064  14.608  0.00  0.00    +0.000 A 
ATOM     14  C   UNL     1       6.297   4.143  14.110  0.00  0.00    +0.000 A 
ATOM     15  C   UNL     1       5.199   3.752  14.869  0.00  0.00    +0.000 A 
ATOM     16  C   UNL     1       5.020   4.295  16.152  0.00  0.00    +0.000 A 
ATOM     17  C   UNL     1       4.018   4.153  17.133  0.00  0.00    +0.000 A 
ATOM     18  C   UNL     1       4.336   4.941  18.222  0.00  0.00    +0.000 A 
ATOM     19  N   UNL     1       5.568   5.501  17.942  0.00  0.00    +0.000 N 
ATOM     20  C   UNL     1       5.975   5.173  16.664  0.00  0.00    +0.000 A 
ATOM     21  C   UNL     1       7.097   5.562  15.915  0.00  0.00    +0.000 A 
ATOM     22  H   UNL     1       6.116   6.069  18.582  0.00  0.00    +0.000 HD
BRANCH  13  24
ATOM     23  C   UNL     1       8.042   5.581  12.473  0.00  0.00    +0.000 C 
ATOM     24  O   UNL     1       8.291   5.511  13.879  0.00  0.00    +0.000 OA
ENDBRANCH  13  24
ENDBRANCH  11  18
ENDBRANCH   1  11
BRANCH   5  25
ATOM     25  O   UNL     1      -0.167  11.317  18.904  0.00  0.00    +0.000 OA
BRANCH  25  26
ATOM     26  C   UNL     1      -1.550  11.190  18.562  0.00  0.00    +0.000 C 
BRANCH  26  27
ATOM     27  C   UNL     1      -1.704  10.328  17.297  0.00  0.00    +0.000 C 
BRANCH  27  28
ATOM     28  N   UNL     1      -3.067  10.374  16.721  0.00  0.00    +0.000 NA
ATOM     29  C   UNL     1      -3.908  11.381  17.370  0.00  0.00    +0.000 C 
ATOM     30  C   UNL     1      -3.000  10.649  15.283  0.00  0.00    +0.000 C 
ENDBRANCH  27  28
ENDBRANCH  26  27
ENDBRANCH  25  26
ENDBRANCH   5  25
TORSDOF 7
ENDMDL
MODEL 3
REMARK VINA RESULT:      -7.6      2.049      9.067
REMARK  Name = 
REMARK  10 active torsions:
REMARK  status: ('A' for Active; 'I' for Inactive)
REMARK    1  A    between atoms: C_1  and  O_2
REMARK    2  A    between atoms: O_2  and  C_3
REMARK    3  A    between atoms: C_8  and  C_9
REMARK    4  A    between atoms: C_9  and  C_11
REMARK    5  A    between atoms: C_15  and  O_16
REMARK    6  A    between atoms: O_16  and  C_17
REMARK    7  A    between atoms: C_17  and  C_18
REMARK    8  A    between atoms: C_18  and  N_19
REMARK    9  A    between atoms: N_19  and  C_20
REMARK   10  A    between atoms: N_19  and  C_21
REMARK                            x       y       z     vdW  Elec       q    Type
REMARK                         _______ _______ _______ _____ _____    ______ ____
ROOT
ATOM      1  C   UNL     1       2.335   6.393  19.970  0.00  0.00    +0.000 A 
ATOM      2  C   UNL     1       2.274   7.407  19.036  0.00  0.00    +0.000 A 
ATOM      3  C   UNL     1       1.602   8.514  19.604  0.00  0.00    +0.000 A 
ATOM      4  C   UNL     1       1.211   9.774  19.116  0.00  0.00    +0.000 A 
ATOM      5  C   UNL     1       0.541  10.665  19.957  0.00  0.00    +0.000 A 
ATOM      6  C   UNL     1       0.279  10.307  21.282  0.00  0.00    +0.000 A 
ATOM      7  C   UNL     1       0.677   9.062  21.797  0.00  0.00    +0.000 A 
ATOM      8  C   UNL     1       1.322   8.179  20.928  0.00  0.00    +0.000 A 
ATOM      9  N   UNL     1       1.803   6.905  21.137  0.00  0.00    +0.000 N 
ATOM     10  H   UNL     1       1.799   6.431  22.032  0.00  0.00    +0.000 HD
ENDROOT
BRANCH   1  11
ATOM     11  C   UNL     1       2.950   5.098  19.788  0.00  0.00    +0.000 C 
ATOM     12  O   UNL     1       2.652   4.142  20.498  0.00  0.00    +0.000 OA
BRANCH  11  18
ATOM     13  C   UNL     1       6.546   4.517  14.937  0.00  0.00    +0.000 A 
ATOM     14  C   UNL     1       7.563   4.712  15.871  0.00  0.00    +0.000 A 
ATOM     15  C   UNL     1       7.266   4.919  17.214  0.00  0.00    +0.000 A 
ATOM     16  C   UNL     1       5.924   4.931  17.629  0.00  0.00    +0.000 A 
ATOM     17  C   UNL     1       5.300   5.062  18.886  0.00  0.00    +0.000 A 
ATOM     18  C   UNL     1       3.930   4.986  18.722  0.00  0.00    +0.000 A 
ATOM     19  N   UNL     1       3.714   4.890  17.360  0.00  0.00    +0.000 N 
ATOM     20  C   UNL     1       4.912   4.791  16.681  0.00  0.00    +0.000 A 
ATOM     21  C   UNL     1       5.197   4.599  15.319  0.00  0.00    +0.000 A 
ATOM     22  H   UNL     1       2.804   4.899  16.906  0.00  0.00    +0.000 HD
BRANCH  13  24
ATOM     23  C   UNL     1       5.731   3.576  12.949  0.00  0.00    +0.000 C 
ATOM     24  O   UNL     1       6.793   4.267  13.611  0.00  0.00    +0.000 OA
ENDBRANCH  13  24
ENDBRANCH  11  18
ENDBRANCH   1  11
BRANCH   5  25
ATOM     25  O   UNL     1       0.153  11.839  19.357  0.00  0.00    +0.000 OA
BRANCH  25  26
ATOM     26  C   UNL     1      -1.260  12.052  19.300  0.00  0.00    +0.000 C 
BRANCH  26  27
ATOM     27  C   UNL     1      -1.766  11.852  17.860  0.00  0.00    +0.000 C 
BRANCH  27  28
ATOM     28  N   UNL     1      -2.768  10.770  17.738  0.00  0.00    +0.000 NA
ATOM     29  C   UNL     1      -4.128  11.290  17.588  0.00  0.00    +0.000 C 
ATOM     30  C   UNL     1      -2.447   9.910  16.596  0.00  0.00    +0.000 C 
ENDBRANCH  27  28
ENDBRANCH  26  27
ENDBRANCH  25  26
ENDBRANCH   5  25
TORSDOF 7
ENDMDL
MODEL 4
REMARK VINA RESULT:      -7.5      3.289      5.267
REMARK  Name = 
REMARK  10 active torsions:
REMARK  status: ('A' for Active; 'I' for Inactive)
REMARK    1  A    between atoms: C_1  and  O_2
REMARK    2  A    between atoms: O_2  and  C_3
REMARK    3  A    between atoms: C_8  and  C_9
REMARK    4  A    between atoms: C_9  and  C_11
REMARK    5  A    between atoms: C_15  and  O_16
REMARK    6  A    between atoms: O_16  and  C_17
REMARK    7  A    between atoms: C_17  and  C_18
REMARK    8  A    between atoms: C_18  and  N_19
REMARK    9  A    between atoms: N_19  and  C_20
REMARK   10  A    between atoms: N_19  and  C_21
REMARK                            x       y       z     vdW  Elec       q    Type
REMARK                         _______ _______ _______ _____ _____    ______ ____
ROOT
ATOM      1  C   UNL     1       1.454   9.058  19.391  0.00  0.00    +0.000 A 
ATOM      2  C   UNL     1       2.103   8.923  18.180  0.00  0.00    +0.000 A 
ATOM      3  C   UNL     1       2.765   7.674  18.153  0.00  0.00    +0.000 A 
ATOM      4  C   UNL     1       3.605   7.036  17.221  0.00  0.00    +0.000 A 
ATOM      5  C   UNL     1       4.111   5.765  17.504  0.00  0.00    +0.000 A 
ATOM      6  C   UNL     1       3.767   5.129  18.700  0.00  0.00    +0.000 A 
ATOM      7  C   UNL     1       2.915   5.739  19.635  0.00  0.00    +0.000 A 
ATOM      8  C   UNL     1       2.444   7.021  19.341  0.00  0.00    +0.000 A 
ATOM      9  N   UNL     1       1.623   7.863  20.060  0.00  0.00    +0.000 N 
ATOM     10  H   UNL     1       1.179   7.618  20.936  0.00  0.00    +0.000 HD
ENDROOT
BRANCH   1  11
ATOM     11  C   UNL     1       0.652  10.186  19.812  0.00  0.00    +0.000 C 
ATOM     12  O   UNL     1       0.987  10.892  20.758  0.00  0.00    +0.000 OA
BRANCH  11  18
ATOM     13  C   UNL     1      -4.639  11.547  17.176  0.00  0.00    +0.000 A 
ATOM     14  C   UNL     1      -4.095  10.850  16.098  0.00  0.00    +0.000 A 
ATOM     15  C   UNL     1      -2.817  10.304  16.174  0.00  0.00    +0.000 A 
ATOM     16  C   UNL     1      -2.071  10.461  17.354  0.00  0.00    +0.000 A 
ATOM     17  C   UNL     1      -0.803  10.004  17.767  0.00  0.00    +0.000 A 
ATOM     18  C   UNL     1      -0.560  10.442  19.054  0.00  0.00    +0.000 A 
ATOM     19  N   UNL     1      -1.640  11.232  19.398  0.00  0.00    +0.000 N 
ATOM     20  C   UNL     1      -2.600  11.207  18.407  0.00  0.00    +0.000 A 
ATOM     21  C   UNL     1      -3.881  11.779  18.335  0.00  0.00    +0.000 A 
ATOM     22  H   UNL     1      -1.726  11.771  20.256  0.00  0.00    +0.000 HD
BRANCH  13  24
ATOM     23  C   UNL     1      -6.773  11.497  18.148  0.00  0.00    +0.000 C 
ATOM     24  O   UNL     1      -5.910  12.065  17.161  0.00  0.00    +0.000 OA
ENDBRANCH  13  24
ENDBRANCH  11  18
ENDBRANCH   1  11
BRANCH   5  25
ATOM     25  O   UNL     1       4.969   5.266  16.554  0.00  0.00    +0.000 OA
BRANCH  25  26
ATOM     26  C   UNL     1       5.908   4.299  17.032  0.00  0.00    +0.000 C 
BRANCH  26  27
ATOM     27  C   UNL     1       7.271   4.967  17.284  0.00  0.00    +0.000 C 
BRANCH  27  28
ATOM     28  N   UNL     1       7.214   6.052  18.288  0.00  0.00    +0.000 NA
ATOM     29  C   UNL     1       8.008   5.748  19.480  0.00  0.00    +0.000 C 
ATOM     30  C   UNL     1       7.681   7.311  17.701  0.00  0.00    +0.000 C 
ENDBRANCH  27  28
ENDBRANCH  26  27
ENDBRANCH  25  26
ENDBRANCH   5  25
TORSDOF 7
ENDMDL
MODEL 5
REMARK VINA RESULT:      -7.5      3.189      5.571
REMARK  Name = 
REMARK  10 active torsions:
REMARK  status: ('A' for Active; 'I' for Inactive)
REMARK    1  A    between atoms: C_1  and  O_2
REMARK    2  A    between atoms: O_2  and  C_3
REMARK    3  A    between atoms: C_8  and  C_9
REMARK    4  A    between atoms: C_9  and  C_11
REMARK    5  A    between atoms: C_15  and  O_16
REMARK    6  A    between atoms: O_16  and  C_17
REMARK    7  A    between atoms: C_17  and  C_18
REMARK    8  A    between atoms: C_18  and  N_19
REMARK    9  A    between atoms: N_19  and  C_20
REMARK   10  A    between atoms: N_19  and  C_21
REMARK                            x       y       z     vdW  Elec       q    Type
REMARK                         _______ _______ _______ _____ _____    ______ ____
ROOT
ATOM      1  C   UNL     1       1.605   9.389  18.782  0.00  0.00    +0.000 A 
ATOM      2  C   UNL     1       2.155   8.546  17.838  0.00  0.00    +0.000 A 
ATOM      3  C   UNL     1       2.377   7.280  18.429  0.00  0.00    +0.000 A 
ATOM      4  C   UNL     1       2.950   6.078  17.974  0.00  0.00    +0.000 A 
ATOM      5  C   UNL     1       3.022   4.978  18.831  0.00  0.00    +0.000 A 
ATOM      6  C   UNL     1       2.511   5.073  20.128  0.00  0.00    +0.000 A 
ATOM      7  C   UNL     1       1.918   6.257  20.598  0.00  0.00    +0.000 A 
ATOM      8  C   UNL     1       1.882   7.350  19.729  0.00  0.00    +0.000 A 
ATOM      9  N   UNL     1       1.390   8.624  19.911  0.00  0.00    +0.000 N 
ATOM     10  H   UNL     1       0.905   8.938  20.742  0.00  0.00    +0.000 HD
ENDROOT
BRANCH   1  11
ATOM     11  C   UNL     1       1.219  10.767  18.577  0.00  0.00    +0.000 C 
ATOM     12  O   UNL     1       2.056  11.649  18.406  0.00  0.00    +0.000 OA
BRANCH  11  18
ATOM     13  C   UNL     1      -4.752  11.669  17.996  0.00  0.00    +0.000 A 
ATOM     14  C   UNL     1      -4.608  12.318  19.221  0.00  0.00    +0.000 A 
ATOM     15  C   UNL     1      -3.367  12.395  19.845  0.00  0.00    +0.000 A 
ATOM     16  C   UNL     1      -2.248  11.810  19.228  0.00  0.00    +0.000 A 
ATOM     17  C   UNL     1      -0.880  11.752  19.558  0.00  0.00    +0.000 A 
ATOM     18  C   UNL     1      -0.206  11.051  18.577  0.00  0.00    +0.000 A 
ATOM     19  N   UNL     1      -1.171  10.613  17.690  0.00  0.00    +0.000 N 
ATOM     20  C   UNL     1      -2.411  11.114  18.030  0.00  0.00    +0.000 A 
ATOM     21  C   UNL     1      -3.662  11.013  17.400  0.00  0.00    +0.000 A 
ATOM     22  H   UNL     1      -1.007   9.998  16.897  0.00  0.00    +0.000 HD
BRANCH  13  24
ATOM     23  C   UNL     1      -6.977  12.405  17.908  0.00  0.00    +0.000 C 
ATOM     24  O   UNL     1      -5.947  11.605  17.324  0.00  0.00    +0.000 OA
ENDBRANCH  13  24
ENDBRANCH  11  18
ENDBRANCH   1  11
BRANCH   5  25
ATOM     25  O   UNL     1       3.656   3.880  18.302  0.00  0.00    +0.000 OA
BRANCH  25  26
ATOM     26  C   UNL     1       4.964   4.127  17.779  0.00  0.00    +0.000 C 
BRANCH  26  27
ATOM     27  C   UNL     1       5.942   4.439  18.926  0.00  0.00    +0.000 C 
BRANCH  27  28
ATOM     28  N   UNL     1       7.332   4.652  18.467  0.00  0.00    +0.000 NA
ATOM     29  C   UNL     1       7.454   4.565  17.011  0.00  0.00    +0.000 C 
ATOM     30  C   UNL     1       7.820   5.957  18.919  0.00  0.00    +0.000 C 
ENDBRANCH  27  28
ENDBRANCH  26  27
ENDBRANCH  25  26
ENDBRANCH   5  25
TORSDOF 7
ENDMDL
MODEL 6
REMARK VINA RESULT:      -7.5      1.016      1.668
REMARK  Name = 
REMARK  10 active torsions:
REMARK  status: ('A' for Active; 'I' for Inactive)
REMARK    1  A    between atoms: C_1  and  O_2
REMARK    2  A    between atoms: O_2  and  C_3
REMARK    3  A    between atoms: C_8  and  C_9
REMARK    4  A    between atoms: C_9  and  C_11
REMARK    5  A    between atoms: C_15  and  O_16
REMARK    6  A    between atoms: O_16  and  C_17
REMARK    7  A    between atoms: C_17  and  C_18
REMARK    8  A    between atoms: C_18  and  N_19
REMARK    9  A    between atoms: N_19  and  C_20
REMARK   10  A    between atoms: N_19  and  C_21
REMARK                            x       y       z     vdW  Elec       q    Type
REMARK                         _______ _______ _______ _____ _____    ______ ____
ROOT
ATOM      1  C   UNL     1       3.486   5.620  19.091  0.00  0.00    +0.000 A 
ATOM      2  C   UNL     1       3.418   5.344  17.740  0.00  0.00    +0.000 A 
ATOM      3  C   UNL     1       4.721   5.078  17.261  0.00  0.00    +0.000 A 
ATOM      4  C   UNL     1       5.255   4.796  15.990  0.00  0.00    +0.000 A 
ATOM      5  C   UNL     1       6.627   4.577  15.849  0.00  0.00    +0.000 A 
ATOM      6  C   UNL     1       7.458   4.622  16.971  0.00  0.00    +0.000 A 
ATOM      7  C   UNL     1       6.945   4.883  18.253  0.00  0.00    +0.000 A 
ATOM      8  C   UNL     1       5.573   5.125  18.363  0.00  0.00    +0.000 A 
ATOM      9  N   UNL     1       4.800   5.422  19.464  0.00  0.00    +0.000 N 
ATOM     10  H   UNL     1       5.146   5.451  20.415  0.00  0.00    +0.000 HD
ENDROOT
BRANCH   1  11
ATOM     11  C   UNL     1       2.372   5.932  19.958  0.00  0.00    +0.000 C 
ATOM     12  O   UNL     1       1.853   5.075  20.667  0.00  0.00    +0.000 OA
BRANCH  11  18
ATOM     13  C   UNL     1       0.688  11.727  19.341  0.00  0.00    +0.000 A 
ATOM     14  C   UNL     1       0.204  11.554  20.638  0.00  0.00    +0.000 A 
ATOM     15  C   UNL     1       0.329  10.330  21.287  0.00  0.00    +0.000 A 
ATOM     16  C   UNL     1       0.951   9.259  20.624  0.00  0.00    +0.000 A 
ATOM     17  C   UNL     1       1.273   7.940  21.004  0.00  0.00    +0.000 A 
ATOM     18  C   UNL     1       1.906   7.308  19.951  0.00  0.00    +0.000 A 
ATOM     19  N   UNL     1       1.899   8.210  18.904  0.00  0.00    +0.000 N 
ATOM     20  C   UNL     1       1.381   9.424  19.308  0.00  0.00    +0.000 A 
ATOM     21  C   UNL     1       1.244  10.649  18.635  0.00  0.00    +0.000 A 
ATOM     22  H   UNL     1       2.220   8.017  17.959  0.00  0.00    +0.000 HD
BRANCH  13  24
ATOM     23  C   UNL     1       1.306  13.989  19.348  0.00  0.00    +0.000 C 
ATOM     24  O   UNL     1       0.624  12.927  18.678  0.00  0.00    +0.000 OA
ENDBRANCH  13  24
ENDBRANCH  11  18
ENDBRANCH   1  11
BRANCH   5  25
ATOM     25  O   UNL     1       7.045   4.372  14.555  0.00  0.00    +0.000 OA
BRANCH  25  26
ATOM     26  C   UNL     1       6.042   3.877  13.665  0.00  0.00    +0.000 C 
BRANCH  26  27
ATOM     27  C   UNL     1       6.662   3.572  12.289  0.00  0.00    +0.000 C 
BRANCH  27  28
ATOM     28  N   UNL     1       5.730   2.885  11.368  0.00  0.00    +0.000 NA
ATOM     29  C   UNL     1       5.893   1.430  11.398  0.00  0.00    +0.000 C 
ATOM     30  C   UNL     1       4.344   3.226  11.701  0.00  0.00    +0.000 C 
ENDBRANCH  27  28
ENDBRANCH  26  27
ENDBRANCH  25  26
ENDBRANCH   5  25
TORSDOF 7
ENDMDL
MODEL 7
REMARK VINA RESULT:      -7.5      2.422      9.203
REMARK  Name = 
REMARK  10 active torsions:
REMARK  status: ('A' for Active; 'I' for Inactive)
REMARK    1  A    between atoms: C_1  and  O_2
REMARK    2  A    between atoms: O_2  and  C_3
REMARK    3  A    between atoms: C_8  and  C_9
REMARK    4  A    between atoms: C_9  and  C_11
REMARK    5  A    between atoms: C_15  and  O_16
REMARK    6  A    between atoms: O_16  and  C_17
REMARK    7  A    between atoms: C_17  and  C_18
REMARK    8  A    between atoms: C_18  and  N_19
REMARK    9  A    between atoms: N_19  and  C_20
REMARK   10  A    between atoms: N_19  and  C_21
REMARK                            x       y       z     vdW  Elec       q    Type
REMARK                         _______ _______ _______ _____ _____    ______ ____
ROOT
ATOM      1  C   UNL     1       3.125   5.828  19.269  0.00  0.00    +0.000 A 
ATOM      2  C   UNL     1       2.832   6.821  18.355  0.00  0.00    +0.000 A 
ATOM      3  C   UNL     1       2.042   7.807  18.989  0.00  0.00    +0.000 A 
ATOM      4  C   UNL     1       1.421   8.991  18.549  0.00  0.00    +0.000 A 
ATOM      5  C   UNL     1       0.689   9.765  19.452  0.00  0.00    +0.000 A 
ATOM      6  C   UNL     1       0.593   9.370  20.789  0.00  0.00    +0.000 A 
ATOM      7  C   UNL     1       1.221   8.203  21.255  0.00  0.00    +0.000 A 
ATOM      8  C   UNL     1       1.924   7.432  20.326  0.00  0.00    +0.000 A 
ATOM      9  N   UNL     1       2.615   6.250  20.480  0.00  0.00    +0.000 N 
ATOM     10  H   UNL     1       2.757   5.781  21.366  0.00  0.00    +0.000 HD
ENDROOT
BRANCH   1  11
ATOM     11  C   UNL     1       3.920   4.646  19.022  0.00  0.00    +0.000 C 
ATOM     12  O   UNL     1       3.970   3.727  19.835  0.00  0.00    +0.000 OA
BRANCH  11  18
ATOM     13  C   UNL     1       6.461   4.101  13.541  0.00  0.00    +0.000 A 
ATOM     14  C   UNL     1       7.505   4.810  14.135  0.00  0.00    +0.000 A 
ATOM     15  C   UNL     1       7.424   5.219  15.462  0.00  0.00    +0.000 A 
ATOM     16  C   UNL     1       6.274   4.912  16.208  0.00  0.00    +0.000 A 
ATOM     17  C   UNL     1       5.903   5.129  17.551  0.00  0.00    +0.000 A 
ATOM     18  C   UNL     1       4.646   4.599  17.765  0.00  0.00    +0.000 A 
ATOM     19  N   UNL     1       4.215   4.130  16.538  0.00  0.00    +0.000 N 
ATOM     20  C   UNL     1       5.212   4.252  15.591  0.00  0.00    +0.000 A 
ATOM     21  C   UNL     1       5.273   3.850  14.247  0.00  0.00    +0.000 A 
ATOM     22  H   UNL     1       3.291   3.754  16.343  0.00  0.00    +0.000 HD
BRANCH  13  24
ATOM     23  C   UNL     1       5.391   2.841  11.877  0.00  0.00    +0.000 C 
ATOM     24  O   UNL     1       6.515   3.641  12.249  0.00  0.00    +0.000 OA
ENDBRANCH  13  24
ENDBRANCH  11  18
ENDBRANCH   1  11
BRANCH   5  25
ATOM     25  O   UNL     1       0.074  10.863  18.900  0.00  0.00    +0.000 OA
BRANCH  25  26
ATOM     26  C   UNL     1      -0.946  10.570  17.942  0.00  0.00    +0.000 C 
BRANCH  26  27
ATOM     27  C   UNL     1      -2.151  11.504  18.152  0.00  0.00    +0.000 C 
BRANCH  27  28
ATOM     28  N   UNL     1      -3.072  11.538  16.994  0.00  0.00    +0.000 NA
ATOM     29  C   UNL     1      -2.748  10.515  15.998  0.00  0.00    +0.000 C 
ATOM     30  C   UNL     1      -4.456  11.360  17.442  0.00  0.00    +0.000 C 
ENDBRANCH  27  28
ENDBRANCH  26  27
ENDBRANCH  25  26
ENDBRANCH   5  25
TORSDOF 7
ENDMDL
MODEL 8
REMARK VINA RESULT:      -7.4      3.641      5.689
REMARK  Name = 
REMARK  10 active torsions:
REMARK  status: ('A' for Active; 'I' for Inactive)
REMARK    1  A    between atoms: C_1  and  O_2
REMARK    2  A    between atoms: O_2  and  C_3
REMARK    3  A    between atoms: C_8  and  C_9
REMARK    4  A    between atoms: C_9  and  C_11
REMARK    5  A    between atoms: C_15  and  O_16
REMARK    6  A    between atoms: O_16  and  C_17
REMARK    7  A    between atoms: C_17  and  C_18
REMARK    8  A    between atoms: C_18  and  N_19
REMARK    9  A    between atoms: N_19  and  C_20
REMARK   10  A    between atoms: N_19  and  C_21
REMARK                            x       y       z     vdW  Elec       q    Type
REMARK                         _______ _______ _______ _____ _____    ______ ____
ROOT
ATOM      1  C   UNL     1       1.492   8.989  19.354  0.00  0.00    +0.000 A 
ATOM      2  C   UNL     1       1.861   7.872  20.075  0.00  0.00    +0.000 A 
ATOM      3  C   UNL     1       2.711   7.072  19.275  0.00  0.00    +0.000 A 
ATOM      4  C   UNL     1       3.336   5.825  19.461  0.00  0.00    +0.000 A 
ATOM      5  C   UNL     1       4.135   5.294  18.446  0.00  0.00    +0.000 A 
ATOM      6  C   UNL     1       4.324   6.011  17.262  0.00  0.00    +0.000 A 
ATOM      7  C   UNL     1       3.727   7.268  17.063  0.00  0.00    +0.000 A 
ATOM      8  C   UNL     1       2.911   7.764  18.082  0.00  0.00    +0.000 A 
ATOM      9  N   UNL     1       2.190   8.936  18.164  0.00  0.00    +0.000 N 
ATOM     10  H   UNL     1       2.206   9.667  17.465  0.00  0.00    +0.000 HD
ENDROOT
BRANCH   1  11
ATOM     11  C   UNL     1       0.638  10.061  19.815  0.00  0.00    +0.000 C 
ATOM     12  O   UNL     1       0.910  10.709  20.821  0.00  0.00    +0.000 OA
BRANCH  11  18
ATOM     13  C   UNL     1      -4.555  11.505  17.032  0.00  0.00    +0.000 A 
ATOM     14  C   UNL     1      -4.000  10.784  15.976  0.00  0.00    +0.000 A 
ATOM     15  C   UNL     1      -2.737  10.212  16.091  0.00  0.00    +0.000 A 
ATOM     16  C   UNL     1      -2.017  10.366  17.287  0.00  0.00    +0.000 A 
ATOM     17  C   UNL     1      -0.770   9.887  17.736  0.00  0.00    +0.000 A 
ATOM     18  C   UNL     1      -0.550  10.335  19.024  0.00  0.00    +0.000 A 
ATOM     19  N   UNL     1      -1.621  11.152  19.333  0.00  0.00    +0.000 N 
ATOM     20  C   UNL     1      -2.556  11.136  18.318  0.00  0.00    +0.000 A 
ATOM     21  C   UNL     1      -3.822  11.734  18.208  0.00  0.00    +0.000 A 
ATOM     22  H   UNL     1      -1.716  11.702  20.183  0.00  0.00    +0.000 HD
BRANCH  13  24
ATOM     23  C   UNL     1      -6.693  11.564  17.997  0.00  0.00    +0.000 C 
ATOM     24  O   UNL     1      -5.814  12.050  16.980  0.00  0.00    +0.000 OA
ENDBRANCH  13  24
ENDBRANCH  11  18
ENDBRANCH   1  11
BRANCH   5  25
ATOM     25  O   UNL     1       4.642   4.044  18.710  0.00  0.00    +0.000 OA
BRANCH  25  26
ATOM     26  C   UNL     1       3.765   2.957  18.408  0.00  0.00    +0.000 C 
BRANCH  26  27
ATOM     27  C   UNL     1       3.159   2.390  19.704  0.00  0.00    +0.000 C 
BRANCH  27  28
ATOM     28  N   UNL     1       1.834   2.964  20.030  0.00  0.00    +0.000 NA
ATOM     29  C   UNL     1       0.800   2.542  19.083  0.00  0.00    +0.000 C 
ATOM     30  C   UNL     1       1.436   2.581  21.387  0.00  0.00    +0.000 C 
ENDBRANCH  27  28
ENDBRANCH  26  27
ENDBRANCH  25  26
ENDBRANCH   5  25
TORSDOF 7
ENDMDL
MODEL 9
REMARK VINA RESULT:      -7.4      3.137      4.759
REMARK  Name = 
REMARK  10 active torsions:
REMARK  status: ('A' for Active; 'I' for Inactive)
REMARK    1  A    between atoms: C_1  and  O_2
REMARK    2  A    between atoms: O_2  and  C_3
REMARK    3  A    between atoms: C_8  and  C_9
REMARK    4  A    between atoms: C_9  and  C_11
REMARK    5  A    between atoms: C_15  and  O_16
REMARK    6  A    between atoms: O_16  and  C_17
REMARK    7  A    between atoms: C_17  and  C_18
REMARK    8  A    between atoms: C_18  and  N_19
REMARK    9  A    between atoms: N_19  and  C_20
REMARK   10  A    between atoms: N_19  and  C_21
REMARK                            x       y       z     vdW  Elec       q    Type
REMARK                         _______ _______ _______ _____ _____    ______ ____
ROOT
ATOM      1  C   UNL     1       1.383   8.726  20.010  0.00  0.00    +0.000 A 
ATOM      2  C   UNL     1       2.158   8.266  18.964  0.00  0.00    +0.000 A 
ATOM      3  C   UNL     1       2.519   6.923  19.218  0.00  0.00    +0.000 A 
ATOM      4  C   UNL     1       3.322   5.984  18.545  0.00  0.00    +0.000 A 
ATOM      5  C   UNL     1       3.482   4.703  19.076  0.00  0.00    +0.000 A 
ATOM      6  C   UNL     1       2.830   4.355  20.262  0.00  0.00    +0.000 A 
ATOM      7  C   UNL     1       2.007   5.270  20.941  0.00  0.00    +0.000 A 
ATOM      8  C   UNL     1       1.885   6.553  20.403  0.00  0.00    +0.000 A 
ATOM      9  N   UNL     1       1.177   7.649  20.847  0.00  0.00    +0.000 N 
ATOM     10  H   UNL     1       0.564   7.646  21.653  0.00  0.00    +0.000 HD
ENDROOT
BRANCH   1  11
ATOM     11  C   UNL     1       0.802  10.045  20.129  0.00  0.00    +0.000 C 
ATOM     12  O   UNL     1       1.274  10.887  20.887  0.00  0.00    +0.000 OA
BRANCH  11  18
ATOM     13  C   UNL     1      -4.294  11.516  17.185  0.00  0.00    +0.000 A 
ATOM     14  C   UNL     1      -3.719  10.774  16.154  0.00  0.00    +0.000 A 
ATOM     15  C   UNL     1      -2.467  10.188  16.311  0.00  0.00    +0.000 A 
ATOM     16  C   UNL     1      -1.778  10.349  17.524  0.00  0.00    +0.000 A 
ATOM     17  C   UNL     1      -0.550   9.861  18.014  0.00  0.00    +0.000 A 
ATOM     18  C   UNL     1      -0.360  10.323  19.302  0.00  0.00    +0.000 A 
ATOM     19  N   UNL     1      -1.428  11.157  19.570  0.00  0.00    +0.000 N 
ATOM     20  C   UNL     1      -2.336  11.139  18.530  0.00  0.00    +0.000 A 
ATOM     21  C   UNL     1      -3.590  11.751  18.377  0.00  0.00    +0.000 A 
ATOM     22  H   UNL     1      -1.540  11.720  20.410  0.00  0.00    +0.000 HD
BRANCH  13  24
ATOM     23  C   UNL     1      -6.502  11.491  17.974  0.00  0.00    +0.000 C 
ATOM     24  O   UNL     1      -5.543  12.075  17.090  0.00  0.00    +0.000 OA
ENDBRANCH  13  24
ENDBRANCH  11  18
ENDBRANCH   1  11
BRANCH   5  25
ATOM     25  O   UNL     1       4.337   3.892  18.370  0.00  0.00    +0.000 OA
BRANCH  25  26
ATOM     26  C   UNL     1       5.341   4.577  17.617  0.00  0.00    +0.000 C 
BRANCH  26  27
ATOM     27  C   UNL     1       5.573   3.864  16.274  0.00  0.00    +0.000 C 
BRANCH  27  28
ATOM     28  N   UNL     1       5.486   4.770  15.107  0.00  0.00    +0.000 NA
ATOM     29  C   UNL     1       5.377   6.175  15.505  0.00  0.00    +0.000 C 
ATOM     30  C   UNL     1       6.658   4.600  14.244  0.00  0.00    +0.000 C 
ENDBRANCH  27  28
ENDBRANCH  26  27
ENDBRANCH  25  26
ENDBRANCH   5  25
TORSDOF 7
ENDMDL
