MODEL 1
REMARK VINA RESULT:      -6.3      0.000      0.000
REMARK  Name = 
REMARK  6 active torsions:
REMARK  status: ('A' for Active; 'I' for Inactive)
REMARK    1  A    between atoms: C_1  and  C_2
REMARK    2  A    between atoms: C_2  and  C_3
REMARK    3  A    between atoms: C_3  and  O_5
REMARK    4  A    between atoms: O_5  and  C_6
REMARK    5  A    between atoms: C_6  and  C_7
REMARK    6  A    between atoms: C_8  and  C_9
REMARK                            x       y       z     vdW  Elec       q    Type
REMARK                         _______ _______ _______ _____ _____    ______ ____
ROOT
ATOM      1  C   UNL     1       4.436   4.093  16.930  0.00  0.00    +0.000 C 
ATOM      2  C   UNL     1       3.530   4.815  17.607  0.00  0.00    +0.000 C 
ENDROOT
BRANCH   2   3
ATOM      3  C   UNL     1       2.666   4.278  18.670  0.00  0.00    +0.000 A 
ATOM      4  C   UNL     1       2.921   4.654  19.996  0.00  0.00    +0.000 A 
ATOM      5  C   UNL     1       2.138   4.158  21.042  0.00  0.00    +0.000 A 
ATOM      6  C   UNL     1       1.083   3.289  20.773  0.00  0.00    +0.000 A 
ATOM      7  C   UNL     1       0.800   2.930  19.458  0.00  0.00    +0.000 A 
ATOM      8  C   UNL     1       1.582   3.428  18.411  0.00  0.00    +0.000 A 
ENDBRANCH   2   3
BRANCH   1   9
ATOM      9  C   UNL     1       5.344   4.650  15.879  0.00  0.00    +0.000 C 
BRANCH   9  10
ATOM     10  O   UNL     1       6.656   4.099  16.037  0.00  0.00    +0.000 OA
BRANCH  10  11
ATOM     11  C   UNL     1       7.432   4.687  16.989  0.00  0.00    +0.000 C 
ATOM     12  O   UNL     1       8.221   4.104  17.717  0.00  0.00    +0.000 OA
BRANCH  11  14
ATOM     13  C   UNL     1       7.766   6.841  18.221  0.00  0.00    +0.000 C 
ATOM     14  C   UNL     1       7.161   6.170  16.999  0.00  0.00    +0.000 C 
ENDBRANCH  11  14
ENDBRANCH  10  11
ENDBRANCH   9  10
ENDBRANCH   1   9
TORSDOF 5
ENDMDL
MODEL 2
REMARK VINA RESULT:      -6.3      1.133      1.228
REMARK  Name = 
REMARK  6 active torsions:
REMARK  status: ('A' for Active; 'I' for Inactive)
REMARK    1  A    between atoms: C_1  and  C_2
REMARK    2  A    between atoms: C_2  and  C_3
REMARK    3  A    between atoms: C_3  and  O_5
REMARK    4  A    between atoms: O_5  and  C_6
REMARK    5  A    between atoms: C_6  and  C_7
REMARK    6  A    between atoms: C_8  and  C_9
REMARK                            x       y       z     vdW  Elec       q    Type
REMARK                         _______ _______ _______ _____ _____    ______ ____
ROOT
ATOM      1  C   UNL     1       4.074   5.688  16.973  0.00  0.00    +0.000 C 
ATOM      2  C   UNL     1       3.431   5.860  18.138  0.00  0.00    +0.000 C 
ENDROOT
BRANCH   2   3
ATOM      3  C   UNL     1       2.504   4.881  18.727  0.00  0.00    +0.000 A 
ATOM      4  C   UNL     1       2.121   5.041  20.066  0.00  0.00    +0.000 A 
ATOM      5  C   UNL     1       1.256   4.128  20.676  0.00  0.00    +0.000 A 
ATOM      6  C   UNL     1       0.754   3.051  19.950  0.00  0.00    +0.000 A 
ATOM      7  C   UNL     1       1.104   2.894  18.611  0.00  0.00    +0.000 A 
ATOM      8  C   UNL     1       1.967   3.809  18.001  0.00  0.00    +0.000 A 
ENDBRANCH   2   3
BRANCH   1   9
ATOM      9  C   UNL     1       5.048   6.666  16.395  0.00  0.00    +0.000 C 
BRANCH   9  10
ATOM     10  O   UNL     1       6.114   5.959  15.751  0.00  0.00    +0.000 OA
BRANCH  10  11
ATOM     11  C   UNL     1       7.137   5.569  16.561  0.00  0.00    +0.000 C 
ATOM     12  O   UNL     1       7.720   4.497  16.496  0.00  0.00    +0.000 OA
BRANCH  11  14
ATOM     13  C   UNL     1       7.739   6.119  18.927  0.00  0.00    +0.000 C 
ATOM     14  C   UNL     1       7.434   6.671  17.545  0.00  0.00    +0.000 C 
ENDBRANCH  11  14
ENDBRANCH  10  11
ENDBRANCH   9  10
ENDBRANCH   1   9
TORSDOF 5
ENDMDL
MODEL 3
REMARK VINA RESULT:      -6.3      0.157      1.296
REMARK  Name = 
REMARK  6 active torsions:
REMARK  status: ('A' for Active; 'I' for Inactive)
REMARK    1  A    between atoms: C_1  and  C_2
REMARK    2  A    between atoms: C_2  and  C_3
REMARK    3  A    between atoms: C_3  and  O_5
REMARK    4  A    between atoms: O_5  and  C_6
REMARK    5  A    between atoms: C_6  and  C_7
REMARK    6  A    between atoms: C_8  and  C_9
REMARK                            x       y       z     vdW  Elec       q    Type
REMARK                         _______ _______ _______ _____ _____    ______ ____
ROOT
ATOM      1  C   UNL     1       4.393   4.018  17.022  0.00  0.00    +0.000 C 
ATOM      2  C   UNL     1       3.431   4.716  17.647  0.00  0.00    +0.000 C 
ENDROOT
BRANCH   2   3
ATOM      3  C   UNL     1       2.631   4.204  18.770  0.00  0.00    +0.000 A 
ATOM      4  C   UNL     1       1.624   3.265  18.504  0.00  0.00    +0.000 A 
ATOM      5  C   UNL     1       0.826   2.761  19.535  0.00  0.00    +0.000 A 
ATOM      6  C   UNL     1       1.034   3.181  20.846  0.00  0.00    +0.000 A 
ATOM      7  C   UNL     1       2.048   4.091  21.130  0.00  0.00    +0.000 A 
ATOM      8  C   UNL     1       2.848   4.593  20.099  0.00  0.00    +0.000 A 
ENDBRANCH   2   3
BRANCH   1   9
ATOM      9  C   UNL     1       5.235   4.554  15.907  0.00  0.00    +0.000 C 
BRANCH   9  10
ATOM     10  O   UNL     1       6.562   4.026  16.012  0.00  0.00    +0.000 OA
BRANCH  10  11
ATOM     11  C   UNL     1       7.381   4.661  16.894  0.00  0.00    +0.000 C 
ATOM     12  O   UNL     1       8.170   4.111  17.648  0.00  0.00    +0.000 OA
BRANCH  11  14
ATOM     13  C   UNL     1       7.587   6.868  18.058  0.00  0.00    +0.000 C 
ATOM     14  C   UNL     1       7.161   6.149  16.790  0.00  0.00    +0.000 C 
ENDBRANCH  11  14
ENDBRANCH  10  11
ENDBRANCH   9  10
ENDBRANCH   1   9
TORSDOF 5
ENDMDL
MODEL 4
REMARK VINA RESULT:      -6.2      1.554      2.112
REMARK  Name = 
REMARK  6 active torsions:
REMARK  status: ('A' for Active; 'I' for Inactive)
REMARK    1  A    between atoms: C_1  and  C_2
REMARK    2  A    between atoms: C_2  and  C_3
REMARK    3  A    between atoms: C_3  and  O_5
REMARK    4  A    between atoms: O_5  and  C_6
REMARK    5  A    between atoms: C_6  and  C_7
REMARK    6  A    between atoms: C_8  and  C_9
REMARK                            x       y       z     vdW  Elec       q    Type
REMARK                         _______ _______ _______ _____ _____    ______ ____
ROOT
ATOM      1  C   UNL     1       4.026   5.743  17.311  0.00  0.00    +0.000 C 
ATOM      2  C   UNL     1       3.013   5.962  18.165  0.00  0.00    +0.000 C 
ENDROOT
BRANCH   2   3
ATOM      3  C   UNL     1       2.312   4.905  18.909  0.00  0.00    +0.000 A 
ATOM      4  C   UNL     1       2.347   4.935  20.311  0.00  0.00    +0.000 A 
ATOM      5  C   UNL     1       1.710   3.944  21.063  0.00  0.00    +0.000 A 
ATOM      6  C   UNL     1       1.020   2.918  20.423  0.00  0.00    +0.000 A 
ATOM      7  C   UNL     1       0.953   2.891  19.033  0.00  0.00    +0.000 A 
ATOM      8  C   UNL     1       1.588   3.883  18.280  0.00  0.00    +0.000 A 
ENDBRANCH   2   3
BRANCH   1   9
ATOM      9  C   UNL     1       4.766   6.823  16.586  0.00  0.00    +0.000 C 
BRANCH   9  10
ATOM     10  O   UNL     1       5.517   6.250  15.510  0.00  0.00    +0.000 OA
BRANCH  10  11
ATOM     11  C   UNL     1       6.719   5.710  15.853  0.00  0.00    +0.000 C 
ATOM     12  O   UNL     1       7.598   6.283  16.480  0.00  0.00    +0.000 OA
BRANCH  11  14
ATOM     13  C   UNL     1       5.917   4.103  14.109  0.00  0.00    +0.000 C 
ATOM     14  C   UNL     1       6.790   4.295  15.337  0.00  0.00    +0.000 C 
ENDBRANCH  11  14
ENDBRANCH  10  11
ENDBRANCH   9  10
ENDBRANCH   1   9
TORSDOF 5
ENDMDL
MODEL 5
REMARK VINA RESULT:      -6.2      1.668      1.974
REMARK  Name = 
REMARK  6 active torsions:
REMARK  status: ('A' for Active; 'I' for Inactive)
REMARK    1  A    between atoms: C_1  and  C_2
REMARK    2  A    between atoms: C_2  and  C_3
REMARK    3  A    between atoms: C_3  and  O_5
REMARK    4  A    between atoms: O_5  and  C_6
REMARK    5  A    between atoms: C_6  and  C_7
REMARK    6  A    between atoms: C_8  and  C_9
REMARK                            x       y       z     vdW  Elec       q    Type
REMARK                         _______ _______ _______ _____ _____    ______ ____
ROOT
ATOM      1  C   UNL     1       4.104   6.084  17.169  0.00  0.00    +0.000 C 
ATOM      2  C   UNL     1       3.463   6.119  18.348  0.00  0.00    +0.000 C 
ENDROOT
BRANCH   2   3
ATOM      3  C   UNL     1       2.569   5.060  18.839  0.00  0.00    +0.000 A 
ATOM      4  C   UNL     1       2.284   5.004  20.210  0.00  0.00    +0.000 A 
ATOM      5  C   UNL     1       1.452   4.006  20.727  0.00  0.00    +0.000 A 
ATOM      6  C   UNL     1       0.886   3.060  19.877  0.00  0.00    +0.000 A 
ATOM      7  C   UNL     1       1.137   3.120  18.509  0.00  0.00    +0.000 A 
ATOM      8  C   UNL     1       1.966   4.119  17.991  0.00  0.00    +0.000 A 
ENDBRANCH   2   3
BRANCH   1   9
ATOM      9  C   UNL     1       5.047   7.143  16.690  0.00  0.00    +0.000 C 
BRANCH   9  10
ATOM     10  O   UNL     1       6.356   6.584  16.534  0.00  0.00    +0.000 OA
BRANCH  10  11
ATOM     11  C   UNL     1       7.310   7.075  17.373  0.00  0.00    +0.000 C 
ATOM     12  O   UNL     1       7.821   8.182  17.290  0.00  0.00    +0.000 OA
BRANCH  11  14
ATOM     13  C   UNL     1       7.630   4.635  17.830  0.00  0.00    +0.000 C 
ATOM     14  C   UNL     1       7.632   6.036  18.417  0.00  0.00    +0.000 C 
ENDBRANCH  11  14
ENDBRANCH  10  11
ENDBRANCH   9  10
ENDBRANCH   1   9
TORSDOF 5
ENDMDL
MODEL 6
REMARK VINA RESULT:      -6.2      1.658      2.820
REMARK  Name = 
REMARK  6 active torsions:
REMARK  status: ('A' for Active; 'I' for Inactive)
REMARK    1  A    between atoms: C_1  and  C_2
REMARK    2  A    between atoms: C_2  and  C_3
REMARK    3  A    between atoms: C_3  and  O_5
REMARK    4  A    between atoms: O_5  and  C_6
REMARK    5  A    between atoms: C_6  and  C_7
REMARK    6  A    between atoms: C_8  and  C_9
REMARK                            x       y       z     vdW  Elec       q    Type
REMARK                         _______ _______ _______ _____ _____    ______ ____
ROOT
ATOM      1  C   UNL     1       4.401   6.122  17.368  0.00  0.00    +0.000 C 
ATOM      2  C   UNL     1       4.158   4.831  17.646  0.00  0.00    +0.000 C 
ENDROOT
BRANCH   2   3
ATOM      3  C   UNL     1       3.006   4.352  18.424  0.00  0.00    +0.000 A 
ATOM      4  C   UNL     1       2.254   3.281  17.920  0.00  0.00    +0.000 A 
ATOM      5  C   UNL     1       1.141   2.800  18.615  0.00  0.00    +0.000 A 
ATOM      6  C   UNL     1       0.773   3.376  19.828  0.00  0.00    +0.000 A 
ATOM      7  C   UNL     1       1.527   4.421  20.355  0.00  0.00    +0.000 A 
ATOM      8  C   UNL     1       2.642   4.901  19.662  0.00  0.00    +0.000 A 
ENDBRANCH   2   3
BRANCH   1   9
ATOM      9  C   UNL     1       5.550   6.605  16.541  0.00  0.00    +0.000 C 
BRANCH   9  10
ATOM     10  O   UNL     1       5.434   6.089  15.210  0.00  0.00    +0.000 OA
BRANCH  10  11
ATOM     11  C   UNL     1       6.414   5.226  14.825  0.00  0.00    +0.000 C 
ATOM     12  O   UNL     1       7.615   5.448  14.886  0.00  0.00    +0.000 OA
BRANCH  11  14
ATOM     13  C   UNL     1       6.201   3.656  12.887  0.00  0.00    +0.000 C 
ATOM     14  C   UNL     1       5.782   3.955  14.316  0.00  0.00    +0.000 C 
ENDBRANCH  11  14
ENDBRANCH  10  11
ENDBRANCH   9  10
ENDBRANCH   1   9
TORSDOF 5
ENDMDL
MODEL 7
REMARK VINA RESULT:      -6.1      1.644      2.297
REMARK  Name = 
REMARK  6 active torsions:
REMARK  status: ('A' for Active; 'I' for Inactive)
REMARK    1  A    between atoms: C_1  and  C_2
REMARK    2  A    between atoms: C_2  and  C_3
REMARK    3  A    between atoms: C_3  and  O_5
REMARK    4  A    between atoms: O_5  and  C_6
REMARK    5  A    between atoms: C_6  and  C_7
REMARK    6  A    between atoms: C_8  and  C_9
REMARK                            x       y       z     vdW  Elec       q    Type
REMARK                         _______ _______ _______ _____ _____    ______ ____
ROOT
ATOM      1  C   UNL     1       4.199   6.068  17.761  0.00  0.00    +0.000 C 
ATOM      2  C   UNL     1       2.922   5.670  17.640  0.00  0.00    +0.000 C 
ENDROOT
BRANCH   2   3
ATOM      3  C   UNL     1       2.233   4.789  18.595  0.00  0.00    +0.000 A 
ATOM      4  C   UNL     1       1.599   3.637  18.109  0.00  0.00    +0.000 A 
ATOM      5  C   UNL     1       0.917   2.778  18.975  0.00  0.00    +0.000 A 
ATOM      6  C   UNL     1       0.872   3.054  20.339  0.00  0.00    +0.000 A 
ATOM      7  C   UNL     1       1.520   4.179  20.840  0.00  0.00    +0.000 A 
ATOM      8  C   UNL     1       2.204   5.038  19.974  0.00  0.00    +0.000 A 
ENDBRANCH   2   3
BRANCH   1   9
ATOM      9  C   UNL     1       4.886   6.997  16.811  0.00  0.00    +0.000 C 
BRANCH   9  10
ATOM     10  O   UNL     1       6.222   6.538  16.572  0.00  0.00    +0.000 OA
BRANCH  10  11
ATOM     11  C   UNL     1       7.187   7.106  17.346  0.00  0.00    +0.000 C 
ATOM     12  O   UNL     1       7.576   8.261  17.256  0.00  0.00    +0.000 OA
BRANCH  11  14
ATOM     13  C   UNL     1       7.626   4.677  17.762  0.00  0.00    +0.000 C 
ATOM     14  C   UNL     1       7.696   6.084  18.331  0.00  0.00    +0.000 C 
ENDBRANCH  11  14
ENDBRANCH  10  11
ENDBRANCH   9  10
ENDBRANCH   1   9
TORSDOF 5
ENDMDL
MODEL 8
REMARK VINA RESULT:      -6.1      1.331      2.428
REMARK  Name = 
REMARK  6 active torsions:
REMARK  status: ('A' for Active; 'I' for Inactive)
REMARK    1  A    between atoms: C_1  and  C_2
REMARK    2  A    between atoms: C_2  and  C_3
REMARK    3  A    between atoms: C_3  and  O_5
REMARK    4  A    between atoms: O_5  and  C_6
REMARK    5  A    between atoms: C_6  and  C_7
REMARK    6  A    between atoms: C_8  and  C_9
REMARK                            x       y       z     vdW  Elec       q    Type
REMARK                         _______ _______ _______ _____ _____    ______ ____
ROOT
ATOM      1  C   UNL     1       4.895   5.876  17.793  0.00  0.00    +0.000 C 
ATOM      2  C   UNL     1       4.504   5.413  18.991  0.00  0.00    +0.000 C 
ENDROOT
BRANCH   2   3
ATOM      3  C   UNL     1       3.223   4.736  19.242  0.00  0.00    +0.000 A 
ATOM      4  C   UNL     1       2.623   4.025  18.193  0.00  0.00    +0.000 A 
ATOM      5  C   UNL     1       1.398   3.378  18.377  0.00  0.00    +0.000 A 
ATOM      6  C   UNL     1       0.764   3.425  19.616  0.00  0.00    +0.000 A 
ATOM      7  C   UNL     1       1.361   4.103  20.675  0.00  0.00    +0.000 A 
ATOM      8  C   UNL     1       2.588   4.748  20.491  0.00  0.00    +0.000 A 
ENDBRANCH   2   3
BRANCH   1   9
ATOM      9  C   UNL     1       6.216   6.527  17.530  0.00  0.00    +0.000 C 
BRANCH   9  10
ATOM     10  O   UNL     1       6.592   6.315  16.165  0.00  0.00    +0.000 OA
BRANCH  10  11
ATOM     11  C   UNL     1       7.205   5.128  15.899  0.00  0.00    +0.000 C 
ATOM     12  O   UNL     1       7.872   4.485  16.695  0.00  0.00    +0.000 OA
BRANCH  11  14
ATOM     13  C   UNL     1       5.521   4.185  14.306  0.00  0.00    +0.000 C 
ATOM     14  C   UNL     1       6.926   4.737  14.470  0.00  0.00    +0.000 C 
ENDBRANCH  11  14
ENDBRANCH  10  11
ENDBRANCH   9  10
ENDBRANCH   1   9
TORSDOF 5
ENDMDL
MODEL 9
REMARK VINA RESULT:      -6.0      1.295      2.118
REMARK  Name = 
REMARK  6 active torsions:
REMARK  status: ('A' for Active; 'I' for Inactive)
REMARK    1  A    between atoms: C_1  and  C_2
REMARK    2  A    between atoms: C_2  and  C_3
REMARK    3  A    between atoms: C_3  and  O_5
REMARK    4  A    between atoms: O_5  and  C_6
REMARK    5  A    between atoms: C_6  and  C_7
REMARK    6  A    between atoms: C_8  and  C_9
REMARK                            x       y       z     vdW  Elec       q    Type
REMARK                         _______ _______ _______ _____ _____    ______ ____
ROOT
ATOM      1  C   UNL     1       5.567   4.792  19.172  0.00  0.00    +0.000 C 
ATOM      2  C   UNL     1       4.327   5.297  19.261  0.00  0.00    +0.000 C 
ENDROOT
BRANCH   2   3
ATOM      3  C   UNL     1       3.104   4.484  19.357  0.00  0.00    +0.000 A 
ATOM      4  C   UNL     1       2.300   4.614  20.498  0.00  0.00    +0.000 A 
ATOM      5  C   UNL     1       1.138   3.851  20.643  0.00  0.00    +0.000 A 
ATOM      6  C   UNL     1       0.759   2.959  19.644  0.00  0.00    +0.000 A 
ATOM      7  C   UNL     1       1.533   2.840  18.492  0.00  0.00    +0.000 A 
ATOM      8  C   UNL     1       2.694   3.604  18.346  0.00  0.00    +0.000 A 
ENDBRANCH   2   3
BRANCH   1   9
ATOM      9  C   UNL     1       6.813   5.619  19.117  0.00  0.00    +0.000 C 
BRANCH   9  10
ATOM     10  O   UNL     1       6.989   6.133  17.792  0.00  0.00    +0.000 OA
BRANCH  10  11
ATOM     11  C   UNL     1       7.182   5.199  16.819  0.00  0.00    +0.000 C 
ATOM     12  O   UNL     1       8.030   4.320  16.842  0.00  0.00    +0.000 OA
BRANCH  11  14
ATOM     13  C   UNL     1       5.264   4.225  15.538  0.00  0.00    +0.000 C 
ATOM     14  C   UNL     1       6.181   5.423  15.714  0.00  0.00    +0.000 C 
ENDBRANCH  11  14
ENDBRANCH  10  11
ENDBRANCH   9  10
ENDBRANCH   1   9
TORSDOF 5
ENDMDL
