MODEL 1
REMARK VINA RESULT:      -7.3      0.000      0.000
REMARK  Name = 
REMARK  21 active torsions:
REMARK  status: ('A' for Active; 'I' for Inactive)
REMARK    1  A    between atoms: C_1  and  O_2
REMARK    2  A    between atoms: O_2  and  C_3
REMARK    3  A    between atoms: C_3  and  C_5
REMARK    4  A    between atoms: C_5  and  C_6
REMARK    5  A    between atoms: C_6  and  C_7
REMARK    6  A    between atoms: C_8  and  C_9
REMARK    7  A    between atoms: C_8  and  C_10
REMARK    8  A    between atoms: C_10  and  C_11
REMARK    9  A    between atoms: C_11  and  C_12
REMARK   10  A    between atoms: C_13  and  C_14
REMARK   11  A    between atoms: C_13  and  C_15
REMARK   12  A    between atoms: C_15  and  C_16
REMARK   13  A    between atoms: C_16  and  C_17
REMARK   14  A    between atoms: C_18  and  C_19
REMARK   15  A    between atoms: C_18  and  C_20
REMARK   16  A    between atoms: C_20  and  O_21
REMARK   17  A    between atoms: C_20  and  C_22
REMARK   18  A    between atoms: C_22  and  O_23
REMARK   19  A    between atoms: C_22  and  C_24
REMARK   20  A    between atoms: C_25  and  C_26
REMARK   21  A    between atoms: C_25  and  C_27
REMARK                            x       y       z     vdW  Elec       q    Type
REMARK                         _______ _______ _______ _____ _____    ______ ____
ROOT
ATOM      1  C   UNL     1       1.212   7.753  20.913  0.00  0.00    +0.000 C 
ENDROOT
BRANCH   1   2
ATOM      2  C   UNL     1       2.164   7.556  19.736  0.00  0.00    +0.000 C 
ATOM      3  C   UNL     1       2.180   8.123  18.509  0.00  0.00    +0.000 C 
ATOM      4  C   UNL     1       1.286   9.294  18.193  0.00  0.00    +0.000 C 
BRANCH   3   5
ATOM      5  C   UNL     1       3.091   7.801  17.298  0.00  0.00    +0.000 C 
BRANCH   5   6
ATOM      6  C   UNL     1       4.431   7.027  17.347  0.00  0.00    +0.000 C 
BRANCH   6   7
ATOM      7  C   UNL     1       4.327   5.551  17.673  0.00  0.00    +0.000 C 
ATOM      8  C   UNL     1       4.750   4.440  17.033  0.00  0.00    +0.000 C 
ATOM      9  C   UNL     1       5.240   4.388  15.625  0.00  0.00    +0.000 C 
BRANCH   8  10
ATOM     10  C   UNL     1       4.877   3.071  17.739  0.00  0.00    +0.000 C 
BRANCH  10  11
ATOM     11  O   UNL     1       5.454   3.325  18.975  0.00  0.00    +0.000 OA
ATOM     12  H   UNL     1       6.423   3.198  18.922  0.00  0.00    +0.000 HD
ENDBRANCH  10  11
BRANCH  10  13
ATOM     13  C   UNL     1       3.664   2.159  18.060  0.00  0.00    +0.000 C 
BRANCH  13  14
ATOM     14  C   UNL     1       2.784   2.636  19.232  0.00  0.00    +0.000 C 
ATOM     15  C   UNL     1       1.711   3.461  19.153  0.00  0.00    +0.000 C 
ATOM     16  C   UNL     1       1.264   4.123  17.882  0.00  0.00    +0.000 C 
ATOM     17  C   UNL     1       0.794   3.744  20.322  0.00  0.00    +0.000 C 
ENDBRANCH  13  14
BRANCH  13  18
ATOM     18  O   UNL     1       4.124   0.867  18.432  0.00  0.00    +0.000 OA
ATOM     19  H   UNL     1       3.850   0.269  17.713  0.00  0.00    +0.000 HD
ENDBRANCH  13  18
ENDBRANCH  10  13
ENDBRANCH   8  10
ENDBRANCH   6   7
ENDBRANCH   5   6
ENDBRANCH   3   5
ENDBRANCH   1   2
BRANCH   1  20
ATOM     20  C   UNL     1       1.316   9.096  21.685  0.00  0.00    +0.000 C 
BRANCH  20  22
ATOM     21  C   UNL     1      -0.319  10.984  21.120  0.00  0.00    +0.000 C 
ATOM     22  C   UNL     1       0.092   9.992  21.941  0.00  0.00    +0.000 C 
ATOM     23  C   UNL     1      -0.543   9.719  23.291  0.00  0.00    +0.000 C 
BRANCH  21  24
ATOM     24  C   UNL     1      -1.350  12.108  21.369  0.00  0.00    +0.000 C 
BRANCH  24  25
ATOM     25  C   UNL     1      -1.830  12.842  20.066  0.00  0.00    +0.000 C 
ATOM     26  C   UNL     1      -2.183  11.909  18.877  0.00  0.00    +0.000 C 
ATOM     27  C   UNL     1      -3.613  11.563  18.595  0.00  0.00    +0.000 C 
ATOM     28  O   UNL     1      -3.914  10.808  17.668  0.00  0.00    +0.000 OA
ATOM     29  C   UNL     1      -4.692  12.167  19.364  0.00  0.00    +0.000 C 
ATOM     30  C   UNL     1      -4.445  13.111  20.268  0.00  0.00    +0.000 C 
ATOM     31  C   UNL     1      -3.081  13.593  20.576  0.00  0.00    +0.000 C 
ATOM     32  O   UNL     1      -3.071  14.574  21.332  0.00  0.00    +0.000 OA
BRANCH  25  33
ATOM     33  C   UNL     1      -0.644  13.624  19.449  0.00  0.00    +0.000 C 
ATOM     34  O   UNL     1      -0.140  13.423  18.332  0.00  0.00    +0.000 OA
BRANCH  33  36
ATOM     35  C   UNL     1       1.034  15.152  19.697  0.00  0.00    +0.000 C 
ATOM     36  O   UNL     1      -0.002  14.421  20.336  0.00  0.00    +0.000 OA
ENDBRANCH  33  36
ENDBRANCH  25  33
ENDBRANCH  24  25
ENDBRANCH  21  24
ENDBRANCH  20  22
ENDBRANCH   1  20
TORSDOF 15
ENDMDL
MODEL 2
REMARK VINA RESULT:      -7.1      2.074      4.681
REMARK  Name = 
REMARK  21 active torsions:
REMARK  status: ('A' for Active; 'I' for Inactive)
REMARK    1  A    between atoms: C_1  and  O_2
REMARK    2  A    between atoms: O_2  and  C_3
REMARK    3  A    between atoms: C_3  and  C_5
REMARK    4  A    between atoms: C_5  and  C_6
REMARK    5  A    between atoms: C_6  and  C_7
REMARK    6  A    between atoms: C_8  and  C_9
REMARK    7  A    between atoms: C_8  and  C_10
REMARK    8  A    between atoms: C_10  and  C_11
REMARK    9  A    between atoms: C_11  and  C_12
REMARK   10  A    between atoms: C_13  and  C_14
REMARK   11  A    between atoms: C_13  and  C_15
REMARK   12  A    between atoms: C_15  and  C_16
REMARK   13  A    between atoms: C_16  and  C_17
REMARK   14  A    between atoms: C_18  and  C_19
REMARK   15  A    between atoms: C_18  and  C_20
REMARK   16  A    between atoms: C_20  and  O_21
REMARK   17  A    between atoms: C_20  and  C_22
REMARK   18  A    between atoms: C_22  and  O_23
REMARK   19  A    between atoms: C_22  and  C_24
REMARK   20  A    between atoms: C_25  and  C_26
REMARK   21  A    between atoms: C_25  and  C_27
REMARK                            x       y       z     vdW  Elec       q    Type
REMARK                         _______ _______ _______ _____ _____    ______ ____
ROOT
ATOM      1  C   UNL     1       0.796   5.365  20.465  0.00  0.00    +0.000 C 
ENDROOT
BRANCH   1   2
ATOM      2  C   UNL     1       1.160   4.224  19.518  0.00  0.00    +0.000 C 
ATOM      3  C   UNL     1       1.638   2.986  19.771  0.00  0.00    +0.000 C 
ATOM      4  C   UNL     1       1.679   2.452  21.180  0.00  0.00    +0.000 C 
BRANCH   3   5
ATOM      5  C   UNL     1       2.115   1.901  18.773  0.00  0.00    +0.000 C 
BRANCH   5   6
ATOM      6  C   UNL     1       3.197   2.083  17.681  0.00  0.00    +0.000 C 
BRANCH   6   7
ATOM      7  C   UNL     1       4.009   3.359  17.765  0.00  0.00    +0.000 C 
ATOM      8  C   UNL     1       4.904   3.818  18.666  0.00  0.00    +0.000 C 
ATOM      9  C   UNL     1       5.139   3.241  20.021  0.00  0.00    +0.000 C 
BRANCH   8  10
ATOM     10  C   UNL     1       5.891   4.964  18.348  0.00  0.00    +0.000 C 
BRANCH  10  11
ATOM     11  O   UNL     1       6.462   5.330  19.558  0.00  0.00    +0.000 OA
ATOM     12  H   UNL     1       6.331   4.617  20.216  0.00  0.00    +0.000 HD
ENDBRANCH  10  11
BRANCH  10  13
ATOM     13  C   UNL     1       7.097   4.812  17.384  0.00  0.00    +0.000 C 
BRANCH  13  14
ATOM     14  C   UNL     1       6.770   4.141  16.036  0.00  0.00    +0.000 C 
ATOM     15  C   UNL     1       6.018   4.662  15.035  0.00  0.00    +0.000 C 
ATOM     16  C   UNL     1       5.295   5.973  15.136  0.00  0.00    +0.000 C 
ATOM     17  C   UNL     1       5.887   4.016  13.673  0.00  0.00    +0.000 C 
ENDBRANCH  13  14
BRANCH  13  18
ATOM     18  O   UNL     1       8.089   3.991  17.987  0.00  0.00    +0.000 OA
ATOM     19  H   UNL     1       8.280   3.287  17.342  0.00  0.00    +0.000 HD
ENDBRANCH  13  18
ENDBRANCH  10  13
ENDBRANCH   8  10
ENDBRANCH   6   7
ENDBRANCH   5   6
ENDBRANCH   3   5
ENDBRANCH   1   2
BRANCH   1  20
ATOM     20  C   UNL     1       1.861   6.477  20.669  0.00  0.00    +0.000 C 
BRANCH  20  22
ATOM     21  C   UNL     1       1.372   8.906  20.026  0.00  0.00    +0.000 C 
ATOM     22  C   UNL     1       1.944   7.711  19.756  0.00  0.00    +0.000 C 
ATOM     23  C   UNL     1       2.644   7.407  18.445  0.00  0.00    +0.000 C 
BRANCH  21  24
ATOM     24  C   UNL     1       1.156  10.128  19.105  0.00  0.00    +0.000 C 
BRANCH  24  25
ATOM     25  C   UNL     1      -0.179  10.911  19.376  0.00  0.00    +0.000 C 
ATOM     26  C   UNL     1      -0.853  10.610  20.740  0.00  0.00    +0.000 C 
ATOM     27  C   UNL     1      -0.668  11.550  21.892  0.00  0.00    +0.000 C 
ATOM     28  O   UNL     1      -1.179  11.320  22.989  0.00  0.00    +0.000 OA
ATOM     29  C   UNL     1       0.062  12.799  21.724  0.00  0.00    +0.000 C 
ATOM     30  C   UNL     1       0.498  13.184  20.529  0.00  0.00    +0.000 C 
ATOM     31  C   UNL     1       0.303  12.378  19.303  0.00  0.00    +0.000 C 
ATOM     32  O   UNL     1       0.644  12.972  18.271  0.00  0.00    +0.000 OA
BRANCH  25  33
ATOM     33  C   UNL     1      -1.280  10.400  18.414  0.00  0.00    +0.000 C 
ATOM     34  O   UNL     1      -1.108   9.643  17.445  0.00  0.00    +0.000 OA
BRANCH  33  36
ATOM     35  C   UNL     1      -2.992  11.399  17.281  0.00  0.00    +0.000 C 
ATOM     36  O   UNL     1      -2.461  11.049  18.550  0.00  0.00    +0.000 OA
ENDBRANCH  33  36
ENDBRANCH  25  33
ENDBRANCH  24  25
ENDBRANCH  21  24
ENDBRANCH  20  22
ENDBRANCH   1  20
TORSDOF 15
ENDMDL
MODEL 3
REMARK VINA RESULT:      -7.0      2.662     10.897
REMARK  Name = 
REMARK  21 active torsions:
REMARK  status: ('A' for Active; 'I' for Inactive)
REMARK    1  A    between atoms: C_1  and  O_2
REMARK    2  A    between atoms: O_2  and  C_3
REMARK    3  A    between atoms: C_3  and  C_5
REMARK    4  A    between atoms: C_5  and  C_6
REMARK    5  A    between atoms: C_6  and  C_7
REMARK    6  A    between atoms: C_8  and  C_9
REMARK    7  A    between atoms: C_8  and  C_10
REMARK    8  A    between atoms: C_10  and  C_11
REMARK    9  A    between atoms: C_11  and  C_12
REMARK   10  A    between atoms: C_13  and  C_14
REMARK   11  A    between atoms: C_13  and  C_15
REMARK   12  A    between atoms: C_15  and  C_16
REMARK   13  A    between atoms: C_16  and  C_17
REMARK   14  A    between atoms: C_18  and  C_19
REMARK   15  A    between atoms: C_18  and  C_20
REMARK   16  A    between atoms: C_20  and  O_21
REMARK   17  A    between atoms: C_20  and  C_22
REMARK   18  A    between atoms: C_22  and  O_23
REMARK   19  A    between atoms: C_22  and  C_24
REMARK   20  A    between atoms: C_25  and  C_26
REMARK   21  A    between atoms: C_25  and  C_27
REMARK                            x       y       z     vdW  Elec       q    Type
REMARK                         _______ _______ _______ _____ _____    ______ ____
ROOT
ATOM      1  C   UNL     1       0.046   9.035  21.455  0.00  0.00    +0.000 C 
ENDROOT
BRANCH   1   2
ATOM      2  C   UNL     1      -0.354  10.498  21.278  0.00  0.00    +0.000 C 
ATOM      3  C   UNL     1      -0.808  11.164  20.193  0.00  0.00    +0.000 C 
ATOM      4  C   UNL     1      -1.213  10.417  18.948  0.00  0.00    +0.000 C 
BRANCH   3   5
ATOM      5  C   UNL     1      -1.082  12.679  20.022  0.00  0.00    +0.000 C 
BRANCH   5   6
ATOM      6  C   UNL     1      -1.822  13.589  21.032  0.00  0.00    +0.000 C 
BRANCH   6   7
ATOM      7  C   UNL     1      -3.087  13.011  21.635  0.00  0.00    +0.000 C 
ATOM      8  C   UNL     1      -3.739  13.247  22.793  0.00  0.00    +0.000 C 
ATOM      9  C   UNL     1      -3.194  14.013  23.951  0.00  0.00    +0.000 C 
BRANCH   8  10
ATOM     10  C   UNL     1      -5.210  12.827  23.020  0.00  0.00    +0.000 C 
BRANCH  10  11
ATOM     11  O   UNL     1      -5.476  13.061  24.361  0.00  0.00    +0.000 OA
ATOM     12  H   UNL     1      -5.149  12.312  24.901  0.00  0.00    +0.000 HD
ENDBRANCH  10  11
BRANCH  10  13
ATOM     13  C   UNL     1      -6.407  13.468  22.272  0.00  0.00    +0.000 C 
BRANCH  13  14
ATOM     14  C   UNL     1      -6.480  13.148  20.766  0.00  0.00    +0.000 C 
ATOM     15  C   UNL     1      -7.085  12.076  20.196  0.00  0.00    +0.000 C 
ATOM     16  C   UNL     1      -7.715  10.964  20.981  0.00  0.00    +0.000 C 
ATOM     17  C   UNL     1      -7.264  11.922  18.702  0.00  0.00    +0.000 C 
ENDBRANCH  13  14
BRANCH  13  18
ATOM     18  O   UNL     1      -6.319  14.884  22.356  0.00  0.00    +0.000 OA
ATOM     19  H   UNL     1      -5.733  15.158  21.628  0.00  0.00    +0.000 HD
ENDBRANCH  13  18
ENDBRANCH  10  13
ENDBRANCH   8  10
ENDBRANCH   6   7
ENDBRANCH   5   6
ENDBRANCH   3   5
ENDBRANCH   1   2
BRANCH   1  20
ATOM     20  C   UNL     1       1.492   8.647  21.044  0.00  0.00    +0.000 C 
BRANCH  20  22
ATOM     21  C   UNL     1       2.110   6.566  19.686  0.00  0.00    +0.000 C 
ATOM     22  C   UNL     1       1.799   7.881  19.747  0.00  0.00    +0.000 C 
ATOM     23  C   UNL     1       1.833   8.795  18.538  0.00  0.00    +0.000 C 
BRANCH  21  24
ATOM     24  C   UNL     1       2.683   5.740  18.512  0.00  0.00    +0.000 C 
BRANCH  24  25
ATOM     25  C   UNL     1       3.168   4.301  18.913  0.00  0.00    +0.000 C 
ATOM     26  C   UNL     1       3.083   3.976  20.427  0.00  0.00    +0.000 C 
ATOM     27  C   UNL     1       1.932   3.179  20.959  0.00  0.00    +0.000 C 
ATOM     28  O   UNL     1       1.834   2.926  22.161  0.00  0.00    +0.000 OA
ATOM     29  C   UNL     1       0.933   2.619  20.058  0.00  0.00    +0.000 C 
ATOM     30  C   UNL     1       1.068   2.718  18.739  0.00  0.00    +0.000 C 
ATOM     31  C   UNL     1       2.205   3.410  18.096  0.00  0.00    +0.000 C 
ATOM     32  O   UNL     1       2.231   3.264  16.866  0.00  0.00    +0.000 OA
BRANCH  25  33
ATOM     33  C   UNL     1       4.700   4.198  18.702  0.00  0.00    +0.000 C 
ATOM     34  O   UNL     1       5.490   3.545  19.404  0.00  0.00    +0.000 OA
BRANCH  33  36
ATOM     35  C   UNL     1       6.000   4.453  16.844  0.00  0.00    +0.000 C 
ATOM     36  O   UNL     1       5.185   5.095  17.812  0.00  0.00    +0.000 OA
ENDBRANCH  33  36
ENDBRANCH  25  33
ENDBRANCH  24  25
ENDBRANCH  21  24
ENDBRANCH  20  22
ENDBRANCH   1  20
TORSDOF 15
ENDMDL
MODEL 4
REMARK VINA RESULT:      -6.9      2.289     10.237
REMARK  Name = 
REMARK  21 active torsions:
REMARK  status: ('A' for Active; 'I' for Inactive)
REMARK    1  A    between atoms: C_1  and  O_2
REMARK    2  A    between atoms: O_2  and  C_3
REMARK    3  A    between atoms: C_3  and  C_5
REMARK    4  A    between atoms: C_5  and  C_6
REMARK    5  A    between atoms: C_6  and  C_7
REMARK    6  A    between atoms: C_8  and  C_9
REMARK    7  A    between atoms: C_8  and  C_10
REMARK    8  A    between atoms: C_10  and  C_11
REMARK    9  A    between atoms: C_11  and  C_12
REMARK   10  A    between atoms: C_13  and  C_14
REMARK   11  A    between atoms: C_13  and  C_15
REMARK   12  A    between atoms: C_15  and  C_16
REMARK   13  A    between atoms: C_16  and  C_17
REMARK   14  A    between atoms: C_18  and  C_19
REMARK   15  A    between atoms: C_18  and  C_20
REMARK   16  A    between atoms: C_20  and  O_21
REMARK   17  A    between atoms: C_20  and  C_22
REMARK   18  A    between atoms: C_22  and  O_23
REMARK   19  A    between atoms: C_22  and  C_24
REMARK   20  A    between atoms: C_25  and  C_26
REMARK   21  A    between atoms: C_25  and  C_27
REMARK                            x       y       z     vdW  Elec       q    Type
REMARK                         _______ _______ _______ _____ _____    ______ ____
ROOT
ATOM      1  C   UNL     1       1.876   3.501  20.198  0.00  0.00    +0.000 C 
ENDROOT
BRANCH   1   2
ATOM      2  C   UNL     1       1.136   4.803  20.491  0.00  0.00    +0.000 C 
ATOM      3  C   UNL     1       1.552   6.088  20.437  0.00  0.00    +0.000 C 
ATOM      4  C   UNL     1       2.880   6.439  19.816  0.00  0.00    +0.000 C 
BRANCH   3   5
ATOM      5  C   UNL     1       0.805   7.375  20.866  0.00  0.00    +0.000 C 
BRANCH   5   6
ATOM      6  C   UNL     1       1.379   8.507  21.752  0.00  0.00    +0.000 C 
BRANCH   6   7
ATOM      7  C   UNL     1       0.856   9.900  21.463  0.00  0.00    +0.000 C 
ATOM      8  C   UNL     1      -0.040  10.690  22.092  0.00  0.00    +0.000 C 
ATOM      9  C   UNL     1      -0.979  10.249  23.163  0.00  0.00    +0.000 C 
BRANCH   8  10
ATOM     10  C   UNL     1      -0.127  12.213  21.840  0.00  0.00    +0.000 C 
BRANCH  10  11
ATOM     11  O   UNL     1       1.130  12.605  21.402  0.00  0.00    +0.000 OA
ATOM     12  H   UNL     1       1.607  13.061  22.125  0.00  0.00    +0.000 HD
ENDBRANCH  10  11
BRANCH  10  13
ATOM     13  C   UNL     1      -1.106  12.857  20.824  0.00  0.00    +0.000 C 
BRANCH  13  14
ATOM     14  C   UNL     1      -1.840  11.860  19.907  0.00  0.00    +0.000 C 
ATOM     15  C   UNL     1      -1.307  11.180  18.862  0.00  0.00    +0.000 C 
ATOM     16  C   UNL     1       0.100  11.374  18.376  0.00  0.00    +0.000 C 
ATOM     17  C   UNL     1      -2.046  10.089  18.119  0.00  0.00    +0.000 C 
ENDBRANCH  13  14
BRANCH  13  18
ATOM     18  O   UNL     1      -0.390  13.721  19.952  0.00  0.00    +0.000 OA
ATOM     19  H   UNL     1       0.541  13.440  20.003  0.00  0.00    +0.000 HD
ENDBRANCH  13  18
ENDBRANCH  10  13
ENDBRANCH   8  10
ENDBRANCH   6   7
ENDBRANCH   5   6
ENDBRANCH   3   5
ENDBRANCH   1   2
BRANCH   1  20
ATOM     20  C   UNL     1       2.269   3.233  18.719  0.00  0.00    +0.000 C 
BRANCH  20  22
ATOM     21  C   UNL     1       4.086   3.410  16.924  0.00  0.00    +0.000 C 
ATOM     22  C   UNL     1       3.721   3.339  18.224  0.00  0.00    +0.000 C 
ATOM     23  C   UNL     1       4.721   3.231  19.358  0.00  0.00    +0.000 C 
BRANCH  21  24
ATOM     24  C   UNL     1       5.483   3.262  16.280  0.00  0.00    +0.000 C 
BRANCH  24  25
ATOM     25  C   UNL     1       6.152   4.623  15.872  0.00  0.00    +0.000 C 
ATOM     26  C   UNL     1       5.187   5.834  15.793  0.00  0.00    +0.000 C 
ATOM     27  C   UNL     1       5.105   6.803  16.932  0.00  0.00    +0.000 C 
ATOM     28  O   UNL     1       4.331   7.761  16.899  0.00  0.00    +0.000 OA
ATOM     29  C   UNL     1       5.994   6.681  18.080  0.00  0.00    +0.000 C 
ATOM     30  C   UNL     1       6.960   5.768  18.105  0.00  0.00    +0.000 C 
ATOM     31  C   UNL     1       7.190   4.809  17.003  0.00  0.00    +0.000 C 
ATOM     32  O   UNL     1       8.225   4.144  17.144  0.00  0.00    +0.000 OA
BRANCH  25  33
ATOM     33  C   UNL     1       6.610   4.548  14.394  0.00  0.00    +0.000 C 
ATOM     34  O   UNL     1       6.247   3.702  13.560  0.00  0.00    +0.000 OA
BRANCH  33  36
ATOM     35  C   UNL     1       7.940   5.349  12.720  0.00  0.00    +0.000 C 
ATOM     36  O   UNL     1       7.663   5.353  14.113  0.00  0.00    +0.000 OA
ENDBRANCH  33  36
ENDBRANCH  25  33
ENDBRANCH  24  25
ENDBRANCH  21  24
ENDBRANCH  20  22
ENDBRANCH   1  20
TORSDOF 15
ENDMDL
MODEL 5
REMARK VINA RESULT:      -6.8      6.589      8.819
REMARK  Name = 
REMARK  21 active torsions:
REMARK  status: ('A' for Active; 'I' for Inactive)
REMARK    1  A    between atoms: C_1  and  O_2
REMARK    2  A    between atoms: O_2  and  C_3
REMARK    3  A    between atoms: C_3  and  C_5
REMARK    4  A    between atoms: C_5  and  C_6
REMARK    5  A    between atoms: C_6  and  C_7
REMARK    6  A    between atoms: C_8  and  C_9
REMARK    7  A    between atoms: C_8  and  C_10
REMARK    8  A    between atoms: C_10  and  C_11
REMARK    9  A    between atoms: C_11  and  C_12
REMARK   10  A    between atoms: C_13  and  C_14
REMARK   11  A    between atoms: C_13  and  C_15
REMARK   12  A    between atoms: C_15  and  C_16
REMARK   13  A    between atoms: C_16  and  C_17
REMARK   14  A    between atoms: C_18  and  C_19
REMARK   15  A    between atoms: C_18  and  C_20
REMARK   16  A    between atoms: C_20  and  O_21
REMARK   17  A    between atoms: C_20  and  C_22
REMARK   18  A    between atoms: C_22  and  O_23
REMARK   19  A    between atoms: C_22  and  C_24
REMARK   20  A    between atoms: C_25  and  C_26
REMARK   21  A    between atoms: C_25  and  C_27
REMARK                            x       y       z     vdW  Elec       q    Type
REMARK                         _______ _______ _______ _____ _____    ______ ____
ROOT
ATOM      1  C   UNL     1      11.669  12.774  18.097  0.00  0.00    +0.000 C 
ENDROOT
BRANCH   1   2
ATOM      2  C   UNL     1      11.017  11.398  18.206  0.00  0.00    +0.000 C 
ATOM      3  C   UNL     1       9.715  11.038  18.240  0.00  0.00    +0.000 C 
ATOM      4  C   UNL     1       8.633  12.042  17.936  0.00  0.00    +0.000 C 
BRANCH   3   5
ATOM      5  C   UNL     1       9.095   9.639  18.480  0.00  0.00    +0.000 C 
BRANCH   5   6
ATOM      6  C   UNL     1       7.722   9.151  17.960  0.00  0.00    +0.000 C 
BRANCH   6   7
ATOM      7  C   UNL     1       7.717   7.796  17.282  0.00  0.00    +0.000 C 
ATOM      8  C   UNL     1       7.649   6.535  17.757  0.00  0.00    +0.000 C 
ATOM      9  C   UNL     1       7.822   6.139  19.185  0.00  0.00    +0.000 C 
BRANCH   8  10
ATOM     10  C   UNL     1       7.268   5.329  16.867  0.00  0.00    +0.000 C 
BRANCH  10  11
ATOM     11  O   UNL     1       8.018   4.257  17.326  0.00  0.00    +0.000 OA
ATOM     12  H   UNL     1       8.706   4.574  17.947  0.00  0.00    +0.000 HD
ENDBRANCH  10  11
BRANCH  10  13
ATOM     13  C   UNL     1       5.825   4.771  16.755  0.00  0.00    +0.000 C 
BRANCH  13  14
ATOM     14  C   UNL     1       4.959   4.953  18.016  0.00  0.00    +0.000 C 
ATOM     15  C   UNL     1       4.105   5.976  18.270  0.00  0.00    +0.000 C 
ATOM     16  C   UNL     1       3.943   7.164  17.369  0.00  0.00    +0.000 C 
ATOM     17  C   UNL     1       3.160   5.994  19.451  0.00  0.00    +0.000 C 
ENDBRANCH  13  14
BRANCH  13  18
ATOM     18  O   UNL     1       5.873   3.369  16.525  0.00  0.00    +0.000 OA
ATOM     19  H   UNL     1       5.220   3.192  15.824  0.00  0.00    +0.000 HD
ENDBRANCH  13  18
ENDBRANCH  10  13
ENDBRANCH   8  10
ENDBRANCH   6   7
ENDBRANCH   5   6
ENDBRANCH   3   5
ENDBRANCH   1   2
BRANCH   1  20
ATOM     20  C   UNL     1      11.897  13.552  19.422  0.00  0.00    +0.000 C 
BRANCH  20  22
ATOM     21  C   UNL     1      10.549  14.704  21.269  0.00  0.00    +0.000 C 
ATOM     22  C   UNL     1      10.877  14.566  19.964  0.00  0.00    +0.000 C 
ATOM     23  C   UNL     1      10.178  15.324  18.852  0.00  0.00    +0.000 C 
BRANCH  21  24
ATOM     24  C   UNL     1       9.381  15.481  21.917  0.00  0.00    +0.000 C 
BRANCH  24  25
ATOM     25  C   UNL     1       8.075  14.632  22.117  0.00  0.00    +0.000 C 
ATOM     26  C   UNL     1       8.130  13.193  21.541  0.00  0.00    +0.000 C 
ATOM     27  C   UNL     1       8.412  12.033  22.446  0.00  0.00    +0.000 C 
ATOM     28  O   UNL     1       8.479  10.884  22.006  0.00  0.00    +0.000 OA
ATOM     29  C   UNL     1       8.539  12.224  23.885  0.00  0.00    +0.000 C 
ATOM     30  C   UNL     1       8.316  13.411  24.441  0.00  0.00    +0.000 C 
ATOM     31  C   UNL     1       7.952  14.612  23.658  0.00  0.00    +0.000 C 
ATOM     32  O   UNL     1       7.639  15.578  24.366  0.00  0.00    +0.000 OA
BRANCH  25  33
ATOM     33  C   UNL     1       6.937  15.224  21.249  0.00  0.00    +0.000 C 
ATOM     34  O   UNL     1       7.056  16.133  20.411  0.00  0.00    +0.000 OA
BRANCH  33  36
ATOM     35  C   UNL     1       4.865  15.972  21.849  0.00  0.00    +0.000 C 
ATOM     36  O   UNL     1       5.699  14.842  21.645  0.00  0.00    +0.000 OA
ENDBRANCH  33  36
ENDBRANCH  25  33
ENDBRANCH  24  25
ENDBRANCH  21  24
ENDBRANCH  20  22
ENDBRANCH   1  20
TORSDOF 15
ENDMDL
MODEL 6
REMARK VINA RESULT:      -6.7      2.553     10.104
REMARK  Name = 
REMARK  21 active torsions:
REMARK  status: ('A' for Active; 'I' for Inactive)
REMARK    1  A    between atoms: C_1  and  O_2
REMARK    2  A    between atoms: O_2  and  C_3
REMARK    3  A    between atoms: C_3  and  C_5
REMARK    4  A    between atoms: C_5  and  C_6
REMARK    5  A    between atoms: C_6  and  C_7
REMARK    6  A    between atoms: C_8  and  C_9
REMARK    7  A    between atoms: C_8  and  C_10
REMARK    8  A    between atoms: C_10  and  C_11
REMARK    9  A    between atoms: C_11  and  C_12
REMARK   10  A    between atoms: C_13  and  C_14
REMARK   11  A    between atoms: C_13  and  C_15
REMARK   12  A    between atoms: C_15  and  C_16
REMARK   13  A    between atoms: C_16  and  C_17
REMARK   14  A    between atoms: C_18  and  C_19
REMARK   15  A    between atoms: C_18  and  C_20
REMARK   16  A    between atoms: C_20  and  O_21
REMARK   17  A    between atoms: C_20  and  C_22
REMARK   18  A    between atoms: C_22  and  O_23
REMARK   19  A    between atoms: C_22  and  C_24
REMARK   20  A    between atoms: C_25  and  C_26
REMARK   21  A    between atoms: C_25  and  C_27
REMARK                            x       y       z     vdW  Elec       q    Type
REMARK                         _______ _______ _______ _____ _____    ______ ____
ROOT
ATOM      1  C   UNL     1       3.173   2.577  20.954  0.00  0.00    +0.000 C 
ENDROOT
BRANCH   1   2
ATOM      2  C   UNL     1       2.655   4.000  21.150  0.00  0.00    +0.000 C 
ATOM      3  C   UNL     1       1.610   4.644  20.585  0.00  0.00    +0.000 C 
ATOM      4  C   UNL     1       0.599   3.891  19.759  0.00  0.00    +0.000 C 
BRANCH   3   5
ATOM      5  C   UNL     1       1.193   6.130  20.717  0.00  0.00    +0.000 C 
BRANCH   5   6
ATOM      6  C   UNL     1       2.086   7.356  20.408  0.00  0.00    +0.000 C 
BRANCH   6   7
ATOM      7  C   UNL     1       1.378   8.695  20.372  0.00  0.00    +0.000 C 
ATOM      8  C   UNL     1       1.006   9.508  19.361  0.00  0.00    +0.000 C 
ATOM      9  C   UNL     1       1.458   9.387  17.944  0.00  0.00    +0.000 C 
BRANCH   8  10
ATOM     10  C   UNL     1      -0.044  10.629  19.537  0.00  0.00    +0.000 C 
BRANCH  10  11
ATOM     11  O   UNL     1      -1.225  10.141  18.998  0.00  0.00    +0.000 OA
ATOM     12  H   UNL     1      -1.983  10.415  19.555  0.00  0.00    +0.000 HD
ENDBRANCH  10  11
BRANCH  10  13
ATOM     13  C   UNL     1      -0.458  11.202  20.917  0.00  0.00    +0.000 C 
BRANCH  13  14
ATOM     14  C   UNL     1      -1.620  12.214  20.879  0.00  0.00    +0.000 C 
ATOM     15  C   UNL     1      -2.444  12.538  21.906  0.00  0.00    +0.000 C 
ATOM     16  C   UNL     1      -2.398  11.870  23.249  0.00  0.00    +0.000 C 
ATOM     17  C   UNL     1      -3.450  13.666  21.839  0.00  0.00    +0.000 C 
ENDBRANCH  13  14
BRANCH  13  18
ATOM     18  O   UNL     1       0.637  11.903  21.492  0.00  0.00    +0.000 OA
ATOM     19  H   UNL     1       0.915  12.555  20.825  0.00  0.00    +0.000 HD
ENDBRANCH  13  18
ENDBRANCH  10  13
ENDBRANCH   8  10
ENDBRANCH   6   7
ENDBRANCH   5   6
ENDBRANCH   3   5
ENDBRANCH   1   2
BRANCH   1  20
ATOM     20  C   UNL     1       4.254   2.367  19.858  0.00  0.00    +0.000 C 
BRANCH  20  22
ATOM     21  C   UNL     1       5.158   4.384  18.566  0.00  0.00    +0.000 C 
ATOM     22  C   UNL     1       4.368   3.288  18.632  0.00  0.00    +0.000 C 
ATOM     23  C   UNL     1       3.398   2.901  17.534  0.00  0.00    +0.000 C 
BRANCH  21  24
ATOM     24  C   UNL     1       5.180   5.524  17.522  0.00  0.00    +0.000 C 
BRANCH  24  25
ATOM     25  C   UNL     1       6.606   5.840  16.943  0.00  0.00    +0.000 C 
ATOM     26  C   UNL     1       6.891   7.341  16.679  0.00  0.00    +0.000 C 
ATOM     27  C   UNL     1       7.678   8.141  17.672  0.00  0.00    +0.000 C 
ATOM     28  O   UNL     1       7.900   9.339  17.491  0.00  0.00    +0.000 OA
ATOM     29  C   UNL     1       8.266   7.504  18.843  0.00  0.00    +0.000 C 
ATOM     30  C   UNL     1       8.202   6.187  19.012  0.00  0.00    +0.000 C 
ATOM     31  C   UNL     1       7.522   5.285  18.058  0.00  0.00    +0.000 C 
ATOM     32  O   UNL     1       7.701   4.086  18.310  0.00  0.00    +0.000 OA
BRANCH  25  33
ATOM     33  C   UNL     1       6.708   5.289  15.499  0.00  0.00    +0.000 C 
ATOM     34  O   UNL     1       7.607   5.548  14.682  0.00  0.00    +0.000 OA
BRANCH  33  36
ATOM     35  C   UNL     1       5.813   3.982  13.855  0.00  0.00    +0.000 C 
ATOM     36  O   UNL     1       5.581   4.671  15.075  0.00  0.00    +0.000 OA
ENDBRANCH  33  36
ENDBRANCH  25  33
ENDBRANCH  24  25
ENDBRANCH  21  24
ENDBRANCH  20  22
ENDBRANCH   1  20
TORSDOF 15
ENDMDL
MODEL 7
REMARK VINA RESULT:      -6.7      2.592     11.115
REMARK  Name = 
REMARK  21 active torsions:
REMARK  status: ('A' for Active; 'I' for Inactive)
REMARK    1  A    between atoms: C_1  and  O_2
REMARK    2  A    between atoms: O_2  and  C_3
REMARK    3  A    between atoms: C_3  and  C_5
REMARK    4  A    between atoms: C_5  and  C_6
REMARK    5  A    between atoms: C_6  and  C_7
REMARK    6  A    between atoms: C_8  and  C_9
REMARK    7  A    between atoms: C_8  and  C_10
REMARK    8  A    between atoms: C_10  and  C_11
REMARK    9  A    between atoms: C_11  and  C_12
REMARK   10  A    between atoms: C_13  and  C_14
REMARK   11  A    between atoms: C_13  and  C_15
REMARK   12  A    between atoms: C_15  and  C_16
REMARK   13  A    between atoms: C_16  and  C_17
REMARK   14  A    between atoms: C_18  and  C_19
REMARK   15  A    between atoms: C_18  and  C_20
REMARK   16  A    between atoms: C_20  and  O_21
REMARK   17  A    between atoms: C_20  and  C_22
REMARK   18  A    between atoms: C_22  and  O_23
REMARK   19  A    between atoms: C_22  and  C_24
REMARK   20  A    between atoms: C_25  and  C_26
REMARK   21  A    between atoms: C_25  and  C_27
REMARK                            x       y       z     vdW  Elec       q    Type
REMARK                         _______ _______ _______ _____ _____    ______ ____
ROOT
ATOM      1  C   UNL     1       1.173   9.807  21.014  0.00  0.00    +0.000 C 
ENDROOT
BRANCH   1   2
ATOM      2  C   UNL     1      -0.211  10.349  20.668  0.00  0.00    +0.000 C 
ATOM      3  C   UNL     1      -0.590  11.317  19.803  0.00  0.00    +0.000 C 
ATOM      4  C   UNL     1       0.395  11.897  18.821  0.00  0.00    +0.000 C 
BRANCH   3   5
ATOM      5  C   UNL     1      -1.996  11.926  19.575  0.00  0.00    +0.000 C 
BRANCH   5   6
ATOM      6  C   UNL     1      -2.533  13.235  20.203  0.00  0.00    +0.000 C 
BRANCH   6   7
ATOM      7  C   UNL     1      -3.355  13.072  21.465  0.00  0.00    +0.000 C 
ATOM      8  C   UNL     1      -3.035  12.710  22.726  0.00  0.00    +0.000 C 
ATOM      9  C   UNL     1      -1.739  12.102  23.148  0.00  0.00    +0.000 C 
BRANCH   8  10
ATOM     10  C   UNL     1      -3.961  12.988  23.932  0.00  0.00    +0.000 C 
BRANCH  10  11
ATOM     11  O   UNL     1      -3.811  14.334  24.233  0.00  0.00    +0.000 OA
ATOM     12  H   UNL     1      -4.515  14.854  23.794  0.00  0.00    +0.000 HD
ENDBRANCH  10  11
BRANCH  10  13
ATOM     13  C   UNL     1      -5.497  12.771  23.898  0.00  0.00    +0.000 C 
BRANCH  13  14
ATOM     14  C   UNL     1      -6.338  14.057  24.013  0.00  0.00    +0.000 C 
ATOM     15  C   UNL     1      -6.931  14.728  22.995  0.00  0.00    +0.000 C 
ATOM     16  C   UNL     1      -6.775  14.354  21.551  0.00  0.00    +0.000 C 
ATOM     17  C   UNL     1      -7.885  15.884  23.208  0.00  0.00    +0.000 C 
ENDBRANCH  13  14
BRANCH  13  18
ATOM     18  O   UNL     1      -5.888  11.960  24.997  0.00  0.00    +0.000 OA
ATOM     19  H   UNL     1      -6.732  11.549  24.738  0.00  0.00    +0.000 HD
ENDBRANCH  13  18
ENDBRANCH  10  13
ENDBRANCH   8  10
ENDBRANCH   6   7
ENDBRANCH   5   6
ENDBRANCH   3   5
ENDBRANCH   1   2
BRANCH   1  20
ATOM     20  C   UNL     1       1.372   8.270  20.910  0.00  0.00    +0.000 C 
BRANCH  20  22
ATOM     21  C   UNL     1       2.197   6.284  19.520  0.00  0.00    +0.000 C 
ATOM     22  C   UNL     1       1.864   7.591  19.621  0.00  0.00    +0.000 C 
ATOM     23  C   UNL     1       2.054   8.583  18.490  0.00  0.00    +0.000 C 
BRANCH  21  24
ATOM     24  C   UNL     1       2.935   5.539  18.385  0.00  0.00    +0.000 C 
BRANCH  24  25
ATOM     25  C   UNL     1       3.440   4.104  18.779  0.00  0.00    +0.000 C 
ATOM     26  C   UNL     1       3.497   3.822  20.303  0.00  0.00    +0.000 C 
ATOM     27  C   UNL     1       2.392   3.057  20.966  0.00  0.00    +0.000 C 
ATOM     28  O   UNL     1       2.408   2.839  22.178  0.00  0.00    +0.000 OA
ATOM     29  C   UNL     1       1.305   2.488  20.181  0.00  0.00    +0.000 C 
ATOM     30  C   UNL     1       1.313   2.548  18.853  0.00  0.00    +0.000 C 
ATOM     31  C   UNL     1       2.391   3.206  18.084  0.00  0.00    +0.000 C 
ATOM     32  O   UNL     1       2.297   3.026  16.862  0.00  0.00    +0.000 OA
BRANCH  25  33
ATOM     33  C   UNL     1       4.942   3.972  18.425  0.00  0.00    +0.000 C 
ATOM     34  O   UNL     1       5.884   3.970  19.235  0.00  0.00    +0.000 OA
BRANCH  33  36
ATOM     35  C   UNL     1       6.542   4.519  16.892  0.00  0.00    +0.000 C 
ATOM     36  O   UNL     1       5.200   4.106  17.103  0.00  0.00    +0.000 OA
ENDBRANCH  33  36
ENDBRANCH  25  33
ENDBRANCH  24  25
ENDBRANCH  21  24
ENDBRANCH  20  22
ENDBRANCH   1  20
TORSDOF 15
ENDMDL
MODEL 8
REMARK VINA RESULT:      -6.7      2.218      4.496
REMARK  Name = 
REMARK  21 active torsions:
REMARK  status: ('A' for Active; 'I' for Inactive)
REMARK    1  A    between atoms: C_1  and  O_2
REMARK    2  A    between atoms: O_2  and  C_3
REMARK    3  A    between atoms: C_3  and  C_5
REMARK    4  A    between atoms: C_5  and  C_6
REMARK    5  A    between atoms: C_6  and  C_7
REMARK    6  A    between atoms: C_8  and  C_9
REMARK    7  A    between atoms: C_8  and  C_10
REMARK    8  A    between atoms: C_10  and  C_11
REMARK    9  A    between atoms: C_11  and  C_12
REMARK   10  A    between atoms: C_13  and  C_14
REMARK   11  A    between atoms: C_13  and  C_15
REMARK   12  A    between atoms: C_15  and  C_16
REMARK   13  A    between atoms: C_16  and  C_17
REMARK   14  A    between atoms: C_18  and  C_19
REMARK   15  A    between atoms: C_18  and  C_20
REMARK   16  A    between atoms: C_20  and  O_21
REMARK   17  A    between atoms: C_20  and  C_22
REMARK   18  A    between atoms: C_22  and  O_23
REMARK   19  A    between atoms: C_22  and  C_24
REMARK   20  A    between atoms: C_25  and  C_26
REMARK   21  A    between atoms: C_25  and  C_27
REMARK                            x       y       z     vdW  Elec       q    Type
REMARK                         _______ _______ _______ _____ _____    ______ ____
ROOT
ATOM      1  C   UNL     1       0.332  10.620  18.965  0.00  0.00    +0.000 C 
ENDROOT
BRANCH   1   2
ATOM      2  C   UNL     1       1.069   9.353  19.392  0.00  0.00    +0.000 C 
ATOM      3  C   UNL     1       0.960   8.603  20.511  0.00  0.00    +0.000 C 
ATOM      4  C   UNL     1      -0.167   8.835  21.484  0.00  0.00    +0.000 C 
BRANCH   3   5
ATOM      5  C   UNL     1       1.818   7.394  20.963  0.00  0.00    +0.000 C 
BRANCH   5   6
ATOM      6  C   UNL     1       1.793   5.978  20.339  0.00  0.00    +0.000 C 
BRANCH   6   7
ATOM      7  C   UNL     1       3.096   5.505  19.726  0.00  0.00    +0.000 C 
ATOM      8  C   UNL     1       3.845   5.963  18.701  0.00  0.00    +0.000 C 
ATOM      9  C   UNL     1       3.406   6.974  17.695  0.00  0.00    +0.000 C 
BRANCH   8  10
ATOM     10  C   UNL     1       5.324   5.558  18.505  0.00  0.00    +0.000 C 
BRANCH  10  11
ATOM     11  O   UNL     1       5.882   5.508  19.774  0.00  0.00    +0.000 OA
ATOM     12  H   UNL     1       5.174   5.453  20.447  0.00  0.00    +0.000 HD
ENDBRANCH  10  11
BRANCH  10  13
ATOM     13  C   UNL     1       5.765   4.230  17.837  0.00  0.00    +0.000 C 
BRANCH  13  14
ATOM     14  C   UNL     1       5.255   4.024  16.398  0.00  0.00    +0.000 C 
ATOM     15  C   UNL     1       5.920   4.322  15.254  0.00  0.00    +0.000 C 
ATOM     16  C   UNL     1       7.258   5.000  15.224  0.00  0.00    +0.000 C 
ATOM     17  C   UNL     1       5.423   3.930  13.880  0.00  0.00    +0.000 C 
ENDBRANCH  13  14
BRANCH  13  18
ATOM     18  O   UNL     1       5.258   3.130  18.581  0.00  0.00    +0.000 OA
ATOM     19  H   UNL     1       4.330   3.347  18.779  0.00  0.00    +0.000 HD
ENDBRANCH  13  18
ENDBRANCH  10  13
ENDBRANCH   8  10
ENDBRANCH   6   7
ENDBRANCH   5   6
ENDBRANCH   3   5
ENDBRANCH   1   2
BRANCH   1  20
ATOM     20  C   UNL     1      -1.002  10.431  18.193  0.00  0.00    +0.000 C 
BRANCH  20  22
ATOM     21  C   UNL     1      -2.303  12.276  19.400  0.00  0.00    +0.000 C 
ATOM     22  C   UNL     1      -2.260  11.254  18.516  0.00  0.00    +0.000 C 
ATOM     23  C   UNL     1      -3.493  10.711  17.819  0.00  0.00    +0.000 C 
BRANCH  21  24
ATOM     24  C   UNL     1      -3.523  13.007  20.006  0.00  0.00    +0.000 C 
BRANCH  24  25
ATOM     25  C   UNL     1      -3.521  13.073  21.575  0.00  0.00    +0.000 C 
ATOM     26  C   UNL     1      -2.593  12.046  22.276  0.00  0.00    +0.000 C 
ATOM     27  C   UNL     1      -1.242  12.468  22.766  0.00  0.00    +0.000 C 
ATOM     28  O   UNL     1      -0.482  11.664  23.308  0.00  0.00    +0.000 OA
ATOM     29  C   UNL     1      -0.820  13.860  22.682  0.00  0.00    +0.000 C 
ATOM     30  C   UNL     1      -1.654  14.805  22.258  0.00  0.00    +0.000 C 
ATOM     31  C   UNL     1      -3.039  14.520  21.824  0.00  0.00    +0.000 C 
ATOM     32  O   UNL     1      -3.702  15.544  21.610  0.00  0.00    +0.000 OA
BRANCH  25  33
ATOM     33  C   UNL     1      -4.896  12.601  22.112  0.00  0.00    +0.000 C 
ATOM     34  O   UNL     1      -5.969  12.626  21.489  0.00  0.00    +0.000 OA
BRANCH  33  36
ATOM     35  C   UNL     1      -6.036  12.981  24.053  0.00  0.00    +0.000 C 
ATOM     36  O   UNL     1      -4.905  12.373  23.447  0.00  0.00    +0.000 OA
ENDBRANCH  33  36
ENDBRANCH  25  33
ENDBRANCH  24  25
ENDBRANCH  21  24
ENDBRANCH  20  22
ENDBRANCH   1  20
TORSDOF 15
ENDMDL
MODEL 9
REMARK VINA RESULT:      -6.6      1.852      3.436
REMARK  Name = 
REMARK  21 active torsions:
REMARK  status: ('A' for Active; 'I' for Inactive)
REMARK    1  A    between atoms: C_1  and  O_2
REMARK    2  A    between atoms: O_2  and  C_3
REMARK    3  A    between atoms: C_3  and  C_5
REMARK    4  A    between atoms: C_5  and  C_6
REMARK    5  A    between atoms: C_6  and  C_7
REMARK    6  A    between atoms: C_8  and  C_9
REMARK    7  A    between atoms: C_8  and  C_10
REMARK    8  A    between atoms: C_10  and  C_11
REMARK    9  A    between atoms: C_11  and  C_12
REMARK   10  A    between atoms: C_13  and  C_14
REMARK   11  A    between atoms: C_13  and  C_15
REMARK   12  A    between atoms: C_15  and  C_16
REMARK   13  A    between atoms: C_16  and  C_17
REMARK   14  A    between atoms: C_18  and  C_19
REMARK   15  A    between atoms: C_18  and  C_20
REMARK   16  A    between atoms: C_20  and  O_21
REMARK   17  A    between atoms: C_20  and  C_22
REMARK   18  A    between atoms: C_22  and  O_23
REMARK   19  A    between atoms: C_22  and  C_24
REMARK   20  A    between atoms: C_25  and  C_26
REMARK   21  A    between atoms: C_25  and  C_27
REMARK                            x       y       z     vdW  Elec       q    Type
REMARK                         _______ _______ _______ _____ _____    ______ ____
ROOT
ATOM      1  C   UNL     1      -1.146  10.144  17.348  0.00  0.00    +0.000 C 
ENDROOT
BRANCH   1   2
ATOM      2  C   UNL     1      -0.128   9.170  17.936  0.00  0.00    +0.000 C 
ATOM      3  C   UNL     1       1.211   9.277  18.087  0.00  0.00    +0.000 C 
ATOM      4  C   UNL     1       1.907  10.594  17.857  0.00  0.00    +0.000 C 
BRANCH   3   5
ATOM      5  C   UNL     1       2.227   8.213  18.573  0.00  0.00    +0.000 C 
BRANCH   5   6
ATOM      6  C   UNL     1       3.438   7.679  17.771  0.00  0.00    +0.000 C 
BRANCH   6   7
ATOM      7  C   UNL     1       3.457   6.184  17.523  0.00  0.00    +0.000 C 
ATOM      8  C   UNL     1       4.362   5.362  16.952  0.00  0.00    +0.000 C 
ATOM      9  C   UNL     1       5.541   5.799  16.148  0.00  0.00    +0.000 C 
BRANCH   8  10
ATOM     10  C   UNL     1       4.341   3.830  17.159  0.00  0.00    +0.000 C 
BRANCH  10  11
ATOM     11  O   UNL     1       5.497   3.344  16.565  0.00  0.00    +0.000 OA
ATOM     12  H   UNL     1       5.598   3.728  15.670  0.00  0.00    +0.000 HD
ENDBRANCH  10  11
BRANCH  10  13
ATOM     13  C   UNL     1       4.313   3.156  18.555  0.00  0.00    +0.000 C 
BRANCH  13  14
ATOM     14  C   UNL     1       3.256   3.716  19.526  0.00  0.00    +0.000 C 
ATOM     15  C   UNL     1       1.941   3.389  19.566  0.00  0.00    +0.000 C 
ATOM     16  C   UNL     1       1.283   2.471  18.579  0.00  0.00    +0.000 C 
ATOM     17  C   UNL     1       1.004   3.852  20.660  0.00  0.00    +0.000 C 
ENDBRANCH  13  14
BRANCH  13  18
ATOM     18  O   UNL     1       5.564   3.346  19.202  0.00  0.00    +0.000 OA
ATOM     19  H   UNL     1       6.209   2.823  18.694  0.00  0.00    +0.000 HD
ENDBRANCH  13  18
ENDBRANCH  10  13
ENDBRANCH   8  10
ENDBRANCH   6   7
ENDBRANCH   5   6
ENDBRANCH   3   5
ENDBRANCH   1   2
BRANCH   1  20
ATOM     20  C   UNL     1      -2.247  10.674  18.306  0.00  0.00    +0.000 C 
BRANCH  20  22
ATOM     21  C   UNL     1      -1.045  12.826  19.001  0.00  0.00    +0.000 C 
ATOM     22  C   UNL     1      -2.158  12.058  18.971  0.00  0.00    +0.000 C 
ATOM     23  C   UNL     1      -3.435  12.423  19.703  0.00  0.00    +0.000 C 
BRANCH  21  24
ATOM     24  C   UNL     1      -0.741  14.091  19.835  0.00  0.00    +0.000 C 
BRANCH  24  25
ATOM     25  C   UNL     1      -0.101  13.798  21.239  0.00  0.00    +0.000 C 
ATOM     26  C   UNL     1      -1.064  13.181  22.287  0.00  0.00    +0.000 C 
ATOM     27  C   UNL     1      -1.049  11.705  22.542  0.00  0.00    +0.000 C 
ATOM     28  O   UNL     1      -1.819  11.192  23.355  0.00  0.00    +0.000 OA
ATOM     29  C   UNL     1      -0.072  10.845  21.888  0.00  0.00    +0.000 C 
ATOM     30  C   UNL     1       0.890  11.357  21.125  0.00  0.00    +0.000 C 
ATOM     31  C   UNL     1       1.025  12.807  20.865  0.00  0.00    +0.000 C 
ATOM     32  O   UNL     1       2.065  13.098  20.259  0.00  0.00    +0.000 OA
BRANCH  25  33
ATOM     33  C   UNL     1       0.236  15.137  21.941  0.00  0.00    +0.000 C 
ATOM     34  O   UNL     1       0.726  15.263  23.076  0.00  0.00    +0.000 OA
BRANCH  33  36
ATOM     35  C   UNL     1      -0.932  17.075  22.243  0.00  0.00    +0.000 C 
ATOM     36  O   UNL     1      -0.281  16.221  21.315  0.00  0.00    +0.000 OA
ENDBRANCH  33  36
ENDBRANCH  25  33
ENDBRANCH  24  25
ENDBRANCH  21  24
ENDBRANCH  20  22
ENDBRANCH   1  20
TORSDOF 15
ENDMDL
