MODEL 1
REMARK VINA RESULT:      -8.0      0.000      0.000
REMARK  Name = 
REMARK  13 active torsions:
REMARK  status: ('A' for Active; 'I' for Inactive)
REMARK    1  A    between atoms: C_1  and  C_2
REMARK    2  A    between atoms: C_2  and  C_3
REMARK    3  A    between atoms: C_2  and  C_4
REMARK    4  A    between atoms: C_2  and  C_5
REMARK    5  A    between atoms: C_8  and  C_9
REMARK    6  A    between atoms: C_9  and  N_10
REMARK    7  A    between atoms: C_11  and  S_12
REMARK    8  A    between atoms: N_13  and  C_14
REMARK    9  A    between atoms: C_14  and  C_15
REMARK   10  A    between atoms: C_18  and  N_19
REMARK   11  A    between atoms: N_19  and  S_20
REMARK   12  A    between atoms: S_20  and  C_21
REMARK   13  A    between atoms: C_25  and  C_26
REMARK                            x       y       z     vdW  Elec       q    Type
REMARK                         _______ _______ _______ _____ _____    ______ ____
ROOT
ATOM      1  N   UNL     1       0.294  10.854  19.514  0.00  0.00    +0.000 NA
ATOM      2  C   UNL     1       0.712   9.911  20.271  0.00  0.00    +0.000 C 
ATOM      3  N   UNL     1       1.405   8.882  19.706  0.00  0.00    +0.000 N 
ATOM      4  H   UNL     1       1.891   9.134  18.854  0.00  0.00    +0.000 HD
ENDROOT
BRANCH   2   5
ATOM      5  S   UNL     1       0.552   9.861  22.023  0.00  0.00    +0.000 S 
ATOM      6  H   UNL     1       1.750   9.361  22.329  0.00  0.00    +0.000 HD
ENDBRANCH   2   5
BRANCH   1   7
ATOM      7  C   UNL     1      -0.490  11.966  20.027  0.00  0.00    +0.000 C 
BRANCH   7  11
ATOM      8  C   UNL     1      -4.718  11.961  18.971  0.00  0.00    +0.000 A 
ATOM      9  C   UNL     1      -4.228  12.616  20.119  0.00  0.00    +0.000 A 
ATOM     10  C   UNL     1      -2.873  12.609  20.445  0.00  0.00    +0.000 A 
ATOM     11  C   UNL     1      -1.952  11.920  19.655  0.00  0.00    +0.000 A 
ATOM     12  C   UNL     1      -2.416  11.269  18.508  0.00  0.00    +0.000 A 
ATOM     13  C   UNL     1      -3.778  11.283  18.177  0.00  0.00    +0.000 A 
BRANCH   8  15
ATOM     14  C   UNL     1      -6.426  12.643  17.199  0.00  0.00    +0.000 C 
ATOM     15  C   UNL     1      -6.209  11.999  18.587  0.00  0.00    +0.000 C 
ATOM     16  C   UNL     1      -7.032  12.808  19.611  0.00  0.00    +0.000 C 
ATOM     17  C   UNL     1      -6.789  10.569  18.536  0.00  0.00    +0.000 C 
ENDBRANCH   8  15
ENDBRANCH   7  11
ENDBRANCH   1   7
BRANCH   3  18
ATOM     18  C   UNL     1       1.503   7.510  20.128  0.00  0.00    +0.000 C 
BRANCH  18  19
ATOM     19  C   UNL     1       2.475   6.722  19.258  0.00  0.00    +0.000 A 
ATOM     20  C   UNL     1       3.176   7.430  18.260  0.00  0.00    +0.000 A 
ATOM     21  C   UNL     1       4.107   6.801  17.427  0.00  0.00    +0.000 A 
ATOM     22  C   UNL     1       4.340   5.436  17.556  0.00  0.00    +0.000 A 
ATOM     23  C   UNL     1       3.631   4.701  18.500  0.00  0.00    +0.000 A 
ATOM     24  C   UNL     1       2.706   5.328  19.379  0.00  0.00    +0.000 A 
BRANCH  24  25
ATOM     25  C   UNL     1       2.037   4.442  20.411  0.00  0.00    +0.000 C 
ATOM     26  F   UNL     1       2.269   3.108  20.274  0.00  0.00    +0.000 F 
ATOM     27  F   UNL     1       2.433   4.742  21.680  0.00  0.00    +0.000 F 
ATOM     28  F   UNL     1       0.681   4.571  20.404  0.00  0.00    +0.000 F 
ENDBRANCH  24  25
BRANCH  22  29
ATOM     29  N   UNL     1       5.347   4.861  16.735  0.00  0.00    +0.000 N 
ATOM     30  H   UNL     1       5.128   4.005  16.228  0.00  0.00    +0.000 HD
BRANCH  29  31
ATOM     31  S   UNL     1       6.937   4.867  17.307  0.00  0.00    +0.000 S 
ATOM     32  C   UNL     1       7.293   6.609  17.326  0.00  0.00    +0.000 C 
ATOM     33  O   UNL     1       6.986   4.348  18.658  0.00  0.00    +0.000 OA
ATOM     34  O   UNL     1       7.732   4.280  16.248  0.00  0.00    +0.000 OA
ENDBRANCH  29  31
ENDBRANCH  22  29
ENDBRANCH  18  19
ENDBRANCH   3  18
TORSDOF 9
ENDMDL
MODEL 2
REMARK VINA RESULT:      -8.0      0.508      1.113
REMARK  Name = 
REMARK  13 active torsions:
REMARK  status: ('A' for Active; 'I' for Inactive)
REMARK    1  A    between atoms: C_1  and  C_2
REMARK    2  A    between atoms: C_2  and  C_3
REMARK    3  A    between atoms: C_2  and  C_4
REMARK    4  A    between atoms: C_2  and  C_5
REMARK    5  A    between atoms: C_8  and  C_9
REMARK    6  A    between atoms: C_9  and  N_10
REMARK    7  A    between atoms: C_11  and  S_12
REMARK    8  A    between atoms: N_13  and  C_14
REMARK    9  A    between atoms: C_14  and  C_15
REMARK   10  A    between atoms: C_18  and  N_19
REMARK   11  A    between atoms: N_19  and  S_20
REMARK   12  A    between atoms: S_20  and  C_21
REMARK   13  A    between atoms: C_25  and  C_26
REMARK                            x       y       z     vdW  Elec       q    Type
REMARK                         _______ _______ _______ _____ _____    ______ ____
ROOT
ATOM      1  N   UNL     1       0.360  11.003  18.727  0.00  0.00    +0.000 NA
ATOM      2  C   UNL     1       0.764  10.134  19.575  0.00  0.00    +0.000 C 
ATOM      3  N   UNL     1       1.390   9.015  19.113  0.00  0.00    +0.000 N 
ATOM      4  H   UNL     1       1.855   9.143  18.222  0.00  0.00    +0.000 HD
ENDROOT
BRANCH   2   5
ATOM      5  S   UNL     1       0.666  10.294  21.324  0.00  0.00    +0.000 S 
ATOM      6  H   UNL     1      -0.089   9.227  21.592  0.00  0.00    +0.000 HD
ENDBRANCH   2   5
BRANCH   1   7
ATOM      7  C   UNL     1      -0.354  12.203  19.131  0.00  0.00    +0.000 C 
BRANCH   7  11
ATOM      8  C   UNL     1      -4.701  12.010  18.898  0.00  0.00    +0.000 A 
ATOM      9  C   UNL     1      -4.029  12.535  20.019  0.00  0.00    +0.000 A 
ATOM     10  C   UNL     1      -2.638  12.591  20.082  0.00  0.00    +0.000 A 
ATOM     11  C   UNL     1      -1.857  12.093  19.037  0.00  0.00    +0.000 A 
ATOM     12  C   UNL     1      -2.504  11.574  17.912  0.00  0.00    +0.000 A 
ATOM     13  C   UNL     1      -3.904  11.527  17.848  0.00  0.00    +0.000 A 
BRANCH   8  15
ATOM     14  C   UNL     1      -6.793  10.544  18.902  0.00  0.00    +0.000 C 
ATOM     15  C   UNL     1      -6.239  11.983  18.811  0.00  0.00    +0.000 C 
ATOM     16  C   UNL     1      -6.736  12.592  17.482  0.00  0.00    +0.000 C 
ATOM     17  C   UNL     1      -6.859  12.799  19.967  0.00  0.00    +0.000 C 
ENDBRANCH   8  15
ENDBRANCH   7  11
ENDBRANCH   1   7
BRANCH   3  18
ATOM     18  C   UNL     1       1.442   7.697  19.688  0.00  0.00    +0.000 C 
BRANCH  18  19
ATOM     19  C   UNL     1       2.519   6.840  19.034  0.00  0.00    +0.000 A 
ATOM     20  C   UNL     1       3.272   7.423  17.994  0.00  0.00    +0.000 A 
ATOM     21  C   UNL     1       4.298   6.726  17.348  0.00  0.00    +0.000 A 
ATOM     22  C   UNL     1       4.578   5.413  17.711  0.00  0.00    +0.000 A 
ATOM     23  C   UNL     1       3.824   4.795  18.701  0.00  0.00    +0.000 A 
ATOM     24  C   UNL     1       2.799   5.497  19.394  0.00  0.00    +0.000 A 
BRANCH  24  25
ATOM     25  C   UNL     1       2.082   4.745  20.498  0.00  0.00    +0.000 C 
ATOM     26  F   UNL     1       0.732   4.651  20.359  0.00  0.00    +0.000 F 
ATOM     27  F   UNL     1       2.518   3.459  20.609  0.00  0.00    +0.000 F 
ATOM     28  F   UNL     1       2.278   5.312  21.721  0.00  0.00    +0.000 F 
ENDBRANCH  24  25
BRANCH  22  29
ATOM     29  N   UNL     1       5.677   4.776  17.074  0.00  0.00    +0.000 N 
ATOM     30  H   UNL     1       5.547   3.831  16.715  0.00  0.00    +0.000 HD
BRANCH  29  31
ATOM     31  S   UNL     1       7.215   4.992  17.739  0.00  0.00    +0.000 S 
ATOM     32  C   UNL     1       7.515   6.706  17.371  0.00  0.00    +0.000 C 
ATOM     33  O   UNL     1       7.172   4.805  19.174  0.00  0.00    +0.000 OA
ATOM     34  O   UNL     1       8.110   4.214  16.907  0.00  0.00    +0.000 OA
ENDBRANCH  29  31
ENDBRANCH  22  29
ENDBRANCH  18  19
ENDBRANCH   3  18
TORSDOF 9
ENDMDL
MODEL 3
REMARK VINA RESULT:      -8.0      0.892      1.440
REMARK  Name = 
REMARK  13 active torsions:
REMARK  status: ('A' for Active; 'I' for Inactive)
REMARK    1  A    between atoms: C_1  and  C_2
REMARK    2  A    between atoms: C_2  and  C_3
REMARK    3  A    between atoms: C_2  and  C_4
REMARK    4  A    between atoms: C_2  and  C_5
REMARK    5  A    between atoms: C_8  and  C_9
REMARK    6  A    between atoms: C_9  and  N_10
REMARK    7  A    between atoms: C_11  and  S_12
REMARK    8  A    between atoms: N_13  and  C_14
REMARK    9  A    between atoms: C_14  and  C_15
REMARK   10  A    between atoms: C_18  and  N_19
REMARK   11  A    between atoms: N_19  and  S_20
REMARK   12  A    between atoms: S_20  and  C_21
REMARK   13  A    between atoms: C_25  and  C_26
REMARK                            x       y       z     vdW  Elec       q    Type
REMARK                         _______ _______ _______ _____ _____    ______ ____
ROOT
ATOM      1  N   UNL     1       0.310  11.077  20.262  0.00  0.00    +0.000 NA
ATOM      2  C   UNL     1       0.576  10.012  20.920  0.00  0.00    +0.000 C 
ATOM      3  N   UNL     1       1.386   9.077  20.346  0.00  0.00    +0.000 N 
ATOM      4  H   UNL     1       2.034   9.458  19.667  0.00  0.00    +0.000 HD
ENDROOT
BRANCH   2   5
ATOM      5  S   UNL     1       0.058   9.674  22.567  0.00  0.00    +0.000 S 
ATOM      6  H   UNL     1      -0.256   8.385  22.429  0.00  0.00    +0.000 HD
ENDBRANCH   2   5
BRANCH   1   7
ATOM      7  C   UNL     1      -0.579  12.104  20.781  0.00  0.00    +0.000 C 
BRANCH   7  11
ATOM      8  C   UNL     1      -4.611  12.141  19.129  0.00  0.00    +0.000 A 
ATOM      9  C   UNL     1      -4.309  12.685  20.392  0.00  0.00    +0.000 A 
ATOM     10  C   UNL     1      -3.015  12.667  20.910  0.00  0.00    +0.000 A 
ATOM     11  C   UNL     1      -1.971  12.072  20.199  0.00  0.00    +0.000 A 
ATOM     12  C   UNL     1      -2.248  11.532  18.939  0.00  0.00    +0.000 A 
ATOM     13  C   UNL     1      -3.549  11.559  18.417  0.00  0.00    +0.000 A 
BRANCH   8  15
ATOM     14  C   UNL     1      -6.711  10.807  18.551  0.00  0.00    +0.000 C 
ATOM     15  C   UNL     1      -6.032  12.195  18.538  0.00  0.00    +0.000 C 
ATOM     16  C   UNL     1      -6.015  12.693  17.078  0.00  0.00    +0.000 C 
ATOM     17  C   UNL     1      -6.920  13.159  19.357  0.00  0.00    +0.000 C 
ENDBRANCH   8  15
ENDBRANCH   7  11
ENDBRANCH   1   7
BRANCH   3  18
ATOM     18  C   UNL     1       1.414   7.652  20.542  0.00  0.00    +0.000 C 
BRANCH  18  19
ATOM     19  C   UNL     1       2.255   6.955  19.480  0.00  0.00    +0.000 A 
ATOM     20  C   UNL     1       2.840   7.760  18.480  0.00  0.00    +0.000 A 
ATOM     21  C   UNL     1       3.648   7.216  17.477  0.00  0.00    +0.000 A 
ATOM     22  C   UNL     1       3.868   5.844  17.433  0.00  0.00    +0.000 A 
ATOM     23  C   UNL     1       3.269   5.018  18.377  0.00  0.00    +0.000 A 
ATOM     24  C   UNL     1       2.472   5.555  19.426  0.00  0.00    +0.000 A 
BRANCH  24  25
ATOM     25  C   UNL     1       1.921   4.569  20.437  0.00  0.00    +0.000 C 
ATOM     26  F   UNL     1       0.565   4.548  20.553  0.00  0.00    +0.000 F 
ATOM     27  F   UNL     1       2.271   3.284  20.144  0.00  0.00    +0.000 F 
ATOM     28  F   UNL     1       2.384   4.803  21.695  0.00  0.00    +0.000 F 
ENDBRANCH  24  25
BRANCH  22  29
ATOM     29  N   UNL     1       4.754   5.353  16.437  0.00  0.00    +0.000 N 
ATOM     30  H   UNL     1       4.519   4.479  15.968  0.00  0.00    +0.000 HD
BRANCH  29  31
ATOM     31  S   UNL     1       6.415   5.495  16.710  0.00  0.00    +0.000 S 
ATOM     32  C   UNL     1       7.074   4.626  15.305  0.00  0.00    +0.000 C 
ATOM     33  O   UNL     1       6.816   6.885  16.650  0.00  0.00    +0.000 OA
ATOM     34  O   UNL     1       6.688   4.685  17.879  0.00  0.00    +0.000 OA
ENDBRANCH  29  31
ENDBRANCH  22  29
ENDBRANCH  18  19
ENDBRANCH   3  18
TORSDOF 9
ENDMDL
MODEL 4
REMARK VINA RESULT:      -7.9      0.453      1.023
REMARK  Name = 
REMARK  13 active torsions:
REMARK  status: ('A' for Active; 'I' for Inactive)
REMARK    1  A    between atoms: C_1  and  C_2
REMARK    2  A    between atoms: C_2  and  C_3
REMARK    3  A    between atoms: C_2  and  C_4
REMARK    4  A    between atoms: C_2  and  C_5
REMARK    5  A    between atoms: C_8  and  C_9
REMARK    6  A    between atoms: C_9  and  N_10
REMARK    7  A    between atoms: C_11  and  S_12
REMARK    8  A    between atoms: N_13  and  C_14
REMARK    9  A    between atoms: C_14  and  C_15
REMARK   10  A    between atoms: C_18  and  N_19
REMARK   11  A    between atoms: N_19  and  S_20
REMARK   12  A    between atoms: S_20  and  C_21
REMARK   13  A    between atoms: C_25  and  C_26
REMARK                            x       y       z     vdW  Elec       q    Type
REMARK                         _______ _______ _______ _____ _____    ______ ____
ROOT
ATOM      1  N   UNL     1       0.521  10.916  20.172  0.00  0.00    +0.000 NA
ATOM      2  C   UNL     1       0.718   9.817  20.796  0.00  0.00    +0.000 C 
ATOM      3  N   UNL     1       1.478   8.856  20.196  0.00  0.00    +0.000 N 
ATOM      4  H   UNL     1       2.153   9.220  19.535  0.00  0.00    +0.000 HD
ENDROOT
BRANCH   2   5
ATOM      5  S   UNL     1       0.167   9.455  22.427  0.00  0.00    +0.000 S 
ATOM      6  H   UNL     1       0.013  10.701  22.878  0.00  0.00    +0.000 HD
ENDBRANCH   2   5
BRANCH   1   7
ATOM      7  C   UNL     1      -0.312  11.976  20.719  0.00  0.00    +0.000 C 
BRANCH   7  11
ATOM      8  C   UNL     1      -4.386  12.176  19.187  0.00  0.00    +0.000 A 
ATOM      9  C   UNL     1      -4.031  12.686  20.451  0.00  0.00    +0.000 A 
ATOM     10  C   UNL     1      -2.723  12.615  20.930  0.00  0.00    +0.000 A 
ATOM     11  C   UNL     1      -1.721  12.001  20.177  0.00  0.00    +0.000 A 
ATOM     12  C   UNL     1      -2.051  11.496  18.916  0.00  0.00    +0.000 A 
ATOM     13  C   UNL     1      -3.365  11.575  18.433  0.00  0.00    +0.000 A 
BRANCH   8  15
ATOM     14  C   UNL     1      -6.547  13.538  19.187  0.00  0.00    +0.000 C 
ATOM     15  C   UNL     1      -5.821  12.289  18.639  0.00  0.00    +0.000 C 
ATOM     16  C   UNL     1      -6.666  11.054  19.019  0.00  0.00    +0.000 C 
ATOM     17  C   UNL     1      -5.803  12.395  17.098  0.00  0.00    +0.000 C 
ENDBRANCH   8  15
ENDBRANCH   7  11
ENDBRANCH   1   7
BRANCH   3  18
ATOM     18  C   UNL     1       1.421   7.426  20.345  0.00  0.00    +0.000 C 
BRANCH  18  19
ATOM     19  C   UNL     1       2.405   6.725  19.417  0.00  0.00    +0.000 A 
ATOM     20  C   UNL     1       3.043   7.508  18.433  0.00  0.00    +0.000 A 
ATOM     21  C   UNL     1       3.980   6.961  17.551  0.00  0.00    +0.000 A 
ATOM     22  C   UNL     1       4.281   5.605  17.614  0.00  0.00    +0.000 A 
ATOM     23  C   UNL     1       3.636   4.797  18.542  0.00  0.00    +0.000 A 
ATOM     24  C   UNL     1       2.706   5.340  19.472  0.00  0.00    +0.000 A 
BRANCH  24  25
ATOM     25  C   UNL     1       2.109   4.379  20.481  0.00  0.00    +0.000 C 
ATOM     26  F   UNL     1       0.750   4.306  20.487  0.00  0.00    +0.000 F 
ATOM     27  F   UNL     1       2.532   3.098  20.282  0.00  0.00    +0.000 F 
ATOM     28  F   UNL     1       2.456   4.690  21.761  0.00  0.00    +0.000 F 
ENDBRANCH  24  25
BRANCH  22  29
ATOM     29  N   UNL     1       5.292   5.115  16.743  0.00  0.00    +0.000 N 
ATOM     30  H   UNL     1       5.065   4.337  16.126  0.00  0.00    +0.000 HD
BRANCH  29  31
ATOM     31  S   UNL     1       6.870   5.008  17.337  0.00  0.00    +0.000 S 
ATOM     32  C   UNL     1       7.317   6.726  17.449  0.00  0.00    +0.000 C 
ATOM     33  O   UNL     1       6.868   4.422  18.662  0.00  0.00    +0.000 OA
ATOM     34  O   UNL     1       7.652   4.432  16.263  0.00  0.00    +0.000 OA
ENDBRANCH  29  31
ENDBRANCH  22  29
ENDBRANCH  18  19
ENDBRANCH   3  18
TORSDOF 9
ENDMDL
MODEL 5
REMARK VINA RESULT:      -7.9      0.682      1.578
REMARK  Name = 
REMARK  13 active torsions:
REMARK  status: ('A' for Active; 'I' for Inactive)
REMARK    1  A    between atoms: C_1  and  C_2
REMARK    2  A    between atoms: C_2  and  C_3
REMARK    3  A    between atoms: C_2  and  C_4
REMARK    4  A    between atoms: C_2  and  C_5
REMARK    5  A    between atoms: C_8  and  C_9
REMARK    6  A    between atoms: C_9  and  N_10
REMARK    7  A    between atoms: C_11  and  S_12
REMARK    8  A    between atoms: N_13  and  C_14
REMARK    9  A    between atoms: C_14  and  C_15
REMARK   10  A    between atoms: C_18  and  N_19
REMARK   11  A    between atoms: N_19  and  S_20
REMARK   12  A    between atoms: S_20  and  C_21
REMARK   13  A    between atoms: C_25  and  C_26
REMARK                            x       y       z     vdW  Elec       q    Type
REMARK                         _______ _______ _______ _____ _____    ______ ____
ROOT
ATOM      1  N   UNL     1       0.607  10.843  19.680  0.00  0.00    +0.000 NA
ATOM      2  C   UNL     1       0.914   9.797  20.352  0.00  0.00    +0.000 C 
ATOM      3  N   UNL     1       1.551   8.776  19.711  0.00  0.00    +0.000 N 
ATOM      4  H   UNL     1       2.095   9.071  18.909  0.00  0.00    +0.000 HD
ENDROOT
BRANCH   2   5
ATOM      5  S   UNL     1       0.669   9.587  22.081  0.00  0.00    +0.000 S 
ATOM      6  H   UNL     1       0.138   8.363  22.071  0.00  0.00    +0.000 HD
ENDBRANCH   2   5
BRANCH   1   7
ATOM      7  C   UNL     1      -0.111  11.959  20.274  0.00  0.00    +0.000 C 
BRANCH   7  11
ATOM      8  C   UNL     1      -4.287  12.121  19.038  0.00  0.00    +0.000 A 
ATOM      9  C   UNL     1      -3.282  11.560  18.226  0.00  0.00    +0.000 A 
ATOM     10  C   UNL     1      -1.949  11.515  18.633  0.00  0.00    +0.000 A 
ATOM     11  C   UNL     1      -1.559  12.058  19.858  0.00  0.00    +0.000 A 
ATOM     12  C   UNL     1      -2.542  12.614  20.682  0.00  0.00    +0.000 A 
ATOM     13  C   UNL     1      -3.883  12.651  20.275  0.00  0.00    +0.000 A 
BRANCH   8  15
ATOM     14  C   UNL     1      -6.531  10.905  19.143  0.00  0.00    +0.000 C 
ATOM     15  C   UNL     1      -5.766  12.137  18.608  0.00  0.00    +0.000 C 
ATOM     16  C   UNL     1      -5.903  12.141  17.071  0.00  0.00    +0.000 C 
ATOM     17  C   UNL     1      -6.471  13.399  19.150  0.00  0.00    +0.000 C 
ENDBRANCH   8  15
ENDBRANCH   7  11
ENDBRANCH   1   7
BRANCH   3  18
ATOM     18  C   UNL     1       1.521   7.365  19.992  0.00  0.00    +0.000 C 
BRANCH  18  19
ATOM     19  C   UNL     1       2.561   6.607  19.175  0.00  0.00    +0.000 A 
ATOM     20  C   UNL     1       3.254   7.324  18.178  0.00  0.00    +0.000 A 
ATOM     21  C   UNL     1       4.242   6.723  17.393  0.00  0.00    +0.000 A 
ATOM     22  C   UNL     1       4.543   5.377  17.569  0.00  0.00    +0.000 A 
ATOM     23  C   UNL     1       3.847   4.632  18.513  0.00  0.00    +0.000 A 
ATOM     24  C   UNL     1       2.862   5.232  19.346  0.00  0.00    +0.000 A 
BRANCH  24  25
ATOM     25  C   UNL     1       2.209   4.340  20.384  0.00  0.00    +0.000 C 
ATOM     26  F   UNL     1       2.395   4.718  21.678  0.00  0.00    +0.000 F 
ATOM     27  F   UNL     1       0.857   4.272  20.225  0.00  0.00    +0.000 F 
ATOM     28  F   UNL     1       2.657   3.056  20.317  0.00  0.00    +0.000 F 
ENDBRANCH  24  25
BRANCH  22  29
ATOM     29  N   UNL     1       5.605   4.834  16.796  0.00  0.00    +0.000 N 
ATOM     30  H   UNL     1       5.546   3.858  16.509  0.00  0.00    +0.000 HD
BRANCH  29  31
ATOM     31  S   UNL     1       7.186   5.280  17.193  0.00  0.00    +0.000 S 
ATOM     32  C   UNL     1       7.014   5.670  18.919  0.00  0.00    +0.000 C 
ATOM     33  O   UNL     1       8.079   4.150  17.040  0.00  0.00    +0.000 OA
ATOM     34  O   UNL     1       7.425   6.526  16.495  0.00  0.00    +0.000 OA
ENDBRANCH  29  31
ENDBRANCH  22  29
ENDBRANCH  18  19
ENDBRANCH   3  18
TORSDOF 9
ENDMDL
MODEL 6
REMARK VINA RESULT:      -7.8      1.169      1.599
REMARK  Name = 
REMARK  13 active torsions:
REMARK  status: ('A' for Active; 'I' for Inactive)
REMARK    1  A    between atoms: C_1  and  C_2
REMARK    2  A    between atoms: C_2  and  C_3
REMARK    3  A    between atoms: C_2  and  C_4
REMARK    4  A    between atoms: C_2  and  C_5
REMARK    5  A    between atoms: C_8  and  C_9
REMARK    6  A    between atoms: C_9  and  N_10
REMARK    7  A    between atoms: C_11  and  S_12
REMARK    8  A    between atoms: N_13  and  C_14
REMARK    9  A    between atoms: C_14  and  C_15
REMARK   10  A    between atoms: C_18  and  N_19
REMARK   11  A    between atoms: N_19  and  S_20
REMARK   12  A    between atoms: S_20  and  C_21
REMARK   13  A    between atoms: C_25  and  C_26
REMARK                            x       y       z     vdW  Elec       q    Type
REMARK                         _______ _______ _______ _____ _____    ______ ____
ROOT
ATOM      1  N   UNL     1       1.047  10.673  20.761  0.00  0.00    +0.000 NA
ATOM      2  C   UNL     1       0.878   9.520  21.289  0.00  0.00    +0.000 C 
ATOM      3  N   UNL     1       1.727   8.512  20.938  0.00  0.00    +0.000 N 
ATOM      4  H   UNL     1       2.641   8.831  20.640  0.00  0.00    +0.000 HD
ENDROOT
BRANCH   2   5
ATOM      5  S   UNL     1      -0.315   9.127  22.521  0.00  0.00    +0.000 S 
ATOM      6  H   UNL     1      -0.190   7.799  22.520  0.00  0.00    +0.000 HD
ENDBRANCH   2   5
BRANCH   1   7
ATOM      7  C   UNL     1       0.162  11.791  21.046  0.00  0.00    +0.000 C 
BRANCH   7  11
ATOM      8  C   UNL     1      -3.640  11.796  18.918  0.00  0.00    +0.000 A 
ATOM      9  C   UNL     1      -3.459  12.476  20.138  0.00  0.00    +0.000 A 
ATOM     10  C   UNL     1      -2.237  12.465  20.810  0.00  0.00    +0.000 A 
ATOM     11  C   UNL     1      -1.152  11.748  20.304  0.00  0.00    +0.000 A 
ATOM     12  C   UNL     1      -1.308  11.072  19.090  0.00  0.00    +0.000 A 
ATOM     13  C   UNL     1      -2.536  11.090  18.412  0.00  0.00    +0.000 A 
BRANCH   8  15
ATOM     14  C   UNL     1      -5.750  13.149  18.425  0.00  0.00    +0.000 C 
ATOM     15  C   UNL     1      -4.977  11.838  18.155  0.00  0.00    +0.000 C 
ATOM     16  C   UNL     1      -5.893  10.664  18.560  0.00  0.00    +0.000 C 
ATOM     17  C   UNL     1      -4.732  11.744  16.632  0.00  0.00    +0.000 C 
ENDBRANCH   8  15
ENDBRANCH   7  11
ENDBRANCH   1   7
BRANCH   3  18
ATOM     18  C   UNL     1       1.489   7.094  20.897  0.00  0.00    +0.000 C 
BRANCH  18  19
ATOM     19  C   UNL     1       2.276   6.424  19.777  0.00  0.00    +0.000 A 
ATOM     20  C   UNL     1       2.803   7.253  18.765  0.00  0.00    +0.000 A 
ATOM     21  C   UNL     1       3.560   6.735  17.709  0.00  0.00    +0.000 A 
ATOM     22  C   UNL     1       3.785   5.366  17.625  0.00  0.00    +0.000 A 
ATOM     23  C   UNL     1       3.241   4.517  18.582  0.00  0.00    +0.000 A 
ATOM     24  C   UNL     1       2.498   5.026  19.683  0.00  0.00    +0.000 A 
BRANCH  24  25
ATOM     25  C   UNL     1       2.005   4.016  20.701  0.00  0.00    +0.000 C 
ATOM     26  F   UNL     1       2.382   4.251  21.987  0.00  0.00    +0.000 F 
ATOM     27  F   UNL     1       0.644   3.946  20.736  0.00  0.00    +0.000 F 
ATOM     28  F   UNL     1       2.436   2.754  20.427  0.00  0.00    +0.000 F 
ENDBRANCH  24  25
BRANCH  22  29
ATOM     29  N   UNL     1       4.620   4.900  16.574  0.00  0.00    +0.000 N 
ATOM     30  H   UNL     1       4.472   3.957  16.219  0.00  0.00    +0.000 HD
BRANCH  29  31
ATOM     31  S   UNL     1       6.259   5.305  16.623  0.00  0.00    +0.000 S 
ATOM     32  C   UNL     1       6.886   4.382  15.237  0.00  0.00    +0.000 C 
ATOM     33  O   UNL     1       6.434   6.722  16.378  0.00  0.00    +0.000 OA
ATOM     34  O   UNL     1       6.779   4.680  17.822  0.00  0.00    +0.000 OA
ENDBRANCH  29  31
ENDBRANCH  22  29
ENDBRANCH  18  19
ENDBRANCH   3  18
TORSDOF 9
ENDMDL
MODEL 7
REMARK VINA RESULT:      -7.8      0.761      1.320
REMARK  Name = 
REMARK  13 active torsions:
REMARK  status: ('A' for Active; 'I' for Inactive)
REMARK    1  A    between atoms: C_1  and  C_2
REMARK    2  A    between atoms: C_2  and  C_3
REMARK    3  A    between atoms: C_2  and  C_4
REMARK    4  A    between atoms: C_2  and  C_5
REMARK    5  A    between atoms: C_8  and  C_9
REMARK    6  A    between atoms: C_9  and  N_10
REMARK    7  A    between atoms: C_11  and  S_12
REMARK    8  A    between atoms: N_13  and  C_14
REMARK    9  A    between atoms: C_14  and  C_15
REMARK   10  A    between atoms: C_18  and  N_19
REMARK   11  A    between atoms: N_19  and  S_20
REMARK   12  A    between atoms: S_20  and  C_21
REMARK   13  A    between atoms: C_25  and  C_26
REMARK                            x       y       z     vdW  Elec       q    Type
REMARK                         _______ _______ _______ _____ _____    ______ ____
ROOT
ATOM      1  N   UNL     1       0.802  10.507  20.135  0.00  0.00    +0.000 NA
ATOM      2  C   UNL     1       0.858   9.402  20.779  0.00  0.00    +0.000 C 
ATOM      3  N   UNL     1       1.610   8.387  20.267  0.00  0.00    +0.000 N 
ATOM      4  H   UNL     1       2.374   8.698  19.680  0.00  0.00    +0.000 HD
ENDROOT
BRANCH   2   5
ATOM      5  S   UNL     1       0.114   9.095  22.344  0.00  0.00    +0.000 S 
ATOM      6  H   UNL     1      -0.996   8.480  21.932  0.00  0.00    +0.000 HD
ENDBRANCH   2   5
BRANCH   1   7
ATOM      7  C   UNL     1      -0.010  11.625  20.587  0.00  0.00    +0.000 C 
BRANCH   7  11
ATOM      8  C   UNL     1      -4.027  11.853  18.913  0.00  0.00    +0.000 A 
ATOM      9  C   UNL     1      -3.669  12.510  20.107  0.00  0.00    +0.000 A 
ATOM     10  C   UNL     1      -2.381  12.428  20.633  0.00  0.00    +0.000 A 
ATOM     11  C   UNL     1      -1.401  11.659  20.002  0.00  0.00    +0.000 A 
ATOM     12  C   UNL     1      -1.733  11.005  18.812  0.00  0.00    +0.000 A 
ATOM     13  C   UNL     1      -3.028  11.095  18.281  0.00  0.00    +0.000 A 
BRANCH   8  15
ATOM     14  C   UNL     1      -6.302  10.730  18.620  0.00  0.00    +0.000 C 
ATOM     15  C   UNL     1      -5.439  11.974  18.310  0.00  0.00    +0.000 C 
ATOM     16  C   UNL     1      -5.383  12.133  16.776  0.00  0.00    +0.000 C 
ATOM     17  C   UNL     1      -6.168  13.207  18.888  0.00  0.00    +0.000 C 
ENDBRANCH   8  15
ENDBRANCH   7  11
ENDBRANCH   1   7
BRANCH   3  18
ATOM     18  C   UNL     1       1.441   6.966  20.413  0.00  0.00    +0.000 C 
BRANCH  18  19
ATOM     19  C   UNL     1       2.509   6.191  19.650  0.00  0.00    +0.000 A 
ATOM     20  C   UNL     1       3.224   6.881  18.650  0.00  0.00    +0.000 A 
ATOM     21  C   UNL     1       4.239   6.265  17.912  0.00  0.00    +0.000 A 
ATOM     22  C   UNL     1       4.546   4.928  18.140  0.00  0.00    +0.000 A 
ATOM     23  C   UNL     1       3.829   4.207  19.088  0.00  0.00    +0.000 A 
ATOM     24  C   UNL     1       2.816   4.825  19.873  0.00  0.00    +0.000 A 
BRANCH  24  25
ATOM     25  C   UNL     1       2.143   3.961  20.921  0.00  0.00    +0.000 C 
ATOM     26  F   UNL     1       2.411   4.293  22.213  0.00  0.00    +0.000 F 
ATOM     27  F   UNL     1       0.784   3.998  20.820  0.00  0.00    +0.000 F 
ATOM     28  F   UNL     1       2.488   2.648  20.810  0.00  0.00    +0.000 F 
ENDBRANCH  24  25
BRANCH  22  29
ATOM     29  N   UNL     1       5.634   4.371  17.415  0.00  0.00    +0.000 N 
ATOM     30  H   UNL     1       5.615   3.374  17.204  0.00  0.00    +0.000 HD
BRANCH  29  31
ATOM     31  S   UNL     1       7.192   4.908  17.782  0.00  0.00    +0.000 S 
ATOM     32  C   UNL     1       7.084   6.624  17.327  0.00  0.00    +0.000 C 
ATOM     33  O   UNL     1       7.439   4.800  19.205  0.00  0.00    +0.000 OA
ATOM     34  O   UNL     1       8.062   4.265  16.818  0.00  0.00    +0.000 OA
ENDBRANCH  29  31
ENDBRANCH  22  29
ENDBRANCH  18  19
ENDBRANCH   3  18
TORSDOF 9
ENDMDL
MODEL 8
REMARK VINA RESULT:      -7.8      1.165      1.686
REMARK  Name = 
REMARK  13 active torsions:
REMARK  status: ('A' for Active; 'I' for Inactive)
REMARK    1  A    between atoms: C_1  and  C_2
REMARK    2  A    between atoms: C_2  and  C_3
REMARK    3  A    between atoms: C_2  and  C_4
REMARK    4  A    between atoms: C_2  and  C_5
REMARK    5  A    between atoms: C_8  and  C_9
REMARK    6  A    between atoms: C_9  and  N_10
REMARK    7  A    between atoms: C_11  and  S_12
REMARK    8  A    between atoms: N_13  and  C_14
REMARK    9  A    between atoms: C_14  and  C_15
REMARK   10  A    between atoms: C_18  and  N_19
REMARK   11  A    between atoms: N_19  and  S_20
REMARK   12  A    between atoms: S_20  and  C_21
REMARK   13  A    between atoms: C_25  and  C_26
REMARK                            x       y       z     vdW  Elec       q    Type
REMARK                         _______ _______ _______ _____ _____    ______ ____
ROOT
ATOM      1  N   UNL     1       1.010  10.685  20.771  0.00  0.00    +0.000 NA
ATOM      2  C   UNL     1       0.890   9.533  21.315  0.00  0.00    +0.000 C 
ATOM      3  N   UNL     1       1.699   8.523  20.885  0.00  0.00    +0.000 N 
ATOM      4  H   UNL     1       2.581   8.839  20.500  0.00  0.00    +0.000 HD
ENDROOT
BRANCH   2   5
ATOM      5  S   UNL     1      -0.180   9.143  22.656  0.00  0.00    +0.000 S 
ATOM      6  H   UNL     1      -1.140   8.508  21.982  0.00  0.00    +0.000 HD
ENDBRANCH   2   5
BRANCH   1   7
ATOM      7  C   UNL     1       0.158  11.804  21.139  0.00  0.00    +0.000 C 
BRANCH   7  11
ATOM      8  C   UNL     1      -3.603  11.857  18.938  0.00  0.00    +0.000 A 
ATOM      9  C   UNL     1      -2.463  11.177  18.466  0.00  0.00    +0.000 A 
ATOM     10  C   UNL     1      -1.265  11.168  19.180  0.00  0.00    +0.000 A 
ATOM     11  C   UNL     1      -1.147  11.867  20.382  0.00  0.00    +0.000 A 
ATOM     12  C   UNL     1      -2.268  12.543  20.872  0.00  0.00    +0.000 A 
ATOM     13  C   UNL     1      -3.474  12.544  20.157  0.00  0.00    +0.000 A 
BRANCH   8  15
ATOM     14  C   UNL     1      -5.786  13.094  18.462  0.00  0.00    +0.000 C 
ATOM     15  C   UNL     1      -4.938  11.835  18.172  0.00  0.00    +0.000 C 
ATOM     16  C   UNL     1      -5.786  10.603  18.554  0.00  0.00    +0.000 C 
ATOM     17  C   UNL     1      -4.685  11.781  16.649  0.00  0.00    +0.000 C 
ENDBRANCH   8  15
ENDBRANCH   7  11
ENDBRANCH   1   7
BRANCH   3  18
ATOM     18  C   UNL     1       1.456   7.105  20.868  0.00  0.00    +0.000 C 
BRANCH  18  19
ATOM     19  C   UNL     1       2.242   6.412  19.762  0.00  0.00    +0.000 A 
ATOM     20  C   UNL     1       2.813   7.226  18.762  0.00  0.00    +0.000 A 
ATOM     21  C   UNL     1       3.572   6.687  17.718  0.00  0.00    +0.000 A 
ATOM     22  C   UNL     1       3.755   5.311  17.635  0.00  0.00    +0.000 A 
ATOM     23  C   UNL     1       3.167   4.478  18.579  0.00  0.00    +0.000 A 
ATOM     24  C   UNL     1       2.420   5.009  19.668  0.00  0.00    +0.000 A 
BRANCH  24  25
ATOM     25  C   UNL     1       1.877   4.012  20.673  0.00  0.00    +0.000 C 
ATOM     26  F   UNL     1       2.226   2.715  20.457  0.00  0.00    +0.000 F 
ATOM     27  F   UNL     1       2.294   4.285  21.942  0.00  0.00    +0.000 F 
ATOM     28  F   UNL     1       0.516   4.014  20.721  0.00  0.00    +0.000 F 
ENDBRANCH  24  25
BRANCH  22  29
ATOM     29  N   UNL     1       4.594   4.821  16.598  0.00  0.00    +0.000 N 
ATOM     30  H   UNL     1       4.448   3.868  16.266  0.00  0.00    +0.000 HD
BRANCH  29  31
ATOM     31  S   UNL     1       6.232   5.231  16.640  0.00  0.00    +0.000 S 
ATOM     32  C   UNL     1       6.848   4.342  15.228  0.00  0.00    +0.000 C 
ATOM     33  O   UNL     1       6.399   6.653  16.425  0.00  0.00    +0.000 OA
ATOM     34  O   UNL     1       6.765   4.581  17.820  0.00  0.00    +0.000 OA
ENDBRANCH  29  31
ENDBRANCH  22  29
ENDBRANCH  18  19
ENDBRANCH   3  18
TORSDOF 9
ENDMDL
MODEL 9
REMARK VINA RESULT:      -7.8      1.151      1.424
REMARK  Name = 
REMARK  13 active torsions:
REMARK  status: ('A' for Active; 'I' for Inactive)
REMARK    1  A    between atoms: C_1  and  C_2
REMARK    2  A    between atoms: C_2  and  C_3
REMARK    3  A    between atoms: C_2  and  C_4
REMARK    4  A    between atoms: C_2  and  C_5
REMARK    5  A    between atoms: C_8  and  C_9
REMARK    6  A    between atoms: C_9  and  N_10
REMARK    7  A    between atoms: C_11  and  S_12
REMARK    8  A    between atoms: N_13  and  C_14
REMARK    9  A    between atoms: C_14  and  C_15
REMARK   10  A    between atoms: C_18  and  N_19
REMARK   11  A    between atoms: N_19  and  S_20
REMARK   12  A    between atoms: S_20  and  C_21
REMARK   13  A    between atoms: C_25  and  C_26
REMARK                            x       y       z     vdW  Elec       q    Type
REMARK                         _______ _______ _______ _____ _____    ______ ____
ROOT
ATOM      1  N   UNL     1       0.600  10.505  19.770  0.00  0.00    +0.000 NA
ATOM      2  C   UNL     1       0.989   9.533  20.506  0.00  0.00    +0.000 C 
ATOM      3  N   UNL     1       1.649   8.495  19.918  0.00  0.00    +0.000 N 
ATOM      4  H   UNL     1       2.141   8.749  19.070  0.00  0.00    +0.000 HD
ENDROOT
BRANCH   2   5
ATOM      5  S   UNL     1       0.831   9.452  22.256  0.00  0.00    +0.000 S 
ATOM      6  H   UNL     1      -0.266   8.698  22.334  0.00  0.00    +0.000 HD
ENDBRANCH   2   5
BRANCH   1   7
ATOM      7  C   UNL     1      -0.146  11.630  20.308  0.00  0.00    +0.000 C 
BRANCH   7  11
ATOM      8  C   UNL     1      -4.277  11.986  18.964  0.00  0.00    +0.000 A 
ATOM      9  C   UNL     1      -3.821  12.571  20.162  0.00  0.00    +0.000 A 
ATOM     10  C   UNL     1      -2.497  12.449  20.581  0.00  0.00    +0.000 A 
ATOM     11  C   UNL     1      -1.578  11.709  19.835  0.00  0.00    +0.000 A 
ATOM     12  C   UNL     1      -2.008  11.127  18.639  0.00  0.00    +0.000 A 
ATOM     13  C   UNL     1      -3.339  11.257  18.215  0.00  0.00    +0.000 A 
BRANCH   8  15
ATOM     14  C   UNL     1      -5.796  12.469  16.969  0.00  0.00    +0.000 C 
ATOM     15  C   UNL     1      -5.729  12.152  18.480  0.00  0.00    +0.000 C 
ATOM     16  C   UNL     1      -6.444  13.296  19.229  0.00  0.00    +0.000 C 
ATOM     17  C   UNL     1      -6.530  10.854  18.723  0.00  0.00    +0.000 C 
ENDBRANCH   8  15
ENDBRANCH   7  11
ENDBRANCH   1   7
BRANCH   3  18
ATOM     18  C   UNL     1       1.703   7.112  20.310  0.00  0.00    +0.000 C 
BRANCH  18  19
ATOM     19  C   UNL     1       2.504   6.277  19.318  0.00  0.00    +0.000 A 
ATOM     20  C   UNL     1       3.273   6.967  18.358  0.00  0.00    +0.000 A 
ATOM     21  C   UNL     1       4.060   6.290  17.421  0.00  0.00    +0.000 A 
ATOM     22  C   UNL     1       4.074   4.900  17.404  0.00  0.00    +0.000 A 
ATOM     23  C   UNL     1       3.292   4.190  18.307  0.00  0.00    +0.000 A 
ATOM     24  C   UNL     1       2.511   4.859  19.291  0.00  0.00    +0.000 A 
BRANCH  24  25
ATOM     25  C   UNL     1       1.746   3.985  20.265  0.00  0.00    +0.000 C 
ATOM     26  F   UNL     1       2.085   4.135  21.575  0.00  0.00    +0.000 F 
ATOM     27  F   UNL     1       0.404   4.217  20.218  0.00  0.00    +0.000 F 
ATOM     28  F   UNL     1       1.904   2.658  20.004  0.00  0.00    +0.000 F 
ENDBRANCH  24  25
BRANCH  22  29
ATOM     29  N   UNL     1       4.946   4.263  16.480  0.00  0.00    +0.000 N 
ATOM     30  H   UNL     1       5.356   3.367  16.739  0.00  0.00    +0.000 HD
BRANCH  29  31
ATOM     31  S   UNL     1       6.032   5.228  15.617  0.00  0.00    +0.000 S 
ATOM     32  C   UNL     1       6.522   4.119  14.315  0.00  0.00    +0.000 C 
ATOM     33  O   UNL     1       5.346   6.369  15.047  0.00  0.00    +0.000 OA
ATOM     34  O   UNL     1       7.178   5.397  16.487  0.00  0.00    +0.000 OA
ENDBRANCH  29  31
ENDBRANCH  22  29
ENDBRANCH  18  19
ENDBRANCH   3  18
TORSDOF 9
ENDMDL
