MODEL 1
REMARK VINA RESULT:      -7.7      0.000      0.000
REMARK  Name = 
REMARK  13 active torsions:
REMARK  status: ('A' for Active; 'I' for Inactive)
REMARK    1  A    between atoms: C_1  and  C_2
REMARK    2  A    between atoms: C_6  and  C_7
REMARK    3  A    between atoms: C_10  and  N_11
REMARK    4  A    between atoms: C_12  and  C_14
REMARK    5  A    between atoms: C_14  and  C_15
REMARK    6  A    between atoms: C_15  and  C_16
REMARK    7  A    between atoms: C_16  and  C_17
REMARK    8  A    between atoms: C_17  and  C_18
REMARK    9  A    between atoms: C_18  and  C_19
REMARK   10  A    between atoms: C_19  and  C_20
REMARK   11  A    between atoms: C_20  and  C_21
REMARK   12  A    between atoms: C_21  and  C_22
REMARK   13  A    between atoms: N_24  and  O_25
REMARK                            x       y       z     vdW  Elec       q    Type
REMARK                         _______ _______ _______ _____ _____    ______ ____
ROOT
ATOM      1  N   UNL     1       3.515   3.910  18.684  0.00  0.00    +0.000 N 
ATOM      2  C   UNL     1       2.443   3.276  18.080  0.00  0.00    +0.000 C 
ATOM      3  O   UNL     1       2.227   3.296  16.874  0.00  0.00    +0.000 OA
ATOM      4  H   UNL     1       3.633   3.838  19.684  0.00  0.00    +0.000 HD
ENDROOT
BRANCH   1  14
ATOM      5  C   UNL     1       6.404   3.723  14.639  0.00  0.00    +0.000 C 
ATOM      6  C   UNL     1       5.991   4.585  15.835  0.00  0.00    +0.000 C 
ATOM      7  C   UNL     1       5.320   5.891  15.353  0.00  0.00    +0.000 C 
ATOM      8  C   UNL     1       4.910   6.763  16.549  0.00  0.00    +0.000 C 
ATOM      9  C   UNL     1       6.140   7.091  17.402  0.00  0.00    +0.000 C 
ATOM     10  C   UNL     1       6.793   5.791  17.923  0.00  0.00    +0.000 C 
ATOM     11  C   UNL     1       8.023   6.133  18.768  0.00  0.00    +0.000 C 
ATOM     12  C   UNL     1       7.215   4.936  16.705  0.00  0.00    +0.000 C 
ATOM     13  C   UNL     1       5.748   5.001  18.760  0.00  0.00    +0.000 C 
ATOM     14  C   UNL     1       4.498   4.658  17.898  0.00  0.00    +0.000 C 
ATOM     15  C   UNL     1       3.897   5.998  17.406  0.00  0.00    +0.000 C 
ATOM     16  C   UNL     1       4.988   3.806  16.703  0.00  0.00    +0.000 C 
ENDBRANCH   1  14
BRANCH   2  17
ATOM     17  C   UNL     1       1.531   2.553  19.041  0.00  0.00    +0.000 C 
BRANCH  17  18
ATOM     18  C   UNL     1       1.481   3.316  20.369  0.00  0.00    +0.000 C 
BRANCH  18  19
ATOM     19  C   UNL     1       0.801   4.675  20.272  0.00  0.00    +0.000 C 
BRANCH  19  20
ATOM     20  C   UNL     1       1.595   5.764  20.985  0.00  0.00    +0.000 C 
BRANCH  20  21
ATOM     21  C   UNL     1       1.962   6.886  20.024  0.00  0.00    +0.000 C 
BRANCH  21  22
ATOM     22  C   UNL     1       1.503   8.233  20.574  0.00  0.00    +0.000 C 
BRANCH  22  23
ATOM     23  C   UNL     1       1.061   9.139  19.434  0.00  0.00    +0.000 C 
BRANCH  23  24
ATOM     24  C   UNL     1      -0.280   9.804  19.729  0.00  0.00    +0.000 C 
BRANCH  24  25
ATOM     25  C   UNL     1      -0.283  11.245  19.274  0.00  0.00    +0.000 C 
ATOM     26  O   UNL     1       0.180  12.183  19.918  0.00  0.00    +0.000 OA
ATOM     27  N   UNL     1      -0.857  11.431  18.043  0.00  0.00    +0.000 N 
ATOM     28  H   UNL     1      -1.328  10.719  17.496  0.00  0.00    +0.000 HD
BRANCH  27  29
ATOM     29  O   UNL     1      -0.923  12.762  17.579  0.00  0.00    +0.000 OA
ATOM     30  H   UNL     1      -0.155  12.804  16.965  0.00  0.00    +0.000 HD
ENDBRANCH  27  29
ENDBRANCH  24  25
ENDBRANCH  23  24
ENDBRANCH  22  23
ENDBRANCH  21  22
ENDBRANCH  20  21
ENDBRANCH  19  20
ENDBRANCH  18  19
ENDBRANCH  17  18
ENDBRANCH   2  17
TORSDOF 11
ENDMDL
MODEL 2
REMARK VINA RESULT:      -7.6      1.664      1.823
REMARK  Name = 
REMARK  13 active torsions:
REMARK  status: ('A' for Active; 'I' for Inactive)
REMARK    1  A    between atoms: C_1  and  C_2
REMARK    2  A    between atoms: C_6  and  C_7
REMARK    3  A    between atoms: C_10  and  N_11
REMARK    4  A    between atoms: C_12  and  C_14
REMARK    5  A    between atoms: C_14  and  C_15
REMARK    6  A    between atoms: C_15  and  C_16
REMARK    7  A    between atoms: C_16  and  C_17
REMARK    8  A    between atoms: C_17  and  C_18
REMARK    9  A    between atoms: C_18  and  C_19
REMARK   10  A    between atoms: C_19  and  C_20
REMARK   11  A    between atoms: C_20  and  C_21
REMARK   12  A    between atoms: C_21  and  C_22
REMARK   13  A    between atoms: N_24  and  O_25
REMARK                            x       y       z     vdW  Elec       q    Type
REMARK                         _______ _______ _______ _____ _____    ______ ____
ROOT
ATOM      1  N   UNL     1       4.006   3.460  18.462  0.00  0.00    +0.000 N 
ATOM      2  C   UNL     1       2.888   2.858  17.912  0.00  0.00    +0.000 C 
ATOM      3  O   UNL     1       2.454   3.110  16.794  0.00  0.00    +0.000 OA
ATOM      4  H   UNL     1       4.309   3.191  19.387  0.00  0.00    +0.000 HD
ENDROOT
BRANCH   1  14
ATOM      5  C   UNL     1       6.615   4.237  14.298  0.00  0.00    +0.000 C 
ATOM      6  C   UNL     1       6.121   4.881  15.597  0.00  0.00    +0.000 C 
ATOM      7  C   UNL     1       5.182   6.069  15.286  0.00  0.00    +0.000 C 
ATOM      8  C   UNL     1       4.690   6.724  16.585  0.00  0.00    +0.000 C 
ATOM      9  C   UNL     1       5.886   7.204  17.414  0.00  0.00    +0.000 C 
ATOM     10  C   UNL     1       6.807   6.015  17.765  0.00  0.00    +0.000 C 
ATOM     11  C   UNL     1       8.001   6.509  18.587  0.00  0.00    +0.000 C 
ATOM     12  C   UNL     1       7.307   5.381  16.445  0.00  0.00    +0.000 C 
ATOM     13  C   UNL     1       5.989   4.958  18.557  0.00  0.00    +0.000 C 
ATOM     14  C   UNL     1       4.776   4.459  17.719  0.00  0.00    +0.000 C 
ATOM     15  C   UNL     1       3.899   5.696  17.399  0.00  0.00    +0.000 C 
ATOM     16  C   UNL     1       5.342   3.840  16.419  0.00  0.00    +0.000 C 
ENDBRANCH   1  14
BRANCH   2  17
ATOM     17  C   UNL     1       2.218   1.853  18.818  0.00  0.00    +0.000 C 
BRANCH  17  18
ATOM     18  C   UNL     1       1.020   2.510  19.510  0.00  0.00    +0.000 C 
BRANCH  18  19
ATOM     19  C   UNL     1       0.993   4.027  19.385  0.00  0.00    +0.000 C 
BRANCH  19  20
ATOM     20  C   UNL     1       1.219   4.717  20.725  0.00  0.00    +0.000 C 
BRANCH  20  21
ATOM     21  C   UNL     1       2.322   5.761  20.620  0.00  0.00    +0.000 C 
BRANCH  21  22
ATOM     22  C   UNL     1       1.752   7.093  20.140  0.00  0.00    +0.000 C 
BRANCH  22  23
ATOM     23  C   UNL     1       1.551   8.031  21.321  0.00  0.00    +0.000 C 
BRANCH  23  24
ATOM     24  C   UNL     1       0.203   8.740  21.256  0.00  0.00    +0.000 C 
BRANCH  24  25
ATOM     25  C   UNL     1       0.291  10.130  21.843  0.00  0.00    +0.000 C 
ATOM     26  O   UNL     1       1.196  10.929  21.615  0.00  0.00    +0.000 OA
ATOM     27  N   UNL     1      -0.754  10.443  22.673  0.00  0.00    +0.000 N 
ATOM     28  H   UNL     1      -1.488   9.807  22.966  0.00  0.00    +0.000 HD
BRANCH  27  29
ATOM     29  O   UNL     1      -0.710  11.715  23.281  0.00  0.00    +0.000 OA
ATOM     30  H   UNL     1      -0.885  11.498  24.226  0.00  0.00    +0.000 HD
ENDBRANCH  27  29
ENDBRANCH  24  25
ENDBRANCH  23  24
ENDBRANCH  22  23
ENDBRANCH  21  22
ENDBRANCH  20  21
ENDBRANCH  19  20
ENDBRANCH  18  19
ENDBRANCH  17  18
ENDBRANCH   2  17
TORSDOF 11
ENDMDL
MODEL 3
REMARK VINA RESULT:      -7.5      5.410      7.811
REMARK  Name = 
REMARK  13 active torsions:
REMARK  status: ('A' for Active; 'I' for Inactive)
REMARK    1  A    between atoms: C_1  and  C_2
REMARK    2  A    between atoms: C_6  and  C_7
REMARK    3  A    between atoms: C_10  and  N_11
REMARK    4  A    between atoms: C_12  and  C_14
REMARK    5  A    between atoms: C_14  and  C_15
REMARK    6  A    between atoms: C_15  and  C_16
REMARK    7  A    between atoms: C_16  and  C_17
REMARK    8  A    between atoms: C_17  and  C_18
REMARK    9  A    between atoms: C_18  and  C_19
REMARK   10  A    between atoms: C_19  and  C_20
REMARK   11  A    between atoms: C_20  and  C_21
REMARK   12  A    between atoms: C_21  and  C_22
REMARK   13  A    between atoms: N_24  and  O_25
REMARK                            x       y       z     vdW  Elec       q    Type
REMARK                         _______ _______ _______ _____ _____    ______ ____
ROOT
ATOM      1  N   UNL     1       5.389   5.751  17.598  0.00  0.00    +0.000 N 
ATOM      2  C   UNL     1       6.605   5.966  18.224  0.00  0.00    +0.000 C 
ATOM      3  O   UNL     1       6.925   5.457  19.293  0.00  0.00    +0.000 OA
ATOM      4  H   UNL     1       5.203   6.197  16.712  0.00  0.00    +0.000 HD
ENDROOT
BRANCH   1  14
ATOM      5  C   UNL     1       1.459   5.600  20.644  0.00  0.00    +0.000 C 
ATOM      6  C   UNL     1       2.367   4.761  19.741  0.00  0.00    +0.000 C 
ATOM      7  C   UNL     1       1.553   4.142  18.582  0.00  0.00    +0.000 C 
ATOM      8  C   UNL     1       2.457   3.293  17.677  0.00  0.00    +0.000 C 
ATOM      9  C   UNL     1       3.126   2.185  18.498  0.00  0.00    +0.000 C 
ATOM     10  C   UNL     1       3.976   2.797  19.633  0.00  0.00    +0.000 C 
ATOM     11  C   UNL     1       4.633   1.680  20.448  0.00  0.00    +0.000 C 
ATOM     12  C   UNL     1       3.045   3.632  20.543  0.00  0.00    +0.000 C 
ATOM     13  C   UNL     1       5.050   3.733  19.011  0.00  0.00    +0.000 C 
ATOM     14  C   UNL     1       4.379   4.866  18.181  0.00  0.00    +0.000 C 
ATOM     15  C   UNL     1       3.542   4.187  17.068  0.00  0.00    +0.000 C 
ATOM     16  C   UNL     1       3.465   5.659  19.146  0.00  0.00    +0.000 C 
ENDBRANCH   1  14
BRANCH   2  17
ATOM     17  C   UNL     1       7.525   6.905  17.482  0.00  0.00    +0.000 C 
BRANCH  17  18
ATOM     18  C   UNL     1       8.221   7.833  18.483  0.00  0.00    +0.000 C 
BRANCH  18  19
ATOM     19  C   UNL     1       8.294   9.284  18.029  0.00  0.00    +0.000 C 
BRANCH  19  20
ATOM     20  C   UNL     1       9.180  10.126  18.941  0.00  0.00    +0.000 C 
BRANCH  20  21
ATOM     21  C   UNL     1       9.968  11.150  18.138  0.00  0.00    +0.000 C 
BRANCH  21  22
ATOM     22  C   UNL     1      11.228  11.567  18.893  0.00  0.00    +0.000 C 
BRANCH  22  23
ATOM     23  C   UNL     1      10.896  12.661  19.898  0.00  0.00    +0.000 C 
BRANCH  23  24
ATOM     24  C   UNL     1      11.507  13.999  19.496  0.00  0.00    +0.000 C 
BRANCH  24  25
ATOM     25  C   UNL     1      10.795  14.583  18.298  0.00  0.00    +0.000 C 
ATOM     26  O   UNL     1       9.589  14.814  18.244  0.00  0.00    +0.000 OA
ATOM     27  N   UNL     1      11.626  14.848  17.240  0.00  0.00    +0.000 N 
ATOM     28  H   UNL     1      12.610  14.610  17.188  0.00  0.00    +0.000 HD
BRANCH  27  29
ATOM     29  O   UNL     1      11.014  15.361  16.077  0.00  0.00    +0.000 OA
ATOM     30  H   UNL     1      10.326  15.957  16.452  0.00  0.00    +0.000 HD
ENDBRANCH  27  29
ENDBRANCH  24  25
ENDBRANCH  23  24
ENDBRANCH  22  23
ENDBRANCH  21  22
ENDBRANCH  20  21
ENDBRANCH  19  20
ENDBRANCH  18  19
ENDBRANCH  17  18
ENDBRANCH   2  17
TORSDOF 11
ENDMDL
MODEL 4
REMARK VINA RESULT:      -7.5      1.162      2.426
REMARK  Name = 
REMARK  13 active torsions:
REMARK  status: ('A' for Active; 'I' for Inactive)
REMARK    1  A    between atoms: C_1  and  C_2
REMARK    2  A    between atoms: C_6  and  C_7
REMARK    3  A    between atoms: C_10  and  N_11
REMARK    4  A    between atoms: C_12  and  C_14
REMARK    5  A    between atoms: C_14  and  C_15
REMARK    6  A    between atoms: C_15  and  C_16
REMARK    7  A    between atoms: C_16  and  C_17
REMARK    8  A    between atoms: C_17  and  C_18
REMARK    9  A    between atoms: C_18  and  C_19
REMARK   10  A    between atoms: C_19  and  C_20
REMARK   11  A    between atoms: C_20  and  C_21
REMARK   12  A    between atoms: C_21  and  C_22
REMARK   13  A    between atoms: N_24  and  O_25
REMARK                            x       y       z     vdW  Elec       q    Type
REMARK                         _______ _______ _______ _____ _____    ______ ____
ROOT
ATOM      1  N   UNL     1       3.733   3.153  18.366  0.00  0.00    +0.000 N 
ATOM      2  C   UNL     1       2.477   2.997  17.805  0.00  0.00    +0.000 C 
ATOM      3  O   UNL     1       2.123   3.531  16.759  0.00  0.00    +0.000 OA
ATOM      4  H   UNL     1       3.954   2.671  19.225  0.00  0.00    +0.000 HD
ENDROOT
BRANCH   1  14
ATOM      5  C   UNL     1       7.840   5.832  19.202  0.00  0.00    +0.000 C 
ATOM      6  C   UNL     1       6.859   5.360  18.125  0.00  0.00    +0.000 C 
ATOM      7  C   UNL     1       7.586   4.484  17.079  0.00  0.00    +0.000 C 
ATOM      8  C   UNL     1       6.609   4.013  15.992  0.00  0.00    +0.000 C 
ATOM      9  C   UNL     1       5.968   5.225  15.306  0.00  0.00    +0.000 C 
ATOM     10  C   UNL     1       5.203   6.083  16.338  0.00  0.00    +0.000 C 
ATOM     11  C   UNL     1       4.574   7.293  15.641  0.00  0.00    +0.000 C 
ATOM     12  C   UNL     1       6.208   6.562  17.413  0.00  0.00    +0.000 C 
ATOM     13  C   UNL     1       4.115   5.206  17.017  0.00  0.00    +0.000 C 
ATOM     14  C   UNL     1       4.757   3.977  17.723  0.00  0.00    +0.000 C 
ATOM     15  C   UNL     1       5.509   3.166  16.638  0.00  0.00    +0.000 C 
ATOM     16  C   UNL     1       5.747   4.524  18.780  0.00  0.00    +0.000 C 
ENDBRANCH   1  14
BRANCH   2  17
ATOM     17  C   UNL     1       1.549   2.113  18.602  0.00  0.00    +0.000 C 
BRANCH  17  18
ATOM     18  C   UNL     1       1.523   2.584  20.059  0.00  0.00    +0.000 C 
BRANCH  18  19
ATOM     19  C   UNL     1       0.979   3.995  20.241  0.00  0.00    +0.000 C 
BRANCH  19  20
ATOM     20  C   UNL     1       1.980   4.908  20.942  0.00  0.00    +0.000 C 
BRANCH  20  21
ATOM     21  C   UNL     1       1.719   6.367  20.594  0.00  0.00    +0.000 C 
BRANCH  21  22
ATOM     22  C   UNL     1       2.681   6.837  19.506  0.00  0.00    +0.000 C 
BRANCH  22  23
ATOM     23  C   UNL     1       1.900   7.337  18.299  0.00  0.00    +0.000 C 
BRANCH  23  24
ATOM     24  C   UNL     1       2.219   8.795  17.986  0.00  0.00    +0.000 C 
BRANCH  24  25
ATOM     25  C   UNL     1       1.152   9.714  18.535  0.00  0.00    +0.000 C 
ATOM     26  O   UNL     1       1.095  10.103  19.698  0.00  0.00    +0.000 OA
ATOM     27  N   UNL     1       0.224  10.098  17.601  0.00  0.00    +0.000 N 
ATOM     28  H   UNL     1       0.166   9.753  16.649  0.00  0.00    +0.000 HD
BRANCH  27  29
ATOM     29  O   UNL     1      -0.820  10.928  18.062  0.00  0.00    +0.000 OA
ATOM     30  H   UNL     1      -1.383  10.292  18.560  0.00  0.00    +0.000 HD
ENDBRANCH  27  29
ENDBRANCH  24  25
ENDBRANCH  23  24
ENDBRANCH  22  23
ENDBRANCH  21  22
ENDBRANCH  20  21
ENDBRANCH  19  20
ENDBRANCH  18  19
ENDBRANCH  17  18
ENDBRANCH   2  17
TORSDOF 11
ENDMDL
MODEL 5
REMARK VINA RESULT:      -7.4      4.817      7.261
REMARK  Name = 
REMARK  13 active torsions:
REMARK  status: ('A' for Active; 'I' for Inactive)
REMARK    1  A    between atoms: C_1  and  C_2
REMARK    2  A    between atoms: C_6  and  C_7
REMARK    3  A    between atoms: C_10  and  N_11
REMARK    4  A    between atoms: C_12  and  C_14
REMARK    5  A    between atoms: C_14  and  C_15
REMARK    6  A    between atoms: C_15  and  C_16
REMARK    7  A    between atoms: C_16  and  C_17
REMARK    8  A    between atoms: C_17  and  C_18
REMARK    9  A    between atoms: C_18  and  C_19
REMARK   10  A    between atoms: C_19  and  C_20
REMARK   11  A    between atoms: C_20  and  C_21
REMARK   12  A    between atoms: C_21  and  C_22
REMARK   13  A    between atoms: N_24  and  O_25
REMARK                            x       y       z     vdW  Elec       q    Type
REMARK                         _______ _______ _______ _____ _____    ______ ____
ROOT
ATOM      1  N   UNL     1       4.265   5.304  17.148  0.00  0.00    +0.000 N 
ATOM      2  C   UNL     1       5.396   5.043  16.393  0.00  0.00    +0.000 C 
ATOM      3  O   UNL     1       5.938   3.945  16.330  0.00  0.00    +0.000 OA
ATOM      4  H   UNL     1       3.869   6.233  17.140  0.00  0.00    +0.000 HD
ENDROOT
BRANCH   1  14
ATOM      5  C   UNL     1       0.747   4.435  20.555  0.00  0.00    +0.000 C 
ATOM      6  C   UNL     1       1.822   3.783  19.682  0.00  0.00    +0.000 C 
ATOM      7  C   UNL     1       1.181   2.781  18.695  0.00  0.00    +0.000 C 
ATOM      8  C   UNL     1       2.255   2.118  17.821  0.00  0.00    +0.000 C 
ATOM      9  C   UNL     1       3.279   1.399  18.707  0.00  0.00    +0.000 C 
ATOM     10  C   UNL     1       3.955   2.403  19.667  0.00  0.00    +0.000 C 
ATOM     11  C   UNL     1       4.970   1.671  20.550  0.00  0.00    +0.000 C 
ATOM     12  C   UNL     1       2.859   3.045  20.550  0.00  0.00    +0.000 C 
ATOM     13  C   UNL     1       4.648   3.514  18.830  0.00  0.00    +0.000 C 
ATOM     14  C   UNL     1       3.614   4.254  17.933  0.00  0.00    +0.000 C 
ATOM     15  C   UNL     1       2.973   3.195  17.002  0.00  0.00    +0.000 C 
ATOM     16  C   UNL     1       2.551   4.870  18.874  0.00  0.00    +0.000 C 
ENDBRANCH   1  14
BRANCH   2  17
ATOM     17  C   UNL     1       5.932   6.240  15.648  0.00  0.00    +0.000 C 
BRANCH  17  18
ATOM     18  C   UNL     1       6.568   7.217  16.642  0.00  0.00    +0.000 C 
BRANCH  18  19
ATOM     19  C   UNL     1       7.294   6.536  17.795  0.00  0.00    +0.000 C 
BRANCH  19  20
ATOM     20  C   UNL     1       8.217   7.496  18.537  0.00  0.00    +0.000 C 
BRANCH  20  21
ATOM     21  C   UNL     1       8.140   8.894  17.940  0.00  0.00    +0.000 C 
BRANCH  21  22
ATOM     22  C   UNL     1       8.975   9.872  18.761  0.00  0.00    +0.000 C 
BRANCH  22  23
ATOM     23  C   UNL     1       9.784  10.772  17.837  0.00  0.00    +0.000 C 
BRANCH  23  24
ATOM     24  C   UNL     1       9.757  12.225  18.299  0.00  0.00    +0.000 C 
BRANCH  24  25
ATOM     25  C   UNL     1      10.784  13.049  17.557  0.00  0.00    +0.000 C 
ATOM     26  O   UNL     1      11.987  12.805  17.526  0.00  0.00    +0.000 OA
ATOM     27  N   UNL     1      10.249  14.124  16.895  0.00  0.00    +0.000 N 
ATOM     28  H   UNL     1       9.283  14.428  16.942  0.00  0.00    +0.000 HD
BRANCH  27  29
ATOM     29  O   UNL     1      11.164  14.955  16.212  0.00  0.00    +0.000 OA
ATOM     30  H   UNL     1      10.690  15.131  15.367  0.00  0.00    +0.000 HD
ENDBRANCH  27  29
ENDBRANCH  24  25
ENDBRANCH  23  24
ENDBRANCH  22  23
ENDBRANCH  21  22
ENDBRANCH  20  21
ENDBRANCH  19  20
ENDBRANCH  18  19
ENDBRANCH  17  18
ENDBRANCH   2  17
TORSDOF 11
ENDMDL
MODEL 6
REMARK VINA RESULT:      -7.3      5.386      7.753
REMARK  Name = 
REMARK  13 active torsions:
REMARK  status: ('A' for Active; 'I' for Inactive)
REMARK    1  A    between atoms: C_1  and  C_2
REMARK    2  A    between atoms: C_6  and  C_7
REMARK    3  A    between atoms: C_10  and  N_11
REMARK    4  A    between atoms: C_12  and  C_14
REMARK    5  A    between atoms: C_14  and  C_15
REMARK    6  A    between atoms: C_15  and  C_16
REMARK    7  A    between atoms: C_16  and  C_17
REMARK    8  A    between atoms: C_17  and  C_18
REMARK    9  A    between atoms: C_18  and  C_19
REMARK   10  A    between atoms: C_19  and  C_20
REMARK   11  A    between atoms: C_20  and  C_21
REMARK   12  A    between atoms: C_21  and  C_22
REMARK   13  A    between atoms: N_24  and  O_25
REMARK                            x       y       z     vdW  Elec       q    Type
REMARK                         _______ _______ _______ _____ _____    ______ ____
ROOT
ATOM      1  N   UNL     1       5.493   5.744  18.901  0.00  0.00    +0.000 N 
ATOM      2  C   UNL     1       6.731   5.494  18.333  0.00  0.00    +0.000 C 
ATOM      3  O   UNL     1       6.992   4.494  17.673  0.00  0.00    +0.000 OA
ATOM      4  H   UNL     1       5.351   6.597  19.422  0.00  0.00    +0.000 HD
ENDROOT
BRANCH   1  14
ATOM      5  C   UNL     1       0.972   4.551  20.599  0.00  0.00    +0.000 C 
ATOM      6  C   UNL     1       2.063   4.176  19.592  0.00  0.00    +0.000 C 
ATOM      7  C   UNL     1       1.535   4.317  18.146  0.00  0.00    +0.000 C 
ATOM      8  C   UNL     1       2.623   3.935  17.132  0.00  0.00    +0.000 C 
ATOM      9  C   UNL     1       3.087   2.496  17.382  0.00  0.00    +0.000 C 
ATOM     10  C   UNL     1       3.656   2.356  18.811  0.00  0.00    +0.000 C 
ATOM     11  C   UNL     1       4.110   0.914  19.050  0.00  0.00    +0.000 C 
ATOM     12  C   UNL     1       2.540   2.728  19.817  0.00  0.00    +0.000 C 
ATOM     13  C   UNL     1       4.842   3.346  18.982  0.00  0.00    +0.000 C 
ATOM     14  C   UNL     1       4.378   4.811  18.737  0.00  0.00    +0.000 C 
ATOM     15  C   UNL     1       3.817   4.880  17.294  0.00  0.00    +0.000 C 
ATOM     16  C   UNL     1       3.267   5.116  19.770  0.00  0.00    +0.000 C 
ENDBRANCH   1  14
BRANCH   2  17
ATOM     17  C   UNL     1       7.762   6.562  18.603  0.00  0.00    +0.000 C 
BRANCH  17  18
ATOM     18  C   UNL     1       7.752   7.581  17.460  0.00  0.00    +0.000 C 
BRANCH  18  19
ATOM     19  C   UNL     1       7.779   9.031  17.928  0.00  0.00    +0.000 C 
BRANCH  19  20
ATOM     20  C   UNL     1       9.142   9.428  18.482  0.00  0.00    +0.000 C 
BRANCH  20  21
ATOM     21  C   UNL     1       9.046  10.715  19.289  0.00  0.00    +0.000 C 
BRANCH  21  22
ATOM     22  C   UNL     1       9.605  11.890  18.492  0.00  0.00    +0.000 C 
BRANCH  22  23
ATOM     23  C   UNL     1      10.992  12.255  19.004  0.00  0.00    +0.000 C 
BRANCH  23  24
ATOM     24  C   UNL     1      11.265  13.750  18.873  0.00  0.00    +0.000 C 
BRANCH  24  25
ATOM     25  C   UNL     1      11.435  14.146  17.425  0.00  0.00    +0.000 C 
ATOM     26  O   UNL     1      12.157  13.562  16.620  0.00  0.00    +0.000 OA
ATOM     27  N   UNL     1      10.694  15.241  17.064  0.00  0.00    +0.000 N 
ATOM     28  H   UNL     1      10.142  15.815  17.692  0.00  0.00    +0.000 HD
BRANCH  27  29
ATOM     29  O   UNL     1      10.838  15.682  15.731  0.00  0.00    +0.000 OA
ATOM     30  H   UNL     1       9.917  15.942  15.499  0.00  0.00    +0.000 HD
ENDBRANCH  27  29
ENDBRANCH  24  25
ENDBRANCH  23  24
ENDBRANCH  22  23
ENDBRANCH  21  22
ENDBRANCH  20  21
ENDBRANCH  19  20
ENDBRANCH  18  19
ENDBRANCH  17  18
ENDBRANCH   2  17
TORSDOF 11
ENDMDL
MODEL 7
REMARK VINA RESULT:      -7.3      1.967      3.044
REMARK  Name = 
REMARK  13 active torsions:
REMARK  status: ('A' for Active; 'I' for Inactive)
REMARK    1  A    between atoms: C_1  and  C_2
REMARK    2  A    between atoms: C_6  and  C_7
REMARK    3  A    between atoms: C_10  and  N_11
REMARK    4  A    between atoms: C_12  and  C_14
REMARK    5  A    between atoms: C_14  and  C_15
REMARK    6  A    between atoms: C_15  and  C_16
REMARK    7  A    between atoms: C_16  and  C_17
REMARK    8  A    between atoms: C_17  and  C_18
REMARK    9  A    between atoms: C_18  and  C_19
REMARK   10  A    between atoms: C_19  and  C_20
REMARK   11  A    between atoms: C_20  and  C_21
REMARK   12  A    between atoms: C_21  and  C_22
REMARK   13  A    between atoms: N_24  and  O_25
REMARK                            x       y       z     vdW  Elec       q    Type
REMARK                         _______ _______ _______ _____ _____    ______ ____
ROOT
ATOM      1  N   UNL     1       4.130   2.985  18.176  0.00  0.00    +0.000 N 
ATOM      2  C   UNL     1       2.830   2.713  17.784  0.00  0.00    +0.000 C 
ATOM      3  O   UNL     1       2.235   3.331  16.908  0.00  0.00    +0.000 OA
ATOM      4  H   UNL     1       4.557   2.424  18.898  0.00  0.00    +0.000 HD
ENDROOT
BRANCH   1  14
ATOM      5  C   UNL     1       4.061   7.794  16.903  0.00  0.00    +0.000 C 
ATOM      6  C   UNL     1       4.895   6.510  16.876  0.00  0.00    +0.000 C 
ATOM      7  C   UNL     1       6.196   6.696  17.690  0.00  0.00    +0.000 C 
ATOM      8  C   UNL     1       7.042   5.414  17.660  0.00  0.00    +0.000 C 
ATOM      9  C   UNL     1       7.378   5.044  16.211  0.00  0.00    +0.000 C 
ATOM     10  C   UNL     1       6.083   4.815  15.402  0.00  0.00    +0.000 C 
ATOM     11  C   UNL     1       6.434   4.453  13.956  0.00  0.00    +0.000 C 
ATOM     12  C   UNL     1       5.256   6.122  15.428  0.00  0.00    +0.000 C 
ATOM     13  C   UNL     1       5.261   3.681  16.074  0.00  0.00    +0.000 C 
ATOM     14  C   UNL     1       4.908   4.052  17.543  0.00  0.00    +0.000 C 
ATOM     15  C   UNL     1       6.245   4.271  18.295  0.00  0.00    +0.000 C 
ATOM     16  C   UNL     1       4.085   5.361  17.498  0.00  0.00    +0.000 C 
ENDBRANCH   1  14
BRANCH   2  17
ATOM     17  C   UNL     1       2.180   1.581  18.542  0.00  0.00    +0.000 C 
BRANCH  17  18
ATOM     18  C   UNL     1       0.920   2.097  19.245  0.00  0.00    +0.000 C 
BRANCH  18  19
ATOM     19  C   UNL     1       1.203   2.879  20.520  0.00  0.00    +0.000 C 
BRANCH  19  20
ATOM     20  C   UNL     1       0.849   4.355  20.377  0.00  0.00    +0.000 C 
BRANCH  20  21
ATOM     21  C   UNL     1       2.086   5.228  20.529  0.00  0.00    +0.000 C 
BRANCH  21  22
ATOM     22  C   UNL     1       1.696   6.636  20.969  0.00  0.00    +0.000 C 
BRANCH  22  23
ATOM     23  C   UNL     1       1.913   7.619  19.827  0.00  0.00    +0.000 C 
BRANCH  23  24
ATOM     24  C   UNL     1       1.273   8.972  20.119  0.00  0.00    +0.000 C 
BRANCH  24  25
ATOM     25  C   UNL     1       0.499   8.938  21.416  0.00  0.00    +0.000 C 
ATOM     26  O   UNL     1      -0.588   8.387  21.568  0.00  0.00    +0.000 OA
ATOM     27  N   UNL     1       1.127   9.588  22.447  0.00  0.00    +0.000 N 
ATOM     28  H   UNL     1       1.982  10.128  22.373  0.00  0.00    +0.000 HD
BRANCH  27  29
ATOM     29  O   UNL     1       0.437   9.622  23.678  0.00  0.00    +0.000 OA
ATOM     30  H   UNL     1      -0.497   9.493  23.393  0.00  0.00    +0.000 HD
ENDBRANCH  27  29
ENDBRANCH  24  25
ENDBRANCH  23  24
ENDBRANCH  22  23
ENDBRANCH  21  22
ENDBRANCH  20  21
ENDBRANCH  19  20
ENDBRANCH  18  19
ENDBRANCH  17  18
ENDBRANCH   2  17
TORSDOF 11
ENDMDL
MODEL 8
REMARK VINA RESULT:      -7.3      1.348      1.424
REMARK  Name = 
REMARK  13 active torsions:
REMARK  status: ('A' for Active; 'I' for Inactive)
REMARK    1  A    between atoms: C_1  and  C_2
REMARK    2  A    between atoms: C_6  and  C_7
REMARK    3  A    between atoms: C_10  and  N_11
REMARK    4  A    between atoms: C_12  and  C_14
REMARK    5  A    between atoms: C_14  and  C_15
REMARK    6  A    between atoms: C_15  and  C_16
REMARK    7  A    between atoms: C_16  and  C_17
REMARK    8  A    between atoms: C_17  and  C_18
REMARK    9  A    between atoms: C_18  and  C_19
REMARK   10  A    between atoms: C_19  and  C_20
REMARK   11  A    between atoms: C_20  and  C_21
REMARK   12  A    between atoms: C_21  and  C_22
REMARK   13  A    between atoms: N_24  and  O_25
REMARK                            x       y       z     vdW  Elec       q    Type
REMARK                         _______ _______ _______ _____ _____    ______ ____
ROOT
ATOM      1  N   UNL     1       2.943   4.634  18.084  0.00  0.00    +0.000 N 
ATOM      2  C   UNL     1       2.820   3.378  18.654  0.00  0.00    +0.000 C 
ATOM      3  O   UNL     1       3.732   2.560  18.712  0.00  0.00    +0.000 OA
ATOM      4  H   UNL     1       2.149   5.257  18.084  0.00  0.00    +0.000 HD
ENDROOT
BRANCH   1  14
ATOM      5  C   UNL     1       6.272   3.736  14.498  0.00  0.00    +0.000 C 
ATOM      6  C   UNL     1       5.932   4.645  15.682  0.00  0.00    +0.000 C 
ATOM      7  C   UNL     1       5.742   6.103  15.206  0.00  0.00    +0.000 C 
ATOM      8  C   UNL     1       5.408   7.022  16.391  0.00  0.00    +0.000 C 
ATOM      9  C   UNL     1       6.528   6.953  17.436  0.00  0.00    +0.000 C 
ATOM     10  C   UNL     1       6.696   5.505  17.948  0.00  0.00    +0.000 C 
ATOM     11  C   UNL     1       7.820   5.450  18.986  0.00  0.00    +0.000 C 
ATOM     12  C   UNL     1       7.049   4.601  16.744  0.00  0.00    +0.000 C 
ATOM     13  C   UNL     1       5.351   5.028  18.563  0.00  0.00    +0.000 C 
ATOM     14  C   UNL     1       4.210   5.087  17.506  0.00  0.00    +0.000 C 
ATOM     15  C   UNL     1       4.097   6.558  17.033  0.00  0.00    +0.000 C 
ATOM     16  C   UNL     1       4.624   4.166  16.335  0.00  0.00    +0.000 C 
ENDBRANCH   1  14
BRANCH   2  17
ATOM     17  C   UNL     1       1.445   3.079  19.200  0.00  0.00    +0.000 C 
BRANCH  17  18
ATOM     18  C   UNL     1       1.408   3.408  20.695  0.00  0.00    +0.000 C 
BRANCH  18  19
ATOM     19  C   UNL     1       2.077   4.728  21.052  0.00  0.00    +0.000 C 
BRANCH  19  20
ATOM     20  C   UNL     1       1.190   5.925  20.730  0.00  0.00    +0.000 C 
BRANCH  20  21
ATOM     21  C   UNL     1       1.991   7.219  20.760  0.00  0.00    +0.000 C 
BRANCH  21  22
ATOM     22  C   UNL     1       1.990   7.881  19.385  0.00  0.00    +0.000 C 
BRANCH  22  23
ATOM     23  C   UNL     1       1.261   9.216  19.448  0.00  0.00    +0.000 C 
BRANCH  23  24
ATOM     24  C   UNL     1       1.441  10.018  18.164  0.00  0.00    +0.000 C 
BRANCH  24  25
ATOM     25  C   UNL     1       1.702  11.476  18.467  0.00  0.00    +0.000 C 
ATOM     26  O   UNL     1       1.202  12.096  19.402  0.00  0.00    +0.000 OA
ATOM     27  N   UNL     1       2.571  12.072  17.590  0.00  0.00    +0.000 N 
ATOM     28  H   UNL     1       2.955  11.644  16.755  0.00  0.00    +0.000 HD
BRANCH  27  29
ATOM     29  O   UNL     1       2.826  13.444  17.799  0.00  0.00    +0.000 OA
ATOM     30  H   UNL     1       1.919  13.805  17.927  0.00  0.00    +0.000 HD
ENDBRANCH  27  29
ENDBRANCH  24  25
ENDBRANCH  23  24
ENDBRANCH  22  23
ENDBRANCH  21  22
ENDBRANCH  20  21
ENDBRANCH  19  20
ENDBRANCH  18  19
ENDBRANCH  17  18
ENDBRANCH   2  17
TORSDOF 11
ENDMDL
MODEL 9
REMARK VINA RESULT:      -7.2      1.741      2.305
REMARK  Name = 
REMARK  13 active torsions:
REMARK  status: ('A' for Active; 'I' for Inactive)
REMARK    1  A    between atoms: C_1  and  C_2
REMARK    2  A    between atoms: C_6  and  C_7
REMARK    3  A    between atoms: C_10  and  N_11
REMARK    4  A    between atoms: C_12  and  C_14
REMARK    5  A    between atoms: C_14  and  C_15
REMARK    6  A    between atoms: C_15  and  C_16
REMARK    7  A    between atoms: C_16  and  C_17
REMARK    8  A    between atoms: C_17  and  C_18
REMARK    9  A    between atoms: C_18  and  C_19
REMARK   10  A    between atoms: C_19  and  C_20
REMARK   11  A    between atoms: C_20  and  C_21
REMARK   12  A    between atoms: C_21  and  C_22
REMARK   13  A    between atoms: N_24  and  O_25
REMARK                            x       y       z     vdW  Elec       q    Type
REMARK                         _______ _______ _______ _____ _____    ______ ____
ROOT
ATOM      1  N   UNL     1       4.635   3.155  18.007  0.00  0.00    +0.000 N 
ATOM      2  C   UNL     1       3.352   2.722  17.719  0.00  0.00    +0.000 C 
ATOM      3  O   UNL     1       2.604   3.279  16.923  0.00  0.00    +0.000 OA
ATOM      4  H   UNL     1       5.196   2.636  18.667  0.00  0.00    +0.000 HD
ENDROOT
BRANCH   1  14
ATOM      5  C   UNL     1       7.019   4.728  13.935  0.00  0.00    +0.000 C 
ATOM      6  C   UNL     1       6.432   5.164  15.280  0.00  0.00    +0.000 C 
ATOM      7  C   UNL     1       5.292   6.186  15.065  0.00  0.00    +0.000 C 
ATOM      8  C   UNL     1       4.703   6.633  16.411  0.00  0.00    +0.000 C 
ATOM      9  C   UNL     1       5.803   7.249  17.283  0.00  0.00    +0.000 C 
ATOM     10  C   UNL     1       6.926   6.220  17.538  0.00  0.00    +0.000 C 
ATOM     11  C   UNL     1       8.020   6.850  18.404  0.00  0.00    +0.000 C 
ATOM     12  C   UNL     1       7.517   5.797  16.172  0.00  0.00    +0.000 C 
ATOM     13  C   UNL     1       6.318   4.971  18.235  0.00  0.00    +0.000 C 
ATOM     14  C   UNL     1       5.206   4.334  17.353  0.00  0.00    +0.000 C 
ATOM     15  C   UNL     1       4.118   5.415  17.133  0.00  0.00    +0.000 C 
ATOM     16  C   UNL     1       5.860   3.936  16.009  0.00  0.00    +0.000 C 
ENDBRANCH   1  14
BRANCH   2  17
ATOM     17  C   UNL     1       2.928   1.492  18.484  0.00  0.00    +0.000 C 
BRANCH  17  18
ATOM     18  C   UNL     1       3.626   1.475  19.848  0.00  0.00    +0.000 C 
BRANCH  18  19
ATOM     19  C   UNL     1       3.125   2.544  20.810  0.00  0.00    +0.000 C 
BRANCH  19  20
ATOM     20  C   UNL     1       1.606   2.524  20.947  0.00  0.00    +0.000 C 
BRANCH  20  21
ATOM     21  C   UNL     1       1.036   3.933  20.876  0.00  0.00    +0.000 C 
BRANCH  21  22
ATOM     22  C   UNL     1       2.142   4.944  20.589  0.00  0.00    +0.000 C 
BRANCH  22  23
ATOM     23  C   UNL     1       1.539   6.315  20.318  0.00  0.00    +0.000 C 
BRANCH  23  24
ATOM     24  C   UNL     1       2.555   7.264  19.691  0.00  0.00    +0.000 C 
BRANCH  24  25
ATOM     25  C   UNL     1       1.876   8.493  19.131  0.00  0.00    +0.000 C 
ATOM     26  O   UNL     1       1.004   9.135  19.710  0.00  0.00    +0.000 OA
ATOM     27  N   UNL     1       2.327   8.850  17.887  0.00  0.00    +0.000 N 
ATOM     28  H   UNL     1       2.983   8.322  17.321  0.00  0.00    +0.000 HD
BRANCH  27  29
ATOM     29  O   UNL     1       1.705   9.970  17.294  0.00  0.00    +0.000 OA
ATOM     30  H   UNL     1       2.298  10.705  17.572  0.00  0.00    +0.000 HD
ENDBRANCH  27  29
ENDBRANCH  24  25
ENDBRANCH  23  24
ENDBRANCH  22  23
ENDBRANCH  21  22
ENDBRANCH  20  21
ENDBRANCH  19  20
ENDBRANCH  18  19
ENDBRANCH  17  18
ENDBRANCH   2  17
TORSDOF 11
ENDMDL
