MODEL 1
REMARK VINA RESULT:      -7.8      0.000      0.000
REMARK  Name = 
REMARK  5 active torsions:
REMARK  status: ('A' for Active; 'I' for Inactive)
REMARK    1  A    between atoms: C_1  and  C_2
REMARK    2  A    between atoms: C_4  and  N_5
REMARK    3  A    between atoms: N_9  and  S_10
REMARK    4  A    between atoms: S_10  and  C_13
REMARK    5  A    between atoms: C_16  and  N_17
REMARK                            x       y       z     vdW  Elec       q    Type
REMARK                         _______ _______ _______ _____ _____    ______ ____
ROOT
ATOM      1  S   UNL     1       4.759   4.158  18.124  0.00  0.00    +0.000 S 
ATOM      2  O   UNL     1       3.892   3.158  17.535  0.00  0.00    +0.000 OA
ATOM      3  O   UNL     1       5.618   3.881  19.257  0.00  0.00    +0.000 OA
ENDROOT
BRANCH   1   9
ATOM      4  C   UNL     1       7.372   6.057  18.323  0.00  0.00    +0.000 C 
ATOM      5  C   UNL     1       6.914   5.454  17.046  0.00  0.00    +0.000 A 
ATOM      6  N   UNL     1       7.503   5.628  15.873  0.00  0.00    +0.000 NA
ATOM      7  C   UNL     1       6.774   4.877  14.967  0.00  0.00    +0.000 A 
ATOM      8  C   UNL     1       5.698   4.272  15.582  0.00  0.00    +0.000 A 
ATOM      9  N   UNL     1       5.815   4.640  16.895  0.00  0.00    +0.000 N 
BRANCH   7  10
ATOM     10  N   UNL     1       7.161   4.796  13.574  0.00  0.00    +0.000 N 
ATOM     11  O   UNL     1       6.637   3.888  12.911  0.00  0.00    +0.000 OA
ATOM     12  O   UNL     1       7.969   5.630  13.150  0.00  0.00    +0.000 OA
ENDBRANCH   7  10
ENDBRANCH   1   9
BRANCH   1  13
ATOM     13  C   UNL     1       3.753   5.566  18.519  0.00  0.00    +0.000 A 
ATOM     14  C   UNL     1       3.646   6.649  17.641  0.00  0.00    +0.000 A 
ATOM     15  C   UNL     1       2.861   7.751  18.001  0.00  0.00    +0.000 A 
ATOM     16  C   UNL     1       2.173   7.749  19.224  0.00  0.00    +0.000 A 
ATOM     17  C   UNL     1       2.274   6.658  20.097  0.00  0.00    +0.000 A 
ATOM     18  C   UNL     1       3.070   5.564  19.742  0.00  0.00    +0.000 A 
BRANCH  16  19
ATOM     19  N   UNL     1       1.327   8.896  19.586  0.00  0.00    +0.000 N 
ATOM     20  O   UNL     1       1.081   9.729  18.704  0.00  0.00    +0.000 OA
ATOM     21  O   UNL     1       0.912   8.958  20.752  0.00  0.00    +0.000 OA
ENDBRANCH  16  19
ENDBRANCH   1  13
TORSDOF 4
ENDMDL
MODEL 2
REMARK VINA RESULT:      -7.8      0.383      1.028
REMARK  Name = 
REMARK  5 active torsions:
REMARK  status: ('A' for Active; 'I' for Inactive)
REMARK    1  A    between atoms: C_1  and  C_2
REMARK    2  A    between atoms: C_4  and  N_5
REMARK    3  A    between atoms: N_9  and  S_10
REMARK    4  A    between atoms: S_10  and  C_13
REMARK    5  A    between atoms: C_16  and  N_17
REMARK                            x       y       z     vdW  Elec       q    Type
REMARK                         _______ _______ _______ _____ _____    ______ ____
ROOT
ATOM      1  S   UNL     1       4.991   4.483  18.160  0.00  0.00    +0.000 S 
ATOM      2  O   UNL     1       4.181   3.355  17.749  0.00  0.00    +0.000 OA
ATOM      3  O   UNL     1       5.917   4.419  19.273  0.00  0.00    +0.000 OA
ENDROOT
BRANCH   1   9
ATOM      4  C   UNL     1       7.521   6.496  18.004  0.00  0.00    +0.000 C 
ATOM      5  C   UNL     1       7.020   5.743  16.826  0.00  0.00    +0.000 A 
ATOM      6  N   UNL     1       7.535   5.817  15.608  0.00  0.00    +0.000 NA
ATOM      7  C   UNL     1       6.792   4.946  14.830  0.00  0.00    +0.000 A 
ATOM      8  C   UNL     1       5.780   4.366  15.567  0.00  0.00    +0.000 A 
ATOM      9  N   UNL     1       5.954   4.875  16.826  0.00  0.00    +0.000 N 
BRANCH   7  10
ATOM     10  N   UNL     1       7.104   4.734  13.431  0.00  0.00    +0.000 N 
ATOM     11  O   UNL     1       7.933   5.509  12.931  0.00  0.00    +0.000 OA
ATOM     12  O   UNL     1       6.534   3.806  12.848  0.00  0.00    +0.000 OA
ENDBRANCH   7  10
ENDBRANCH   1   9
BRANCH   1  13
ATOM     13  C   UNL     1       3.896   5.854  18.423  0.00  0.00    +0.000 A 
ATOM     14  C   UNL     1       3.837   6.919  17.519  0.00  0.00    +0.000 A 
ATOM     15  C   UNL     1       2.977   7.993  17.777  0.00  0.00    +0.000 A 
ATOM     16  C   UNL     1       2.168   7.981  18.924  0.00  0.00    +0.000 A 
ATOM     17  C   UNL     1       2.222   6.908  19.823  0.00  0.00    +0.000 A 
ATOM     18  C   UNL     1       3.092   5.843  19.571  0.00  0.00    +0.000 A 
BRANCH  16  19
ATOM     19  N   UNL     1       1.245   9.098  19.176  0.00  0.00    +0.000 N 
ATOM     20  O   UNL     1       0.926   9.325  20.351  0.00  0.00    +0.000 OA
ATOM     21  O   UNL     1       0.841   9.742  18.198  0.00  0.00    +0.000 OA
ENDBRANCH  16  19
ENDBRANCH   1  13
TORSDOF 4
ENDMDL
MODEL 3
REMARK VINA RESULT:      -7.7      0.484      1.167
REMARK  Name = 
REMARK  5 active torsions:
REMARK  status: ('A' for Active; 'I' for Inactive)
REMARK    1  A    between atoms: C_1  and  C_2
REMARK    2  A    between atoms: C_4  and  N_5
REMARK    3  A    between atoms: N_9  and  S_10
REMARK    4  A    between atoms: S_10  and  C_13
REMARK    5  A    between atoms: C_16  and  N_17
REMARK                            x       y       z     vdW  Elec       q    Type
REMARK                         _______ _______ _______ _____ _____    ______ ____
ROOT
ATOM      1  S   UNL     1       4.402   3.860  18.306  0.00  0.00    +0.000 S 
ATOM      2  O   UNL     1       3.494   3.014  17.559  0.00  0.00    +0.000 OA
ATOM      3  O   UNL     1       5.165   3.382  19.441  0.00  0.00    +0.000 OA
ENDROOT
BRANCH   1   9
ATOM      4  C   UNL     1       7.127   5.517  18.858  0.00  0.00    +0.000 C 
ATOM      5  C   UNL     1       6.710   5.089  17.499  0.00  0.00    +0.000 A 
ATOM      6  N   UNL     1       7.385   5.338  16.387  0.00  0.00    +0.000 NA
ATOM      7  C   UNL     1       6.663   4.746  15.365  0.00  0.00    +0.000 A 
ATOM      8  C   UNL     1       5.508   4.166  15.848  0.00  0.00    +0.000 A 
ATOM      9  N   UNL     1       5.567   4.384  17.198  0.00  0.00    +0.000 N 
BRANCH   7  10
ATOM     10  N   UNL     1       7.132   4.782  13.995  0.00  0.00    +0.000 N 
ATOM     11  O   UNL     1       6.563   4.017  13.200  0.00  0.00    +0.000 OA
ATOM     12  O   UNL     1       8.047   5.564  13.719  0.00  0.00    +0.000 OA
ENDBRANCH   7  10
ENDBRANCH   1   9
BRANCH   1  13
ATOM     13  C   UNL     1       3.492   5.297  18.812  0.00  0.00    +0.000 A 
ATOM     14  C   UNL     1       2.798   5.326  20.026  0.00  0.00    +0.000 A 
ATOM     15  C   UNL     1       2.072   6.470  20.376  0.00  0.00    +0.000 A 
ATOM     16  C   UNL     1       2.065   7.583  19.520  0.00  0.00    +0.000 A 
ATOM     17  C   UNL     1       2.769   7.555  18.309  0.00  0.00    +0.000 A 
ATOM     18  C   UNL     1       3.482   6.406  17.954  0.00  0.00    +0.000 A 
BRANCH  16  19
ATOM     19  N   UNL     1       1.325   8.794  19.905  0.00  0.00    +0.000 N 
ATOM     20  O   UNL     1       0.946   9.547  18.999  0.00  0.00    +0.000 OA
ATOM     21  O   UNL     1       1.128   8.987  21.113  0.00  0.00    +0.000 OA
ENDBRANCH  16  19
ENDBRANCH   1  13
TORSDOF 4
ENDMDL
MODEL 4
REMARK VINA RESULT:      -7.5      1.352      6.458
REMARK  Name = 
REMARK  5 active torsions:
REMARK  status: ('A' for Active; 'I' for Inactive)
REMARK    1  A    between atoms: C_1  and  C_2
REMARK    2  A    between atoms: C_4  and  N_5
REMARK    3  A    between atoms: N_9  and  S_10
REMARK    4  A    between atoms: S_10  and  C_13
REMARK    5  A    between atoms: C_16  and  N_17
REMARK                            x       y       z     vdW  Elec       q    Type
REMARK                         _______ _______ _______ _____ _____    ______ ____
ROOT
ATOM      1  S   UNL     1       4.459   3.764  18.405  0.00  0.00    +0.000 S 
ATOM      2  O   UNL     1       5.422   3.648  19.480  0.00  0.00    +0.000 OA
ATOM      3  O   UNL     1       3.502   2.722  18.094  0.00  0.00    +0.000 OA
ENDROOT
BRANCH   1   9
ATOM      4  C   UNL     1       2.542   4.268  20.963  0.00  0.00    +0.000 C 
ATOM      5  C   UNL     1       2.715   5.270  19.881  0.00  0.00    +0.000 A 
ATOM      6  N   UNL     1       2.113   6.448  19.838  0.00  0.00    +0.000 NA
ATOM      7  C   UNL     1       2.570   7.065  18.686  0.00  0.00    +0.000 A 
ATOM      8  C   UNL     1       3.427   6.238  17.990  0.00  0.00    +0.000 A 
ATOM      9  N   UNL     1       3.513   5.117  18.771  0.00  0.00    +0.000 N 
BRANCH   7  10
ATOM     10  N   UNL     1       2.148   8.405  18.333  0.00  0.00    +0.000 N 
ATOM     11  O   UNL     1       2.539   8.832  17.236  0.00  0.00    +0.000 OA
ATOM     12  O   UNL     1       1.435   9.016  19.136  0.00  0.00    +0.000 OA
ENDBRANCH   7  10
ENDBRANCH   1   9
BRANCH   1  13
ATOM     13  C   UNL     1       5.360   4.153  16.926  0.00  0.00    +0.000 A 
ATOM     14  C   UNL     1       4.827   3.885  15.661  0.00  0.00    +0.000 A 
ATOM     15  C   UNL     1       5.582   4.185  14.520  0.00  0.00    +0.000 A 
ATOM     16  C   UNL     1       6.850   4.770  14.655  0.00  0.00    +0.000 A 
ATOM     17  C   UNL     1       7.377   5.046  15.923  0.00  0.00    +0.000 A 
ATOM     18  C   UNL     1       6.629   4.733  17.062  0.00  0.00    +0.000 A 
BRANCH  16  19
ATOM     19  N   UNL     1       7.627   5.110  13.453  0.00  0.00    +0.000 N 
ATOM     20  O   UNL     1       7.270   4.610  12.378  0.00  0.00    +0.000 OA
ATOM     21  O   UNL     1       8.592   5.875  13.590  0.00  0.00    +0.000 OA
ENDBRANCH  16  19
ENDBRANCH   1  13
TORSDOF 4
ENDMDL
MODEL 5
REMARK VINA RESULT:      -7.5      1.366      6.466
REMARK  Name = 
REMARK  5 active torsions:
REMARK  status: ('A' for Active; 'I' for Inactive)
REMARK    1  A    between atoms: C_1  and  C_2
REMARK    2  A    between atoms: C_4  and  N_5
REMARK    3  A    between atoms: N_9  and  S_10
REMARK    4  A    between atoms: S_10  and  C_13
REMARK    5  A    between atoms: C_16  and  N_17
REMARK                            x       y       z     vdW  Elec       q    Type
REMARK                         _______ _______ _______ _____ _____    ______ ____
ROOT
ATOM      1  S   UNL     1       4.611   3.755  18.531  0.00  0.00    +0.000 S 
ATOM      2  O   UNL     1       5.571   3.710  19.614  0.00  0.00    +0.000 OA
ATOM      3  O   UNL     1       3.701   2.664  18.244  0.00  0.00    +0.000 OA
ENDROOT
BRANCH   1   9
ATOM      4  C   UNL     1       2.475   4.142  20.931  0.00  0.00    +0.000 C 
ATOM      5  C   UNL     1       2.715   5.179  19.895  0.00  0.00    +0.000 A 
ATOM      6  N   UNL     1       2.091   6.345  19.834  0.00  0.00    +0.000 NA
ATOM      7  C   UNL     1       2.629   7.006  18.744  0.00  0.00    +0.000 A 
ATOM      8  C   UNL     1       3.560   6.218  18.100  0.00  0.00    +0.000 A 
ATOM      9  N   UNL     1       3.607   5.076  18.853  0.00  0.00    +0.000 N 
BRANCH   7  10
ATOM     10  N   UNL     1       2.208   8.347  18.394  0.00  0.00    +0.000 N 
ATOM     11  O   UNL     1       2.456   8.715  17.235  0.00  0.00    +0.000 OA
ATOM     12  O   UNL     1       1.634   9.016  19.260  0.00  0.00    +0.000 OA
ENDBRANCH   7  10
ENDBRANCH   1   9
BRANCH   1  13
ATOM     13  C   UNL     1       5.505   4.139  17.047  0.00  0.00    +0.000 A 
ATOM     14  C   UNL     1       6.805   4.653  17.096  0.00  0.00    +0.000 A 
ATOM     15  C   UNL     1       7.466   4.966  15.902  0.00  0.00    +0.000 A 
ATOM     16  C   UNL     1       6.830   4.741  14.671  0.00  0.00    +0.000 A 
ATOM     17  C   UNL     1       5.531   4.217  14.625  0.00  0.00    +0.000 A 
ATOM     18  C   UNL     1       4.867   3.918  15.818  0.00  0.00    +0.000 A 
BRANCH  16  19
ATOM     19  N   UNL     1       7.539   5.044  13.418  0.00  0.00    +0.000 N 
ATOM     20  O   UNL     1       7.166   4.459  12.393  0.00  0.00    +0.000 OA
ATOM     21  O   UNL     1       8.465   5.865  13.467  0.00  0.00    +0.000 OA
ENDBRANCH  16  19
ENDBRANCH   1  13
TORSDOF 4
ENDMDL
MODEL 6
REMARK VINA RESULT:      -7.5      1.080      1.450
REMARK  Name = 
REMARK  5 active torsions:
REMARK  status: ('A' for Active; 'I' for Inactive)
REMARK    1  A    between atoms: C_1  and  C_2
REMARK    2  A    between atoms: C_4  and  N_5
REMARK    3  A    between atoms: N_9  and  S_10
REMARK    4  A    between atoms: S_10  and  C_13
REMARK    5  A    between atoms: C_16  and  N_17
REMARK                            x       y       z     vdW  Elec       q    Type
REMARK                         _______ _______ _______ _____ _____    ______ ____
ROOT
ATOM      1  S   UNL     1       3.579   3.853  18.093  0.00  0.00    +0.000 S 
ATOM      2  O   UNL     1       2.626   3.376  17.112  0.00  0.00    +0.000 OA
ATOM      3  O   UNL     1       4.107   3.011  19.148  0.00  0.00    +0.000 OA
ENDROOT
BRANCH   1   9
ATOM      4  C   UNL     1       6.289   5.255  19.174  0.00  0.00    +0.000 C 
ATOM      5  C   UNL     1       6.066   4.939  17.741  0.00  0.00    +0.000 A 
ATOM      6  N   UNL     1       6.926   5.196  16.768  0.00  0.00    +0.000 NA
ATOM      7  C   UNL     1       6.338   4.723  15.607  0.00  0.00    +0.000 A 
ATOM      8  C   UNL     1       5.083   4.209  15.864  0.00  0.00    +0.000 A 
ATOM      9  N   UNL     1       4.940   4.345  17.219  0.00  0.00    +0.000 N 
BRANCH   7  10
ATOM     10  N   UNL     1       7.022   4.799  14.333  0.00  0.00    +0.000 N 
ATOM     11  O   UNL     1       7.994   5.567  14.277  0.00  0.00    +0.000 OA
ATOM     12  O   UNL     1       6.597   4.098  13.408  0.00  0.00    +0.000 OA
ENDBRANCH   7  10
ENDBRANCH   1   9
BRANCH   1  13
ATOM     13  C   UNL     1       2.891   5.311  18.835  0.00  0.00    +0.000 A 
ATOM     14  C   UNL     1       2.875   6.532  18.153  0.00  0.00    +0.000 A 
ATOM     15  C   UNL     1       2.344   7.664  18.784  0.00  0.00    +0.000 A 
ATOM     16  C   UNL     1       1.814   7.559  20.080  0.00  0.00    +0.000 A 
ATOM     17  C   UNL     1       1.823   6.331  20.756  0.00  0.00    +0.000 A 
ATOM     18  C   UNL     1       2.366   5.205  20.130  0.00  0.00    +0.000 A 
BRANCH  16  19
ATOM     19  N   UNL     1       1.232   8.743  20.728  0.00  0.00    +0.000 N 
ATOM     20  O   UNL     1       1.252   8.789  21.964  0.00  0.00    +0.000 OA
ATOM     21  O   UNL     1       0.756   9.622  19.996  0.00  0.00    +0.000 OA
ENDBRANCH  16  19
ENDBRANCH   1  13
TORSDOF 4
ENDMDL
MODEL 7
REMARK VINA RESULT:      -7.2      1.750      6.560
REMARK  Name = 
REMARK  5 active torsions:
REMARK  status: ('A' for Active; 'I' for Inactive)
REMARK    1  A    between atoms: C_1  and  C_2
REMARK    2  A    between atoms: C_4  and  N_5
REMARK    3  A    between atoms: N_9  and  S_10
REMARK    4  A    between atoms: S_10  and  C_13
REMARK    5  A    between atoms: C_16  and  N_17
REMARK                            x       y       z     vdW  Elec       q    Type
REMARK                         _______ _______ _______ _____ _____    ______ ____
ROOT
ATOM      1  S   UNL     1       4.116   3.211  19.112  0.00  0.00    +0.000 S 
ATOM      2  O   UNL     1       5.111   3.005  20.144  0.00  0.00    +0.000 OA
ATOM      3  O   UNL     1       3.136   2.206  18.754  0.00  0.00    +0.000 OA
ENDROOT
BRANCH   1   9
ATOM      4  C   UNL     1       2.082   3.457  21.617  0.00  0.00    +0.000 C 
ATOM      5  C   UNL     1       2.349   4.583  20.687  0.00  0.00    +0.000 A 
ATOM      6  N   UNL     1       1.792   5.781  20.771  0.00  0.00    +0.000 NA
ATOM      7  C   UNL     1       2.333   6.524  19.736  0.00  0.00    +0.000 A 
ATOM      8  C   UNL     1       3.197   5.760  18.980  0.00  0.00    +0.000 A 
ATOM      9  N   UNL     1       3.200   4.543  19.607  0.00  0.00    +0.000 N 
BRANCH   7  10
ATOM     10  N   UNL     1       1.979   7.915  19.544  0.00  0.00    +0.000 N 
ATOM     11  O   UNL     1       2.234   8.398  18.430  0.00  0.00    +0.000 OA
ATOM     12  O   UNL     1       1.451   8.512  20.488  0.00  0.00    +0.000 OA
ENDBRANCH   7  10
ENDBRANCH   1   9
BRANCH   1  13
ATOM     13  C   UNL     1       4.977   3.699  17.638  0.00  0.00    +0.000 A 
ATOM     14  C   UNL     1       4.374   3.599  16.380  0.00  0.00    +0.000 A 
ATOM     15  C   UNL     1       5.096   3.972  15.240  0.00  0.00    +0.000 A 
ATOM     16  C   UNL     1       6.405   4.463  15.371  0.00  0.00    +0.000 A 
ATOM     17  C   UNL     1       7.003   4.571  16.634  0.00  0.00    +0.000 A 
ATOM     18  C   UNL     1       6.285   4.185  17.770  0.00  0.00    +0.000 A 
BRANCH  16  19
ATOM     19  N   UNL     1       7.150   4.881  14.174  0.00  0.00    +0.000 N 
ATOM     20  O   UNL     1       8.097   5.663  14.332  0.00  0.00    +0.000 OA
ATOM     21  O   UNL     1       6.784   4.425  13.082  0.00  0.00    +0.000 OA
ENDBRANCH  16  19
ENDBRANCH   1  13
TORSDOF 4
ENDMDL
MODEL 8
REMARK VINA RESULT:      -7.1      3.405      4.517
REMARK  Name = 
REMARK  5 active torsions:
REMARK  status: ('A' for Active; 'I' for Inactive)
REMARK    1  A    between atoms: C_1  and  C_2
REMARK    2  A    between atoms: C_4  and  N_5
REMARK    3  A    between atoms: N_9  and  S_10
REMARK    4  A    between atoms: S_10  and  C_13
REMARK    5  A    between atoms: C_16  and  N_17
REMARK                            x       y       z     vdW  Elec       q    Type
REMARK                         _______ _______ _______ _____ _____    ______ ____
ROOT
ATOM      1  S   UNL     1       5.737   5.795  15.997  0.00  0.00    +0.000 S 
ATOM      2  O   UNL     1       5.189   6.777  15.084  0.00  0.00    +0.000 OA
ATOM      3  O   UNL     1       6.517   4.658  15.549  0.00  0.00    +0.000 OA
ENDROOT
BRANCH   1   9
ATOM      4  C   UNL     1       7.605   4.657  18.382  0.00  0.00    +0.000 C 
ATOM      5  C   UNL     1       7.543   6.098  18.029  0.00  0.00    +0.000 A 
ATOM      6  N   UNL     1       8.222   7.056  18.641  0.00  0.00    +0.000 NA
ATOM      7  C   UNL     1       7.893   8.230  17.987  0.00  0.00    +0.000 A 
ATOM      8  C   UNL     1       6.967   7.998  16.992  0.00  0.00    +0.000 A 
ATOM      9  N   UNL     1       6.772   6.643  17.029  0.00  0.00    +0.000 N 
BRANCH   7  10
ATOM     10  N   UNL     1       8.489   9.494  18.366  0.00  0.00    +0.000 N 
ATOM     11  O   UNL     1       9.252   9.470  19.345  0.00  0.00    +0.000 OA
ATOM     12  O   UNL     1       8.205  10.491  17.694  0.00  0.00    +0.000 OA
ENDBRANCH   7  10
ENDBRANCH   1   9
BRANCH   1  13
ATOM     13  C   UNL     1       4.397   5.193  16.993  0.00  0.00    +0.000 A 
ATOM     14  C   UNL     1       3.658   6.054  17.810  0.00  0.00    +0.000 A 
ATOM     15  C   UNL     1       2.625   5.535  18.600  0.00  0.00    +0.000 A 
ATOM     16  C   UNL     1       2.326   4.165  18.547  0.00  0.00    +0.000 A 
ATOM     17  C   UNL     1       3.062   3.306  17.720  0.00  0.00    +0.000 A 
ATOM     18  C   UNL     1       4.102   3.824  16.943  0.00  0.00    +0.000 A 
BRANCH  16  19
ATOM     19  N   UNL     1       1.221   3.628  19.356  0.00  0.00    +0.000 N 
ATOM     20  O   UNL     1       0.902   4.251  20.377  0.00  0.00    +0.000 OA
ATOM     21  O   UNL     1       0.677   2.585  18.966  0.00  0.00    +0.000 OA
ENDBRANCH  16  19
ENDBRANCH   1  13
TORSDOF 4
ENDMDL
MODEL 9
REMARK VINA RESULT:      -7.0      2.837      6.443
REMARK  Name = 
REMARK  5 active torsions:
REMARK  status: ('A' for Active; 'I' for Inactive)
REMARK    1  A    between atoms: C_1  and  C_2
REMARK    2  A    between atoms: C_4  and  N_5
REMARK    3  A    between atoms: N_9  and  S_10
REMARK    4  A    between atoms: S_10  and  C_13
REMARK    5  A    between atoms: C_16  and  N_17
REMARK                            x       y       z     vdW  Elec       q    Type
REMARK                         _______ _______ _______ _____ _____    ______ ____
ROOT
ATOM      1  S   UNL     1       2.950   5.133  18.407  0.00  0.00    +0.000 S 
ATOM      2  O   UNL     1       1.677   4.793  17.805  0.00  0.00    +0.000 OA
ATOM      3  O   UNL     1       3.148   6.331  19.198  0.00  0.00    +0.000 OA
ENDROOT
BRANCH   1   9
ATOM      4  C   UNL     1       1.168   3.894  20.808  0.00  0.00    +0.000 C 
ATOM      5  C   UNL     1       2.518   3.381  20.463  0.00  0.00    +0.000 A 
ATOM      6  N   UNL     1       3.132   2.389  21.089  0.00  0.00    +0.000 NA
ATOM      7  C   UNL     1       4.342   2.222  20.438  0.00  0.00    +0.000 A 
ATOM      8  C   UNL     1       4.493   3.151  19.430  0.00  0.00    +0.000 A 
ATOM      9  N   UNL     1       3.323   3.862  19.457  0.00  0.00    +0.000 N 
BRANCH   7  10
ATOM     10  N   UNL     1       5.271   1.182  20.832  0.00  0.00    +0.000 N 
ATOM     11  O   UNL     1       5.426   0.251  20.027  0.00  0.00    +0.000 OA
ATOM     12  O   UNL     1       5.838   1.299  21.924  0.00  0.00    +0.000 OA
ENDBRANCH   7  10
ENDBRANCH   1   9
BRANCH   1  13
ATOM     13  C   UNL     1       4.169   5.109  17.117  0.00  0.00    +0.000 A 
ATOM     14  C   UNL     1       4.853   6.270  16.745  0.00  0.00    +0.000 A 
ATOM     15  C   UNL     1       5.790   6.213  15.706  0.00  0.00    +0.000 A 
ATOM     16  C   UNL     1       6.049   4.991  15.065  0.00  0.00    +0.000 A 
ATOM     17  C   UNL     1       5.369   3.827  15.447  0.00  0.00    +0.000 A 
ATOM     18  C   UNL     1       4.424   3.889  16.476  0.00  0.00    +0.000 A 
BRANCH  16  19
ATOM     19  N   UNL     1       7.055   4.929  13.994  0.00  0.00    +0.000 N 
ATOM     20  O   UNL     1       6.832   4.171  13.041  0.00  0.00    +0.000 OA
ATOM     21  O   UNL     1       8.064   5.638  14.111  0.00  0.00    +0.000 OA
ENDBRANCH  16  19
ENDBRANCH   1  13
TORSDOF 4
ENDMDL
