MODEL 1
REMARK VINA RESULT:      -6.8      0.000      0.000
REMARK  Name = 
REMARK  7 active torsions:
REMARK  status: ('A' for Active; 'I' for Inactive)
REMARK    1  A    between atoms: C_1  and  C_2
REMARK    2  A    between atoms: C_2  and  C_4
REMARK    3  A    between atoms: C_6  and  C_7
REMARK    4  A    between atoms: C_6  and  C_8
REMARK    5  A    between atoms: C_22  and  C_23
REMARK    6  A    between atoms: C_26  and  O_27
REMARK    7  A    between atoms: C_29  and  C_30
REMARK                            x       y       z     vdW  Elec       q    Type
REMARK                         _______ _______ _______ _____ _____    ______ ____
ROOT
ATOM      1  C   UNL     1      -0.055  12.221  19.989  0.00  0.00    +0.000 C 
ATOM      2  O   UNL     1       0.963  11.402  19.338  0.00  0.00    +0.000 OA
ATOM      3  C   UNL     1       0.246  10.177  19.054  0.00  0.00    +0.000 C 
ATOM      4  C   UNL     1       1.022   9.300  18.098  0.00  0.00    +0.000 C 
ATOM      5  C   UNL     1      -1.210  10.301  18.421  0.00  0.00    +0.000 C 
ATOM      6  O   UNL     1       0.145   9.759  20.403  0.00  0.00    +0.000 OA
ATOM      7  C   UNL     1      -0.453  10.960  20.874  0.00  0.00    +0.000 C 
ATOM      8  C   UNL     1      -0.392  11.449  22.314  0.00  0.00    +0.000 C 
ATOM      9  C   UNL     1      -1.253  12.688  22.016  0.00  0.00    +0.000 C 
ATOM     10  C   UNL     1      -2.108  13.369  23.087  0.00  0.00    +0.000 C 
ATOM     11  C   UNL     1      -3.031  12.189  23.642  0.00  0.00    +0.000 C 
ATOM     12  C   UNL     1      -4.530  12.364  23.657  0.00  0.00    +0.000 C 
ATOM     13  C   UNL     1      -4.863  13.179  22.461  0.00  0.00    +0.000 C 
ATOM     14  C   UNL     1      -5.330  12.631  21.325  0.00  0.00    +0.000 C 
ATOM     15  C   UNL     1      -5.546  13.505  20.142  0.00  0.00    +0.000 C 
ATOM     16  O   UNL     1      -5.563  13.022  18.996  0.00  0.00    +0.000 OA
ATOM     17  C   UNL     1      -5.726  14.925  20.418  0.00  0.00    +0.000 C 
ATOM     18  C   UNL     1      -5.234  15.442  21.547  0.00  0.00    +0.000 C 
ATOM     19  C   UNL     1      -4.434  14.648  22.582  0.00  0.00    +0.000 C 
ATOM     20  C   UNL     1      -4.829  15.228  23.972  0.00  0.00    +0.000 C 
ATOM     21  C   UNL     1      -2.834  14.694  22.499  0.00  0.00    +0.000 C 
ATOM     22  F   UNL     1      -2.460  15.675  23.433  0.00  0.00    +0.000 F 
ATOM     23  C   UNL     1      -2.180  15.277  21.185  0.00  0.00    +0.000 C 
ATOM     24  C   UNL     1      -1.546  14.281  20.230  0.00  0.00    +0.000 C 
ATOM     25  C   UNL     1      -0.449  13.420  20.915  0.00  0.00    +0.000 C 
ATOM     26  C   UNL     1       0.693  14.298  21.430  0.00  0.00    +0.000 C 
ENDROOT
BRANCH   1  28
ATOM     27  C   UNL     1       1.909  13.135  18.367  0.00  0.00    +0.000 C 
ATOM     28  C   UNL     1       0.391  12.941  18.690  0.00  0.00    +0.000 C 
ATOM     29  O   UNL     1      -0.452  13.399  17.880  0.00  0.00    +0.000 OA
ENDBRANCH   1  28
BRANCH  23  30
ATOM     30  O   UNL     1      -2.988  16.184  20.433  0.00  0.00    +0.000 OA
ATOM     31  H   UNL     1      -2.584  17.071  20.440  0.00  0.00    +0.000 HD
ENDBRANCH  23  30
TORSDOF 2
ENDMDL
MODEL 2
REMARK VINA RESULT:      -6.4      9.260     12.801
REMARK  Name = 
REMARK  7 active torsions:
REMARK  status: ('A' for Active; 'I' for Inactive)
REMARK    1  A    between atoms: C_1  and  C_2
REMARK    2  A    between atoms: C_2  and  C_4
REMARK    3  A    between atoms: C_6  and  C_7
REMARK    4  A    between atoms: C_6  and  C_8
REMARK    5  A    between atoms: C_22  and  C_23
REMARK    6  A    between atoms: C_26  and  O_27
REMARK    7  A    between atoms: C_29  and  C_30
REMARK                            x       y       z     vdW  Elec       q    Type
REMARK                         _______ _______ _______ _____ _____    ______ ____
ROOT
ATOM      1  C   UNL     1       7.058  16.475  21.333  0.00  0.00    +0.000 C 
ATOM      2  O   UNL     1       6.261  17.180  22.334  0.00  0.00    +0.000 OA
ATOM      3  C   UNL     1       7.225  17.426  23.385  0.00  0.00    +0.000 C 
ATOM      4  C   UNL     1       6.692  18.422  24.391  0.00  0.00    +0.000 C 
ATOM      5  C   UNL     1       8.655  17.982  22.963  0.00  0.00    +0.000 C 
ATOM      6  O   UNL     1       7.340  16.074  23.789  0.00  0.00    +0.000 OA
ATOM      7  C   UNL     1       7.657  15.572  22.497  0.00  0.00    +0.000 C 
ATOM      8  C   UNL     1       7.425  14.137  22.046  0.00  0.00    +0.000 C 
ATOM      9  C   UNL     1       8.031  14.389  20.655  0.00  0.00    +0.000 C 
ATOM     10  C   UNL     1       8.674  13.275  19.827  0.00  0.00    +0.000 C 
ATOM     11  C   UNL     1       9.789  12.673  20.802  0.00  0.00    +0.000 C 
ATOM     12  C   UNL     1      11.218  12.580  20.328  0.00  0.00    +0.000 C 
ATOM     13  C   UNL     1      11.439  13.756  19.449  0.00  0.00    +0.000 C 
ATOM     14  C   UNL     1      12.066  14.867  19.879  0.00  0.00    +0.000 C 
ATOM     15  C   UNL     1      12.159  16.036  18.966  0.00  0.00    +0.000 C 
ATOM     16  O   UNL     1      12.332  17.180  19.423  0.00  0.00    +0.000 OA
ATOM     17  C   UNL     1      12.034  15.750  17.542  0.00  0.00    +0.000 C 
ATOM     18  C   UNL     1      11.390  14.649  17.148  0.00  0.00    +0.000 C 
ATOM     19  C   UNL     1      10.716  13.658  18.098  0.00  0.00    +0.000 C 
ATOM     20  C   UNL     1      10.914  12.248  17.466  0.00  0.00    +0.000 C 
ATOM     21  C   UNL     1       9.147  13.823  18.377  0.00  0.00    +0.000 C 
ATOM     22  F   UNL     1       8.535  12.910  17.502  0.00  0.00    +0.000 F 
ATOM     23  C   UNL     1       8.456  15.170  17.924  0.00  0.00    +0.000 C 
ATOM     24  C   UNL     1       8.086  16.156  19.017  0.00  0.00    +0.000 C 
ATOM     25  C   UNL     1       7.153  15.530  20.089  0.00  0.00    +0.000 C 
ATOM     26  C   UNL     1       5.832  15.074  19.466  0.00  0.00    +0.000 C 
ENDROOT
BRANCH   1  28
ATOM     27  C   UNL     1       5.035  18.200  20.821  0.00  0.00    +0.000 C 
ATOM     28  C   UNL     1       6.542  17.796  20.704  0.00  0.00    +0.000 C 
ATOM     29  O   UNL     1       7.314  18.558  20.072  0.00  0.00    +0.000 OA
ENDBRANCH   1  28
BRANCH  23  30
ATOM     30  O   UNL     1       9.100  15.878  16.864  0.00  0.00    +0.000 OA
ATOM     31  H   UNL     1       9.086  15.342  16.049  0.00  0.00    +0.000 HD
ENDBRANCH  23  30
TORSDOF 2
ENDMDL
MODEL 3
REMARK VINA RESULT:      -6.2      7.557     11.910
REMARK  Name = 
REMARK  7 active torsions:
REMARK  status: ('A' for Active; 'I' for Inactive)
REMARK    1  A    between atoms: C_1  and  C_2
REMARK    2  A    between atoms: C_2  and  C_4
REMARK    3  A    between atoms: C_6  and  C_7
REMARK    4  A    between atoms: C_6  and  C_8
REMARK    5  A    between atoms: C_22  and  C_23
REMARK    6  A    between atoms: C_26  and  O_27
REMARK    7  A    between atoms: C_29  and  C_30
REMARK                            x       y       z     vdW  Elec       q    Type
REMARK                         _______ _______ _______ _____ _____    ______ ____
ROOT
ATOM      1  C   UNL     1       6.173  16.063  20.025  0.00  0.00    +0.000 C 
ATOM      2  O   UNL     1       4.939  16.737  20.419  0.00  0.00    +0.000 OA
ATOM      3  C   UNL     1       4.131  15.644  20.916  0.00  0.00    +0.000 C 
ATOM      4  C   UNL     1       2.923  16.158  21.669  0.00  0.00    +0.000 C 
ATOM      5  C   UNL     1       4.822  14.599  21.897  0.00  0.00    +0.000 C 
ATOM      6  O   UNL     1       3.916  15.042  19.653  0.00  0.00    +0.000 OA
ATOM      7  C   UNL     1       5.293  14.945  19.313  0.00  0.00    +0.000 C 
ATOM      8  C   UNL     1       5.829  14.863  17.891  0.00  0.00    +0.000 C 
ATOM      9  C   UNL     1       7.289  14.743  18.360  0.00  0.00    +0.000 C 
ATOM     10  C   UNL     1       8.365  14.048  17.523  0.00  0.00    +0.000 C 
ATOM     11  C   UNL     1       7.759  12.591  17.263  0.00  0.00    +0.000 C 
ATOM     12  C   UNL     1       8.571  11.373  17.628  0.00  0.00    +0.000 C 
ATOM     13  C   UNL     1       9.344  11.741  18.842  0.00  0.00    +0.000 C 
ATOM     14  C   UNL     1       8.958  11.371  20.077  0.00  0.00    +0.000 C 
ATOM     15  C   UNL     1       9.733  11.862  21.247  0.00  0.00    +0.000 C 
ATOM     16  O   UNL     1       9.209  11.913  22.374  0.00  0.00    +0.000 OA
ATOM     17  C   UNL     1      11.108  12.270  20.981  0.00  0.00    +0.000 C 
ATOM     18  C   UNL     1      11.453  12.649  19.748  0.00  0.00    +0.000 C 
ATOM     19  C   UNL     1      10.482  12.733  18.568  0.00  0.00    +0.000 C 
ATOM     20  C   UNL     1      11.294  12.310  17.308  0.00  0.00    +0.000 C 
ATOM     21  C   UNL     1       9.817  14.152  18.235  0.00  0.00    +0.000 C 
ATOM     22  F   UNL     1      10.613  14.682  17.206  0.00  0.00    +0.000 F 
ATOM     23  C   UNL     1       9.940  15.296  19.318  0.00  0.00    +0.000 C 
ATOM     24  C   UNL     1       8.689  15.634  20.108  0.00  0.00    +0.000 C 
ATOM     25  C   UNL     1       7.499  16.030  19.193  0.00  0.00    +0.000 C 
ATOM     26  C   UNL     1       7.830  17.279  18.373  0.00  0.00    +0.000 C 
ENDROOT
BRANCH   1  28
ATOM     27  C   UNL     1       6.046  18.574  21.028  0.00  0.00    +0.000 C 
ATOM     28  C   UNL     1       6.511  17.085  21.142  0.00  0.00    +0.000 C 
ATOM     29  O   UNL     1       7.178  16.747  22.150  0.00  0.00    +0.000 OA
ENDBRANCH   1  28
BRANCH  23  30
ATOM     30  O   UNL     1      11.040  15.186  20.223  0.00  0.00    +0.000 OA
ATOM     31  H   UNL     1      11.534  14.364  20.046  0.00  0.00    +0.000 HD
ENDBRANCH  23  30
TORSDOF 2
ENDMDL
MODEL 4
REMARK VINA RESULT:      -6.2      7.384     11.775
REMARK  Name = 
REMARK  7 active torsions:
REMARK  status: ('A' for Active; 'I' for Inactive)
REMARK    1  A    between atoms: C_1  and  C_2
REMARK    2  A    between atoms: C_2  and  C_4
REMARK    3  A    between atoms: C_6  and  C_7
REMARK    4  A    between atoms: C_6  and  C_8
REMARK    5  A    between atoms: C_22  and  C_23
REMARK    6  A    between atoms: C_26  and  O_27
REMARK    7  A    between atoms: C_29  and  C_30
REMARK                            x       y       z     vdW  Elec       q    Type
REMARK                         _______ _______ _______ _____ _____    ______ ____
ROOT
ATOM      1  C   UNL     1       5.729  15.800  20.252  0.00  0.00    +0.000 C 
ATOM      2  O   UNL     1       4.396  16.396  20.230  0.00  0.00    +0.000 OA
ATOM      3  C   UNL     1       3.985  16.192  18.857  0.00  0.00    +0.000 C 
ATOM      4  C   UNL     1       2.505  16.455  18.687  0.00  0.00    +0.000 C 
ATOM      5  C   UNL     1       4.232  14.757  18.215  0.00  0.00    +0.000 C 
ATOM      6  O   UNL     1       4.891  17.127  18.300  0.00  0.00    +0.000 OA
ATOM      7  C   UNL     1       6.052  16.559  18.892  0.00  0.00    +0.000 C 
ATOM      8  C   UNL     1       7.345  17.318  19.158  0.00  0.00    +0.000 C 
ATOM      9  C   UNL     1       8.054  16.076  19.724  0.00  0.00    +0.000 C 
ATOM     10  C   UNL     1       9.574  15.906  19.676  0.00  0.00    +0.000 C 
ATOM     11  C   UNL     1       9.925  16.070  18.125  0.00  0.00    +0.000 C 
ATOM     12  C   UNL     1      10.714  14.991  17.425  0.00  0.00    +0.000 C 
ATOM     13  C   UNL     1      10.300  13.707  18.046  0.00  0.00    +0.000 C 
ATOM     14  C   UNL     1       9.406  12.884  17.467  0.00  0.00    +0.000 C 
ATOM     15  C   UNL     1       8.973  11.666  18.201  0.00  0.00    +0.000 C 
ATOM     16  O   UNL     1       7.889  11.120  17.930  0.00  0.00    +0.000 OA
ATOM     17  C   UNL     1       9.884  11.179  19.230  0.00  0.00    +0.000 C 
ATOM     18  C   UNL     1      10.746  12.026  19.798  0.00  0.00    +0.000 C 
ATOM     19  C   UNL     1      10.826  13.520  19.476  0.00  0.00    +0.000 C 
ATOM     20  C   UNL     1      12.333  13.902  19.565  0.00  0.00    +0.000 C 
ATOM     21  C   UNL     1      10.033  14.542  20.421  0.00  0.00    +0.000 C 
ATOM     22  F   UNL     1      11.001  15.010  21.325  0.00  0.00    +0.000 F 
ATOM     23  C   UNL     1       8.965  13.945  21.421  0.00  0.00    +0.000 C 
ATOM     24  C   UNL     1       7.502  14.156  21.073  0.00  0.00    +0.000 C 
ATOM     25  C   UNL     1       7.145  15.658  20.904  0.00  0.00    +0.000 C 
ATOM     26  C   UNL     1       7.386  16.428  22.204  0.00  0.00    +0.000 C 
ENDROOT
BRANCH   1  28
ATOM     27  C   UNL     1       3.986  15.776  22.323  0.00  0.00    +0.000 C 
ATOM     28  C   UNL     1       4.829  15.019  21.245  0.00  0.00    +0.000 C 
ATOM     29  O   UNL     1       4.771  13.765  21.218  0.00  0.00    +0.000 OA
ENDBRANCH   1  28
BRANCH  23  30
ATOM     30  O   UNL     1       9.155  12.580  21.798  0.00  0.00    +0.000 OA
ATOM     31  H   UNL     1       8.645  12.385  22.606  0.00  0.00    +0.000 HD
ENDBRANCH  23  30
TORSDOF 2
ENDMDL
MODEL 5
REMARK VINA RESULT:      -6.0      8.726     12.127
REMARK  Name = 
REMARK  7 active torsions:
REMARK  status: ('A' for Active; 'I' for Inactive)
REMARK    1  A    between atoms: C_1  and  C_2
REMARK    2  A    between atoms: C_2  and  C_4
REMARK    3  A    between atoms: C_6  and  C_7
REMARK    4  A    between atoms: C_6  and  C_8
REMARK    5  A    between atoms: C_22  and  C_23
REMARK    6  A    between atoms: C_26  and  O_27
REMARK    7  A    between atoms: C_29  and  C_30
REMARK                            x       y       z     vdW  Elec       q    Type
REMARK                         _______ _______ _______ _____ _____    ______ ____
ROOT
ATOM      1  C   UNL     1       7.126  14.434  23.387  0.00  0.00    +0.000 C 
ATOM      2  O   UNL     1       6.243  14.943  24.432  0.00  0.00    +0.000 OA
ATOM      3  C   UNL     1       5.686  16.131  23.822  0.00  0.00    +0.000 C 
ATOM      4  C   UNL     1       4.504  16.647  24.612  0.00  0.00    +0.000 C 
ATOM      5  C   UNL     1       5.171  16.021  22.321  0.00  0.00    +0.000 C 
ATOM      6  O   UNL     1       6.886  16.882  23.860  0.00  0.00    +0.000 OA
ATOM      7  C   UNL     1       7.675  15.913  23.181  0.00  0.00    +0.000 C 
ATOM      8  C   UNL     1       9.188  15.796  23.296  0.00  0.00    +0.000 C 
ATOM      9  C   UNL     1       9.256  14.628  22.297  0.00  0.00    +0.000 C 
ATOM     10  C   UNL     1      10.501  14.338  21.457  0.00  0.00    +0.000 C 
ATOM     11  C   UNL     1      10.775  15.718  20.697  0.00  0.00    +0.000 C 
ATOM     12  C   UNL     1      10.900  15.725  19.193  0.00  0.00    +0.000 C 
ATOM     13  C   UNL     1       9.969  14.680  18.697  0.00  0.00    +0.000 C 
ATOM     14  C   UNL     1       8.752  14.977  18.206  0.00  0.00    +0.000 C 
ATOM     15  C   UNL     1       7.843  13.865  17.821  0.00  0.00    +0.000 C 
ATOM     16  O   UNL     1       6.614  14.045  17.770  0.00  0.00    +0.000 OA
ATOM     17  C   UNL     1       8.482  12.589  17.521  0.00  0.00    +0.000 C 
ATOM     18  C   UNL     1       9.682  12.318  18.039  0.00  0.00    +0.000 C 
ATOM     19  C   UNL     1      10.443  13.248  18.985  0.00  0.00    +0.000 C 
ATOM     20  C   UNL     1      11.951  13.084  18.635  0.00  0.00    +0.000 C 
ATOM     21  C   UNL     1      10.305  13.001  20.562  0.00  0.00    +0.000 C 
ATOM     22  F   UNL     1      11.441  12.248  20.903  0.00  0.00    +0.000 F 
ATOM     23  C   UNL     1       9.156  12.038  21.060  0.00  0.00    +0.000 C 
ATOM     24  C   UNL     1       7.952  12.684  21.720  0.00  0.00    +0.000 C 
ATOM     25  C   UNL     1       8.345  13.557  22.943  0.00  0.00    +0.000 C 
ATOM     26  C   UNL     1       9.017  12.712  24.026  0.00  0.00    +0.000 C 
ENDROOT
BRANCH   1  28
ATOM     27  C   UNL     1       5.882  12.737  25.090  0.00  0.00    +0.000 C 
ATOM     28  C   UNL     1       6.037  13.366  23.666  0.00  0.00    +0.000 C 
ATOM     29  O   UNL     1       5.269  12.970  22.755  0.00  0.00    +0.000 OA
ENDBRANCH   1  28
BRANCH  23  30
ATOM     30  O   UNL     1       8.698  11.070  20.114  0.00  0.00    +0.000 OA
ATOM     31  H   UNL     1       8.555  11.495  19.248  0.00  0.00    +0.000 HD
ENDBRANCH  23  30
TORSDOF 2
ENDMDL
MODEL 6
REMARK VINA RESULT:      -5.9      2.262      4.139
REMARK  Name = 
REMARK  7 active torsions:
REMARK  status: ('A' for Active; 'I' for Inactive)
REMARK    1  A    between atoms: C_1  and  C_2
REMARK    2  A    between atoms: C_2  and  C_4
REMARK    3  A    between atoms: C_6  and  C_7
REMARK    4  A    between atoms: C_6  and  C_8
REMARK    5  A    between atoms: C_22  and  C_23
REMARK    6  A    between atoms: C_26  and  O_27
REMARK    7  A    between atoms: C_29  and  C_30
REMARK                            x       y       z     vdW  Elec       q    Type
REMARK                         _______ _______ _______ _____ _____    ______ ____
ROOT
ATOM      1  C   UNL     1      -1.317  11.933  20.974  0.00  0.00    +0.000 C 
ATOM      2  O   UNL     1      -1.079  10.682  20.261  0.00  0.00    +0.000 OA
ATOM      3  C   UNL     1      -0.818  11.135  18.911  0.00  0.00    +0.000 C 
ATOM      4  C   UNL     1      -0.237  10.024  18.065  0.00  0.00    +0.000 C 
ATOM      5  C   UNL     1       0.172  12.367  18.722  0.00  0.00    +0.000 C 
ATOM      6  O   UNL     1      -2.147  11.546  18.643  0.00  0.00    +0.000 OA
ATOM      7  C   UNL     1      -2.258  12.395  19.778  0.00  0.00    +0.000 C 
ATOM      8  C   UNL     1      -3.573  12.790  20.436  0.00  0.00    +0.000 C 
ATOM      9  C   UNL     1      -2.878  13.686  21.475  0.00  0.00    +0.000 C 
ATOM     10  C   UNL     1      -3.579  14.878  22.129  0.00  0.00    +0.000 C 
ATOM     11  C   UNL     1      -4.061  15.763  20.888  0.00  0.00    +0.000 C 
ATOM     12  C   UNL     1      -3.670  17.219  20.817  0.00  0.00    +0.000 C 
ATOM     13  C   UNL     1      -2.317  17.313  21.422  0.00  0.00    +0.000 C 
ATOM     14  C   UNL     1      -1.200  17.381  20.676  0.00  0.00    +0.000 C 
ATOM     15  C   UNL     1       0.120  17.375  21.359  0.00  0.00    +0.000 C 
ATOM     16  O   UNL     1       1.144  17.019  20.748  0.00  0.00    +0.000 OA
ATOM     17  C   UNL     1       0.123  17.800  22.753  0.00  0.00    +0.000 C 
ATOM     18  C   UNL     1      -0.997  17.702  23.472  0.00  0.00    +0.000 C 
ATOM     19  C   UNL     1      -2.311  17.121  22.945  0.00  0.00    +0.000 C 
ATOM     20  C   UNL     1      -3.449  17.949  23.612  0.00  0.00    +0.000 C 
ATOM     21  C   UNL     1      -2.629  15.578  23.240  0.00  0.00    +0.000 C 
ATOM     22  F   UNL     1      -3.461  15.599  24.371  0.00  0.00    +0.000 F 
ATOM     23  C   UNL     1      -1.447  14.669  23.763  0.00  0.00    +0.000 C 
ATOM     24  C   UNL     1      -0.850  13.680  22.778  0.00  0.00    +0.000 C 
ATOM     25  C   UNL     1      -1.915  12.712  22.194  0.00  0.00    +0.000 C 
ATOM     26  C   UNL     1      -2.558  11.872  23.299  0.00  0.00    +0.000 C 
ENDROOT
BRANCH   1  28
ATOM     27  C   UNL     1      -0.177   9.798  22.186  0.00  0.00    +0.000 C 
ATOM     28  C   UNL     1      -0.076  11.244  21.600  0.00  0.00    +0.000 C 
ATOM     29  O   UNL     1       1.029  11.836  21.667  0.00  0.00    +0.000 OA
ENDBRANCH   1  28
BRANCH  23  30
ATOM     30  O   UNL     1      -0.383  15.350  24.432  0.00  0.00    +0.000 OA
ATOM     31  H   UNL     1       0.213  15.758  23.778  0.00  0.00    +0.000 HD
ENDBRANCH  23  30
TORSDOF 2
ENDMDL
MODEL 7
REMARK VINA RESULT:      -5.9      7.853     12.161
REMARK  Name = 
REMARK  7 active torsions:
REMARK  status: ('A' for Active; 'I' for Inactive)
REMARK    1  A    between atoms: C_1  and  C_2
REMARK    2  A    between atoms: C_2  and  C_4
REMARK    3  A    between atoms: C_6  and  C_7
REMARK    4  A    between atoms: C_6  and  C_8
REMARK    5  A    between atoms: C_22  and  C_23
REMARK    6  A    between atoms: C_26  and  O_27
REMARK    7  A    between atoms: C_29  and  C_30
REMARK                            x       y       z     vdW  Elec       q    Type
REMARK                         _______ _______ _______ _____ _____    ______ ____
ROOT
ATOM      1  C   UNL     1       6.616  16.383  21.009  0.00  0.00    +0.000 C 
ATOM      2  O   UNL     1       5.495  16.997  21.714  0.00  0.00    +0.000 OA
ATOM      3  C   UNL     1       4.693  15.852  22.087  0.00  0.00    +0.000 C 
ATOM      4  C   UNL     1       3.637  16.232  23.101  0.00  0.00    +0.000 C 
ATOM      5  C   UNL     1       5.443  14.595  22.713  0.00  0.00    +0.000 C 
ATOM      6  O   UNL     1       4.267  15.546  20.772  0.00  0.00    +0.000 OA
ATOM      7  C   UNL     1       5.575  15.476  20.218  0.00  0.00    +0.000 C 
ATOM      8  C   UNL     1       5.903  15.686  18.746  0.00  0.00    +0.000 C 
ATOM      9  C   UNL     1       7.403  15.417  18.957  0.00  0.00    +0.000 C 
ATOM     10  C   UNL     1       8.304  14.882  17.843  0.00  0.00    +0.000 C 
ATOM     11  C   UNL     1       7.574  13.539  17.377  0.00  0.00    +0.000 C 
ATOM     12  C   UNL     1       8.346  12.243  17.354  0.00  0.00    +0.000 C 
ATOM     13  C   UNL     1       9.301  12.311  18.489  0.00  0.00    +0.000 C 
ATOM     14  C   UNL     1       9.067  11.697  19.663  0.00  0.00    +0.000 C 
ATOM     15  C   UNL     1      10.026  11.896  20.780  0.00  0.00    +0.000 C 
ATOM     16  O   UNL     1       9.667  11.719  21.958  0.00  0.00    +0.000 OA
ATOM     17  C   UNL     1      11.375  12.303  20.404  0.00  0.00    +0.000 C 
ATOM     18  C   UNL     1      11.571  12.928  19.240  0.00  0.00    +0.000 C 
ATOM     19  C   UNL     1      10.454  13.299  18.262  0.00  0.00    +0.000 C 
ATOM     20  C   UNL     1      11.054  13.131  16.835  0.00  0.00    +0.000 C 
ATOM     21  C   UNL     1       9.845  14.779  18.336  0.00  0.00    +0.000 C 
ATOM     22  F   UNL     1      10.524  15.492  17.334  0.00  0.00    +0.000 F 
ATOM     23  C   UNL     1      10.191  15.657  19.604  0.00  0.00    +0.000 C 
ATOM     24  C   UNL     1       9.086  15.858  20.625  0.00  0.00    +0.000 C 
ATOM     25  C   UNL     1       7.809  16.485  20.001  0.00  0.00    +0.000 C 
ATOM     26  C   UNL     1       8.106  17.869  19.421  0.00  0.00    +0.000 C 
ENDROOT
BRANCH   1  28
ATOM     27  C   UNL     1       6.799  18.621  22.520  0.00  0.00    +0.000 C 
ATOM     28  C   UNL     1       7.171  17.126  22.252  0.00  0.00    +0.000 C 
ATOM     29  O   UNL     1       7.943  16.553  23.058  0.00  0.00    +0.000 OA
ENDBRANCH   1  28
BRANCH  23  30
ATOM     30  O   UNL     1      11.396  15.314  20.292  0.00  0.00    +0.000 OA
ATOM     31  H   UNL     1      11.670  14.410  20.051  0.00  0.00    +0.000 HD
ENDBRANCH  23  30
TORSDOF 2
ENDMDL
MODEL 8
REMARK VINA RESULT:      -5.9      1.857      6.236
REMARK  Name = 
REMARK  7 active torsions:
REMARK  status: ('A' for Active; 'I' for Inactive)
REMARK    1  A    between atoms: C_1  and  C_2
REMARK    2  A    between atoms: C_2  and  C_4
REMARK    3  A    between atoms: C_6  and  C_7
REMARK    4  A    between atoms: C_6  and  C_8
REMARK    5  A    between atoms: C_22  and  C_23
REMARK    6  A    between atoms: C_26  and  O_27
REMARK    7  A    between atoms: C_29  and  C_30
REMARK                            x       y       z     vdW  Elec       q    Type
REMARK                         _______ _______ _______ _____ _____    ______ ____
ROOT
ATOM      1  C   UNL     1      -4.534  14.487  21.830  0.00  0.00    +0.000 C 
ATOM      2  O   UNL     1      -5.954  14.811  21.936  0.00  0.00    +0.000 OA
ATOM      3  C   UNL     1      -6.405  14.694  20.566  0.00  0.00    +0.000 C 
ATOM      4  C   UNL     1      -7.916  14.683  20.489  0.00  0.00    +0.000 C 
ATOM      5  C   UNL     1      -5.934  13.421  19.737  0.00  0.00    +0.000 C 
ATOM      6  O   UNL     1      -5.728  15.846  20.098  0.00  0.00    +0.000 OA
ATOM      7  C   UNL     1      -4.446  15.450  20.566  0.00  0.00    +0.000 C 
ATOM      8  C   UNL     1      -3.304  16.408  20.876  0.00  0.00    +0.000 C 
ATOM      9  C   UNL     1      -2.340  15.269  21.250  0.00  0.00    +0.000 C 
ATOM     10  C   UNL     1      -0.822  15.404  21.121  0.00  0.00    +0.000 C 
ATOM     11  C   UNL     1      -0.606  15.815  19.591  0.00  0.00    +0.000 C 
ATOM     12  C   UNL     1       0.325  15.000  18.728  0.00  0.00    +0.000 C 
ATOM     13  C   UNL     1       0.200  13.597  19.196  0.00  0.00    +0.000 C 
ATOM     14  C   UNL     1      -0.558  12.690  18.552  0.00  0.00    +0.000 C 
ATOM     15  C   UNL     1      -0.707  11.333  19.141  0.00  0.00    +0.000 C 
ATOM     16  O   UNL     1      -1.684  10.622  18.845  0.00  0.00    +0.000 OA
ATOM     17  C   UNL     1       0.342  10.914  20.062  0.00  0.00    +0.000 C 
ATOM     18  C   UNL     1       1.064  11.839  20.700  0.00  0.00    +0.000 C 
ATOM     19  C   UNL     1       0.841  13.348  20.568  0.00  0.00    +0.000 C 
ATOM     20  C   UNL     1       2.252  14.002  20.646  0.00  0.00    +0.000 C 
ATOM     21  C   UNL     1      -0.068  14.077  21.667  0.00  0.00    +0.000 C 
ATOM     22  F   UNL     1       0.850  14.615  22.585  0.00  0.00    +0.000 F 
ATOM     23  C   UNL     1      -0.940  13.170  22.623  0.00  0.00    +0.000 C 
ATOM     24  C   UNL     1      -2.435  13.133  22.363  0.00  0.00    +0.000 C 
ATOM     25  C   UNL     1      -3.078  14.546  22.402  0.00  0.00    +0.000 C 
ATOM     26  C   UNL     1      -2.904  15.189  23.779  0.00  0.00    +0.000 C 
ENDROOT
BRANCH   1  28
ATOM     27  C   UNL     1      -6.174  13.877  23.895  0.00  0.00    +0.000 C 
ATOM     28  C   UNL     1      -5.206  13.434  22.749  0.00  0.00    +0.000 C 
ATOM     29  O   UNL     1      -4.976  12.208  22.607  0.00  0.00    +0.000 OA
ENDBRANCH   1  28
BRANCH  23  30
ATOM     30  O   UNL     1      -0.473  11.834  22.815  0.00  0.00    +0.000 OA
ATOM     31  H   UNL     1      -1.118  11.330  23.345  0.00  0.00    +0.000 HD
ENDBRANCH  23  30
TORSDOF 2
ENDMDL
MODEL 9
REMARK VINA RESULT:      -5.9      9.482     12.923
REMARK  Name = 
REMARK  7 active torsions:
REMARK  status: ('A' for Active; 'I' for Inactive)
REMARK    1  A    between atoms: C_1  and  C_2
REMARK    2  A    between atoms: C_2  and  C_4
REMARK    3  A    between atoms: C_6  and  C_7
REMARK    4  A    between atoms: C_6  and  C_8
REMARK    5  A    between atoms: C_22  and  C_23
REMARK    6  A    between atoms: C_26  and  O_27
REMARK    7  A    between atoms: C_29  and  C_30
REMARK                            x       y       z     vdW  Elec       q    Type
REMARK                         _______ _______ _______ _____ _____    ______ ____
ROOT
ATOM      1  C   UNL     1       7.894  15.296  23.142  0.00  0.00    +0.000 C 
ATOM      2  O   UNL     1       7.434  15.650  24.482  0.00  0.00    +0.000 OA
ATOM      3  C   UNL     1       8.669  15.706  25.232  0.00  0.00    +0.000 C 
ATOM      4  C   UNL     1       8.460  16.363  26.579  0.00  0.00    +0.000 C 
ATOM      5  C   UNL     1       9.899  16.475  24.578  0.00  0.00    +0.000 C 
ATOM      6  O   UNL     1       8.912  14.311  25.207  0.00  0.00    +0.000 OA
ATOM      7  C   UNL     1       8.825  14.183  23.794  0.00  0.00    +0.000 C 
ATOM      8  C   UNL     1       8.478  12.895  23.063  0.00  0.00    +0.000 C 
ATOM      9  C   UNL     1       8.631  13.544  21.676  0.00  0.00    +0.000 C 
ATOM     10  C   UNL     1       9.000  12.737  20.430  0.00  0.00    +0.000 C 
ATOM     11  C   UNL     1      10.363  12.009  20.839  0.00  0.00    +0.000 C 
ATOM     12  C   UNL     1      11.581  12.166  19.963  0.00  0.00    +0.000 C 
ATOM     13  C   UNL     1      11.516  13.542  19.407  0.00  0.00    +0.000 C 
ATOM     14  C   UNL     1      12.235  14.558  19.918  0.00  0.00    +0.000 C 
ATOM     15  C   UNL     1      12.038  15.924  19.367  0.00  0.00    +0.000 C 
ATOM     16  O   UNL     1      12.333  16.925  20.043  0.00  0.00    +0.000 OA
ATOM     17  C   UNL     1      11.488  15.999  18.019  0.00  0.00    +0.000 C 
ATOM     18  C   UNL     1      10.763  14.981  17.548  0.00  0.00    +0.000 C 
ATOM     19  C   UNL     1      10.417  13.725  18.351  0.00  0.00    +0.000 C 
ATOM     20  C   UNL     1      10.424  12.545  17.335  0.00  0.00    +0.000 C 
ATOM     21  C   UNL     1       9.005  13.675  19.107  0.00  0.00    +0.000 C 
ATOM     22  F   UNL     1       8.163  12.963  18.237  0.00  0.00    +0.000 F 
ATOM     23  C   UNL     1       8.199  15.026  19.254  0.00  0.00    +0.000 C 
ATOM     24  C   UNL     1       8.172  15.666  20.630  0.00  0.00    +0.000 C 
ATOM     25  C   UNL     1       7.613  14.708  21.718  0.00  0.00    +0.000 C 
ATOM     26  C   UNL     1       6.169  14.310  21.408  0.00  0.00    +0.000 C 
ENDROOT
BRANCH   1  28
ATOM     27  C   UNL     1       5.753  16.880  23.627  0.00  0.00    +0.000 C 
ATOM     28  C   UNL     1       7.200  16.681  23.068  0.00  0.00    +0.000 C 
ATOM     29  O   UNL     1       7.775  17.667  22.545  0.00  0.00    +0.000 OA
ENDBRANCH   1  28
BRANCH  23  30
ATOM     30  O   UNL     1       8.486  16.034  18.283  0.00  0.00    +0.000 OA
ATOM     31  H   UNL     1       8.613  16.894  18.726  0.00  0.00    +0.000 HD
ENDBRANCH  23  30
TORSDOF 2
ENDMDL
