MODEL 1
REMARK VINA RESULT:      -8.4      0.000      0.000
REMARK  Name = 
REMARK  8 active torsions:
REMARK  status: ('A' for Active; 'I' for Inactive)
REMARK    1  A    between atoms: C_1  and  C_2
REMARK    2  A    between atoms: C_2  and  C_3
REMARK    3  A    between atoms: C_3  and  C_4
REMARK    4  A    between atoms: C_4  and  N_5
REMARK    5  A    between atoms: C_6  and  C_8
REMARK    6  A    between atoms: C_13  and  C_14
REMARK    7  A    between atoms: N_16  and  C_17
REMARK    8  A    between atoms: C_19  and  C_20
REMARK                            x       y       z     vdW  Elec       q    Type
REMARK                         _______ _______ _______ _____ _____    ______ ____
ROOT
ATOM      1  C   UNL     1       3.124   6.473  17.616  0.00  0.00    +0.000 C 
ATOM      2  O   UNL     1       2.206   5.679  17.832  0.00  0.00    +0.000 OA
ATOM      3  N   UNL     1       3.116   7.806  17.976  0.00  0.00    +0.000 N 
ATOM      4  H   UNL     1       3.674   8.434  17.406  0.00  0.00    +0.000 HD
ENDROOT
BRANCH   3   5
ATOM      5  C   UNL     1       2.036   8.426  18.647  0.00  0.00    +0.000 A 
ATOM      6  C   UNL     1       1.098   9.209  17.979  0.00  0.00    +0.000 A 
ATOM      7  C   UNL     1       0.122   9.952  18.661  0.00  0.00    +0.000 A 
ATOM      8  C   UNL     1      -0.810  10.823  17.869  0.00  0.00    +0.000 C 
ATOM      9  C   UNL     1       0.090   9.871  20.074  0.00  0.00    +0.000 A 
ATOM     10  N   UNL     1      -0.774  10.557  20.912  0.00  0.00    +0.000 NA
ATOM     11  C   UNL     1      -0.491  10.293  22.173  0.00  0.00    +0.000 A 
ATOM     12  N   UNL     1      -1.138  10.847  23.201  0.00  0.00    +0.000 N 
ATOM     13  S   UNL     1       0.769   9.163  22.424  0.00  0.00    +0.000 S 
ATOM     14  C   UNL     1       1.008   9.041  20.724  0.00  0.00    +0.000 A 
ATOM     15  C   UNL     1       1.970   8.288  20.034  0.00  0.00    +0.000 A 
ATOM     16  H   UNL     1      -2.031  11.280  22.996  0.00  0.00    +0.000 HD
ATOM     17  H   UNL     1      -1.083  10.392  24.108  0.00  0.00    +0.000 HD
ENDBRANCH   3   5
BRANCH   1  23
ATOM     18  C   UNL     1       4.548   4.453  16.832  0.00  0.00    +0.000 C 
ATOM     19  C   UNL     1       5.949   3.992  16.402  0.00  0.00    +0.000 C 
ATOM     20  C   UNL     1       7.120   4.751  17.015  0.00  0.00    +0.000 C 
ATOM     21  C   UNL     1       6.922   6.258  16.978  0.00  0.00    +0.000 C 
ATOM     22  C   UNL     1       5.606   6.638  17.626  0.00  0.00    +0.000 C 
ATOM     23  C   UNL     1       4.401   5.982  16.930  0.00  0.00    +0.000 C 
BRANCH  18  25
ATOM     24  N   UNL     1       2.751   2.940  17.733  0.00  0.00    +0.000 N 
ATOM     25  C   UNL     1       3.866   3.698  17.979  0.00  0.00    +0.000 C 
ATOM     26  O   UNL     1       4.414   3.716  19.087  0.00  0.00    +0.000 OA
ATOM     27  H   UNL     1       2.383   2.843  16.796  0.00  0.00    +0.000 HD
BRANCH  24  28
ATOM     28  C   UNL     1       2.216   2.086  18.794  0.00  0.00    +0.000 C 
BRANCH  28  29
ATOM     29  C   UNL     1       0.868   2.552  19.347  0.00  0.00    +0.000 C 
BRANCH  29  31
ATOM     30  C   UNL     1       1.895   2.977  21.616  0.00  0.00    +0.000 C 
ATOM     31  C   UNL     1       1.049   3.552  20.493  0.00  0.00    +0.000 C 
ENDBRANCH  29  31
ENDBRANCH  28  29
ENDBRANCH  24  28
ENDBRANCH  18  25
ENDBRANCH   1  23
TORSDOF 6
ENDMDL
MODEL 2
REMARK VINA RESULT:      -8.0      0.881      1.077
REMARK  Name = 
REMARK  8 active torsions:
REMARK  status: ('A' for Active; 'I' for Inactive)
REMARK    1  A    between atoms: C_1  and  C_2
REMARK    2  A    between atoms: C_2  and  C_3
REMARK    3  A    between atoms: C_3  and  C_4
REMARK    4  A    between atoms: C_4  and  N_5
REMARK    5  A    between atoms: C_6  and  C_8
REMARK    6  A    between atoms: C_13  and  C_14
REMARK    7  A    between atoms: N_16  and  C_17
REMARK    8  A    between atoms: C_19  and  C_20
REMARK                            x       y       z     vdW  Elec       q    Type
REMARK                         _______ _______ _______ _____ _____    ______ ____
ROOT
ATOM      1  C   UNL     1       3.656   6.665  18.177  0.00  0.00    +0.000 C 
ATOM      2  O   UNL     1       3.425   6.073  19.234  0.00  0.00    +0.000 OA
ATOM      3  N   UNL     1       2.986   7.791  17.742  0.00  0.00    +0.000 N 
ATOM      4  H   UNL     1       2.939   7.933  16.737  0.00  0.00    +0.000 HD
ENDROOT
BRANCH   3   5
ATOM      5  C   UNL     1       1.941   8.408  18.469  0.00  0.00    +0.000 A 
ATOM      6  C   UNL     1       0.966   9.189  17.851  0.00  0.00    +0.000 A 
ATOM      7  C   UNL     1       0.025   9.928  18.584  0.00  0.00    +0.000 A 
ATOM      8  C   UNL     1      -0.950  10.797  17.843  0.00  0.00    +0.000 C 
ATOM      9  C   UNL     1       0.066   9.845  19.997  0.00  0.00    +0.000 A 
ATOM     10  N   UNL     1      -0.755  10.528  20.879  0.00  0.00    +0.000 NA
ATOM     11  C   UNL     1      -0.406  10.264  22.124  0.00  0.00    +0.000 A 
ATOM     12  N   UNL     1      -1.001  10.814  23.184  0.00  0.00    +0.000 N 
ATOM     13  S   UNL     1       0.868   9.137  22.307  0.00  0.00    +0.000 S 
ATOM     14  C   UNL     1       1.020   9.018  20.598  0.00  0.00    +0.000 A 
ATOM     15  C   UNL     1       1.947   8.269  19.857  0.00  0.00    +0.000 A 
ATOM     16  H   UNL     1      -1.904  11.245  23.027  0.00  0.00    +0.000 HD
ATOM     17  H   UNL     1      -0.898  10.359  24.087  0.00  0.00    +0.000 HD
ENDBRANCH   3   5
BRANCH   1  23
ATOM     18  C   UNL     1       4.515   4.829  16.562  0.00  0.00    +0.000 C 
ATOM     19  C   UNL     1       5.756   4.228  15.887  0.00  0.00    +0.000 C 
ATOM     20  C   UNL     1       7.062   4.342  16.664  0.00  0.00    +0.000 C 
ATOM     21  C   UNL     1       7.278   5.733  17.238  0.00  0.00    +0.000 C 
ATOM     22  C   UNL     1       6.088   6.154  18.075  0.00  0.00    +0.000 C 
ATOM     23  C   UNL     1       4.780   6.172  17.265  0.00  0.00    +0.000 C 
BRANCH  18  25
ATOM     24  N   UNL     1       4.115   3.192  18.431  0.00  0.00    +0.000 N 
ATOM     25  C   UNL     1       3.608   3.887  17.363  0.00  0.00    +0.000 C 
ATOM     26  O   UNL     1       2.406   3.865  17.080  0.00  0.00    +0.000 OA
ATOM     27  H   UNL     1       5.076   3.311  18.721  0.00  0.00    +0.000 HD
BRANCH  24  28
ATOM     28  C   UNL     1       3.205   2.438  19.293  0.00  0.00    +0.000 C 
BRANCH  28  29
ATOM     29  C   UNL     1       3.154   2.943  20.736  0.00  0.00    +0.000 C 
BRANCH  29  31
ATOM     30  C   UNL     1       0.869   3.944  20.331  0.00  0.00    +0.000 C 
ATOM     31  C   UNL     1       1.710   3.060  21.236  0.00  0.00    +0.000 C 
ENDBRANCH  29  31
ENDBRANCH  28  29
ENDBRANCH  24  28
ENDBRANCH  18  25
ENDBRANCH   1  23
TORSDOF 6
ENDMDL
MODEL 3
REMARK VINA RESULT:      -7.8      0.720      1.036
REMARK  Name = 
REMARK  8 active torsions:
REMARK  status: ('A' for Active; 'I' for Inactive)
REMARK    1  A    between atoms: C_1  and  C_2
REMARK    2  A    between atoms: C_2  and  C_3
REMARK    3  A    between atoms: C_3  and  C_4
REMARK    4  A    between atoms: C_4  and  N_5
REMARK    5  A    between atoms: C_6  and  C_8
REMARK    6  A    between atoms: C_13  and  C_14
REMARK    7  A    between atoms: N_16  and  C_17
REMARK    8  A    between atoms: C_19  and  C_20
REMARK                            x       y       z     vdW  Elec       q    Type
REMARK                         _______ _______ _______ _____ _____    ______ ____
ROOT
ATOM      1  C   UNL     1       3.089   6.402  17.709  0.00  0.00    +0.000 C 
ATOM      2  O   UNL     1       2.125   5.647  17.847  0.00  0.00    +0.000 OA
ATOM      3  N   UNL     1       3.123   7.721  18.115  0.00  0.00    +0.000 N 
ATOM      4  H   UNL     1       3.740   8.341  17.598  0.00  0.00    +0.000 HD
ENDROOT
BRANCH   3   5
ATOM      5  C   UNL     1       2.037   8.372  18.748  0.00  0.00    +0.000 A 
ATOM      6  C   UNL     1       1.130   9.159  18.042  0.00  0.00    +0.000 A 
ATOM      7  C   UNL     1       0.150   9.930  18.687  0.00  0.00    +0.000 A 
ATOM      8  C   UNL     1      -0.746  10.803  17.857  0.00  0.00    +0.000 C 
ATOM      9  C   UNL     1       0.080   9.872  20.100  0.00  0.00    +0.000 A 
ATOM     10  N   UNL     1      -0.793  10.587  20.904  0.00  0.00    +0.000 NA
ATOM     11  C   UNL     1      -0.548  10.339  22.176  0.00  0.00    +0.000 A 
ATOM     12  N   UNL     1      -1.211  10.921  23.178  0.00  0.00    +0.000 N 
ATOM     13  S   UNL     1       0.686   9.193  22.478  0.00  0.00    +0.000 S 
ATOM     14  C   UNL     1       0.967   9.038  20.787  0.00  0.00    +0.000 A 
ATOM     15  C   UNL     1       1.933   8.258  20.134  0.00  0.00    +0.000 A 
ATOM     16  H   UNL     1      -2.091  11.366  22.943  0.00  0.00    +0.000 HD
ATOM     17  H   UNL     1      -1.187  10.480  24.093  0.00  0.00    +0.000 HD
ENDBRANCH   3   5
BRANCH   1  23
ATOM     18  C   UNL     1       4.850   4.502  17.596  0.00  0.00    +0.000 C 
ATOM     19  C   UNL     1       6.274   4.132  17.159  0.00  0.00    +0.000 C 
ATOM     20  C   UNL     1       7.299   5.260  17.191  0.00  0.00    +0.000 C 
ATOM     21  C   UNL     1       6.771   6.544  16.569  0.00  0.00    +0.000 C 
ATOM     22  C   UNL     1       5.466   6.952  17.220  0.00  0.00    +0.000 C 
ATOM     23  C   UNL     1       4.378   5.873  17.078  0.00  0.00    +0.000 C 
BRANCH  18  25
ATOM     24  N   UNL     1       3.543   3.245  19.341  0.00  0.00    +0.000 N 
ATOM     25  C   UNL     1       4.453   4.229  19.052  0.00  0.00    +0.000 C 
ATOM     26  O   UNL     1       5.054   4.846  19.938  0.00  0.00    +0.000 OA
ATOM     27  H   UNL     1       3.147   2.670  18.610  0.00  0.00    +0.000 HD
BRANCH  24  28
ATOM     28  C   UNL     1       3.307   2.875  20.737  0.00  0.00    +0.000 C 
BRANCH  28  29
ATOM     29  C   UNL     1       1.842   2.576  21.062  0.00  0.00    +0.000 C 
BRANCH  29  31
ATOM     30  C   UNL     1       0.505   2.519  18.918  0.00  0.00    +0.000 C 
ATOM     31  C   UNL     1       0.896   3.343  20.133  0.00  0.00    +0.000 C 
ENDBRANCH  29  31
ENDBRANCH  28  29
ENDBRANCH  24  28
ENDBRANCH  18  25
ENDBRANCH   1  23
TORSDOF 6
ENDMDL
MODEL 4
REMARK VINA RESULT:      -7.7      1.274      1.923
REMARK  Name = 
REMARK  8 active torsions:
REMARK  status: ('A' for Active; 'I' for Inactive)
REMARK    1  A    between atoms: C_1  and  C_2
REMARK    2  A    between atoms: C_2  and  C_3
REMARK    3  A    between atoms: C_3  and  C_4
REMARK    4  A    between atoms: C_4  and  N_5
REMARK    5  A    between atoms: C_6  and  C_8
REMARK    6  A    between atoms: C_13  and  C_14
REMARK    7  A    between atoms: N_16  and  C_17
REMARK    8  A    between atoms: C_19  and  C_20
REMARK                            x       y       z     vdW  Elec       q    Type
REMARK                         _______ _______ _______ _____ _____    ______ ____
ROOT
ATOM      1  C   UNL     1       3.209   6.555  17.589  0.00  0.00    +0.000 C 
ATOM      2  O   UNL     1       2.253   5.824  17.858  0.00  0.00    +0.000 OA
ATOM      3  N   UNL     1       3.307   7.887  17.939  0.00  0.00    +0.000 N 
ATOM      4  H   UNL     1       3.876   8.474  17.335  0.00  0.00    +0.000 HD
ENDROOT
BRANCH   3   5
ATOM      5  C   UNL     1       2.307   8.581  18.658  0.00  0.00    +0.000 A 
ATOM      6  C   UNL     1       1.910   8.197  19.938  0.00  0.00    +0.000 A 
ATOM      7  C   UNL     1       0.813   8.784  20.588  0.00  0.00    +0.000 A 
ATOM      8  C   UNL     1       0.411   8.266  21.938  0.00  0.00    +0.000 C 
ATOM      9  C   UNL     1       0.115   9.816  19.916  0.00  0.00    +0.000 A 
ATOM     10  N   UNL     1      -1.007  10.481  20.384  0.00  0.00    +0.000 NA
ATOM     11  C   UNL     1      -1.436  11.341  19.481  0.00  0.00    +0.000 A 
ATOM     12  N   UNL     1      -2.525  12.095  19.645  0.00  0.00    +0.000 N 
ATOM     13  S   UNL     1      -0.489  11.451  18.060  0.00  0.00    +0.000 S 
ATOM     14  C   UNL     1       0.557  10.221  18.653  0.00  0.00    +0.000 A 
ATOM     15  C   UNL     1       1.666   9.641  18.017  0.00  0.00    +0.000 A 
ATOM     16  H   UNL     1      -2.876  12.187  20.592  0.00  0.00    +0.000 HD
ATOM     17  H   UNL     1      -2.630  12.926  19.070  0.00  0.00    +0.000 HD
ENDBRANCH   3   5
BRANCH   1  23
ATOM     18  C   UNL     1       4.451   4.441  16.745  0.00  0.00    +0.000 C 
ATOM     19  C   UNL     1       5.794   3.885  16.249  0.00  0.00    +0.000 C 
ATOM     20  C   UNL     1       7.043   4.561  16.802  0.00  0.00    +0.000 C 
ATOM     21  C   UNL     1       6.948   6.079  16.769  0.00  0.00    +0.000 C 
ATOM     22  C   UNL     1       5.694   6.548  17.478  0.00  0.00    +0.000 C 
ATOM     23  C   UNL     1       4.414   5.977  16.844  0.00  0.00    +0.000 C 
BRANCH  18  25
ATOM     24  N   UNL     1       2.606   3.045  17.735  0.00  0.00    +0.000 N 
ATOM     25  C   UNL     1       3.775   3.735  17.927  0.00  0.00    +0.000 C 
ATOM     26  O   UNL     1       4.371   3.726  19.009  0.00  0.00    +0.000 OA
ATOM     27  H   UNL     1       2.192   2.966  16.816  0.00  0.00    +0.000 HD
BRANCH  24  28
ATOM     28  C   UNL     1       2.067   2.231  18.826  0.00  0.00    +0.000 C 
BRANCH  28  29
ATOM     29  C   UNL     1       0.806   2.809  19.468  0.00  0.00    +0.000 C 
BRANCH  29  31
ATOM     30  C   UNL     1       2.007   3.130  21.668  0.00  0.00    +0.000 C 
ATOM     31  C   UNL     1       1.150   3.785  20.598  0.00  0.00    +0.000 C 
ENDBRANCH  29  31
ENDBRANCH  28  29
ENDBRANCH  24  28
ENDBRANCH  18  25
ENDBRANCH   1  23
TORSDOF 6
ENDMDL
MODEL 5
REMARK VINA RESULT:      -7.6      1.995      4.343
REMARK  Name = 
REMARK  8 active torsions:
REMARK  status: ('A' for Active; 'I' for Inactive)
REMARK    1  A    between atoms: C_1  and  C_2
REMARK    2  A    between atoms: C_2  and  C_3
REMARK    3  A    between atoms: C_3  and  C_4
REMARK    4  A    between atoms: C_4  and  N_5
REMARK    5  A    between atoms: C_6  and  C_8
REMARK    6  A    between atoms: C_13  and  C_14
REMARK    7  A    between atoms: N_16  and  C_17
REMARK    8  A    between atoms: C_19  and  C_20
REMARK                            x       y       z     vdW  Elec       q    Type
REMARK                         _______ _______ _______ _____ _____    ______ ____
ROOT
ATOM      1  C   UNL     1       2.154   5.595  19.448  0.00  0.00    +0.000 C 
ATOM      2  O   UNL     1       2.111   6.085  18.317  0.00  0.00    +0.000 OA
ATOM      3  N   UNL     1       1.904   6.286  20.617  0.00  0.00    +0.000 N 
ATOM      4  H   UNL     1       2.366   5.943  21.454  0.00  0.00    +0.000 HD
ENDROOT
BRANCH   3   5
ATOM      5  C   UNL     1       1.564   7.658  20.656  0.00  0.00    +0.000 A 
ATOM      6  C   UNL     1       0.879   8.223  21.730  0.00  0.00    +0.000 A 
ATOM      7  C   UNL     1       0.402   9.543  21.701  0.00  0.00    +0.000 A 
ATOM      8  C   UNL     1      -0.386  10.054  22.873  0.00  0.00    +0.000 C 
ATOM      9  C   UNL     1       0.658  10.319  20.545  0.00  0.00    +0.000 A 
ATOM     10  N   UNL     1       0.237  11.620  20.325  0.00  0.00    +0.000 NA
ATOM     11  C   UNL     1       0.598  12.019  19.121  0.00  0.00    +0.000 A 
ATOM     12  N   UNL     1       0.292  13.219  18.624  0.00  0.00    +0.000 N 
ATOM     13  S   UNL     1       1.517  10.893  18.218  0.00  0.00    +0.000 S 
ATOM     14  C   UNL     1       1.390   9.751  19.498  0.00  0.00    +0.000 A 
ATOM     15  C   UNL     1       1.878   8.436  19.541  0.00  0.00    +0.000 A 
ATOM     16  H   UNL     1      -0.004  13.925  19.288  0.00  0.00    +0.000 HD
ATOM     17  H   UNL     1       0.837  13.571  17.842  0.00  0.00    +0.000 HD
ENDBRANCH   3   5
BRANCH   1  23
ATOM     18  C   UNL     1       3.967   3.761  19.707  0.00  0.00    +0.000 C 
ATOM     19  C   UNL     1       4.262   2.258  19.589  0.00  0.00    +0.000 C 
ATOM     20  C   UNL     1       3.451   1.496  18.548  0.00  0.00    +0.000 C 
ATOM     21  C   UNL     1       1.970   1.837  18.600  0.00  0.00    +0.000 C 
ATOM     22  C   UNL     1       1.764   3.334  18.487  0.00  0.00    +0.000 C 
ATOM     23  C   UNL     1       2.470   4.108  19.614  0.00  0.00    +0.000 C 
BRANCH  18  25
ATOM     24  N   UNL     1       4.768   4.824  17.572  0.00  0.00    +0.000 N 
ATOM     25  C   UNL     1       4.870   4.731  18.936  0.00  0.00    +0.000 C 
ATOM     26  O   UNL     1       5.598   5.485  19.591  0.00  0.00    +0.000 OA
ATOM     27  H   UNL     1       4.083   4.282  17.062  0.00  0.00    +0.000 HD
BRANCH  24  28
ATOM     28  C   UNL     1       5.504   5.875  16.868  0.00  0.00    +0.000 C 
BRANCH  28  29
ATOM     29  C   UNL     1       6.541   5.349  15.875  0.00  0.00    +0.000 C 
BRANCH  29  31
ATOM     30  C   UNL     1       6.191   3.954  13.797  0.00  0.00    +0.000 C 
ATOM     31  C   UNL     1       6.137   3.981  15.315  0.00  0.00    +0.000 C 
ENDBRANCH  29  31
ENDBRANCH  28  29
ENDBRANCH  24  28
ENDBRANCH  18  25
ENDBRANCH   1  23
TORSDOF 6
ENDMDL
MODEL 6
REMARK VINA RESULT:      -7.4      1.518      2.185
REMARK  Name = 
REMARK  8 active torsions:
REMARK  status: ('A' for Active; 'I' for Inactive)
REMARK    1  A    between atoms: C_1  and  C_2
REMARK    2  A    between atoms: C_2  and  C_3
REMARK    3  A    between atoms: C_3  and  C_4
REMARK    4  A    between atoms: C_4  and  N_5
REMARK    5  A    between atoms: C_6  and  C_8
REMARK    6  A    between atoms: C_13  and  C_14
REMARK    7  A    between atoms: N_16  and  C_17
REMARK    8  A    between atoms: C_19  and  C_20
REMARK                            x       y       z     vdW  Elec       q    Type
REMARK                         _______ _______ _______ _____ _____    ______ ____
ROOT
ATOM      1  C   UNL     1       3.716   6.690  18.140  0.00  0.00    +0.000 C 
ATOM      2  O   UNL     1       3.578   6.152  19.241  0.00  0.00    +0.000 OA
ATOM      3  N   UNL     1       3.071   7.843  17.740  0.00  0.00    +0.000 N 
ATOM      4  H   UNL     1       2.912   7.952  16.743  0.00  0.00    +0.000 HD
ENDROOT
BRANCH   3   5
ATOM      5  C   UNL     1       2.162   8.554  18.559  0.00  0.00    +0.000 A 
ATOM      6  C   UNL     1       1.837   8.133  19.847  0.00  0.00    +0.000 A 
ATOM      7  C   UNL     1       0.822   8.744  20.599  0.00  0.00    +0.000 A 
ATOM      8  C   UNL     1       0.488   8.187  21.953  0.00  0.00    +0.000 C 
ATOM      9  C   UNL     1       0.135   9.841  20.024  0.00  0.00    +0.000 A 
ATOM     10  N   UNL     1      -0.913  10.541  20.600  0.00  0.00    +0.000 NA
ATOM     11  C   UNL     1      -1.358  11.462  19.767  0.00  0.00    +0.000 A 
ATOM     12  N   UNL     1      -2.390  12.262  20.042  0.00  0.00    +0.000 N 
ATOM     13  S   UNL     1      -0.508  11.588  18.287  0.00  0.00    +0.000 S 
ATOM     14  C   UNL     1       0.509  10.280  18.751  0.00  0.00    +0.000 A 
ATOM     15  C   UNL     1       1.536   9.674  18.012  0.00  0.00    +0.000 A 
ATOM     16  H   UNL     1      -2.668  12.329  21.015  0.00  0.00    +0.000 HD
ATOM     17  H   UNL     1      -2.489  13.123  19.511  0.00  0.00    +0.000 HD
ENDBRANCH   3   5
BRANCH   1  23
ATOM     18  C   UNL     1       4.214   4.792  16.446  0.00  0.00    +0.000 C 
ATOM     19  C   UNL     1       5.313   4.070  15.653  0.00  0.00    +0.000 C 
ATOM     20  C   UNL     1       6.692   4.035  16.301  0.00  0.00    +0.000 C 
ATOM     21  C   UNL     1       7.111   5.389  16.853  0.00  0.00    +0.000 C 
ATOM     22  C   UNL     1       6.058   5.924  17.802  0.00  0.00    +0.000 C 
ATOM     23  C   UNL     1       4.688   6.091  17.123  0.00  0.00    +0.000 C 
BRANCH  18  25
ATOM     24  N   UNL     1       3.817   3.225  18.376  0.00  0.00    +0.000 N 
ATOM     25  C   UNL     1       3.293   3.943  17.331  0.00  0.00    +0.000 C 
ATOM     26  O   UNL     1       2.075   4.016  17.133  0.00  0.00    +0.000 OA
ATOM     27  H   UNL     1       4.803   3.268  18.595  0.00  0.00    +0.000 HD
BRANCH  24  28
ATOM     28  C   UNL     1       2.912   2.564  19.317  0.00  0.00    +0.000 C 
BRANCH  28  29
ATOM     29  C   UNL     1       3.170   2.919  20.781  0.00  0.00    +0.000 C 
BRANCH  29  31
ATOM     30  C   UNL     1       0.990   4.161  20.478  0.00  0.00    +0.000 C 
ATOM     31  C   UNL     1       1.902   3.447  21.461  0.00  0.00    +0.000 C 
ENDBRANCH  29  31
ENDBRANCH  28  29
ENDBRANCH  24  28
ENDBRANCH  18  25
ENDBRANCH   1  23
TORSDOF 6
ENDMDL
MODEL 7
REMARK VINA RESULT:      -7.3      3.326      8.511
REMARK  Name = 
REMARK  8 active torsions:
REMARK  status: ('A' for Active; 'I' for Inactive)
REMARK    1  A    between atoms: C_1  and  C_2
REMARK    2  A    between atoms: C_2  and  C_3
REMARK    3  A    between atoms: C_3  and  C_4
REMARK    4  A    between atoms: C_4  and  N_5
REMARK    5  A    between atoms: C_6  and  C_8
REMARK    6  A    between atoms: C_13  and  C_14
REMARK    7  A    between atoms: N_16  and  C_17
REMARK    8  A    between atoms: C_19  and  C_20
REMARK                            x       y       z     vdW  Elec       q    Type
REMARK                         _______ _______ _______ _____ _____    ______ ____
ROOT
ATOM      1  C   UNL     1       0.843   8.948  21.280  0.00  0.00    +0.000 C 
ATOM      2  O   UNL     1       1.747   8.960  22.119  0.00  0.00    +0.000 OA
ATOM      3  N   UNL     1       0.820   8.145  20.157  0.00  0.00    +0.000 N 
ATOM      4  H   UNL     1       0.302   8.497  19.357  0.00  0.00    +0.000 HD
ENDROOT
BRANCH   3   5
ATOM      5  C   UNL     1       1.846   7.227  19.832  0.00  0.00    +0.000 A 
ATOM      6  C   UNL     1       2.734   7.447  18.781  0.00  0.00    +0.000 A 
ATOM      7  C   UNL     1       3.648   6.469  18.357  0.00  0.00    +0.000 A 
ATOM      8  C   UNL     1       4.524   6.761  17.174  0.00  0.00    +0.000 C 
ATOM      9  C   UNL     1       3.671   5.235  19.050  0.00  0.00    +0.000 A 
ATOM     10  N   UNL     1       4.476   4.147  18.753  0.00  0.00    +0.000 NA
ATOM     11  C   UNL     1       4.200   3.141  19.560  0.00  0.00    +0.000 A 
ATOM     12  N   UNL     1       4.795   1.950  19.478  0.00  0.00    +0.000 N 
ATOM     13  S   UNL     1       3.020   3.462  20.757  0.00  0.00    +0.000 S 
ATOM     14  C   UNL     1       2.807   5.051  20.134  0.00  0.00    +0.000 A 
ATOM     15  C   UNL     1       1.908   6.039  20.561  0.00  0.00    +0.000 A 
ATOM     16  H   UNL     1       5.657   1.907  18.947  0.00  0.00    +0.000 HD
ATOM     17  H   UNL     1       4.763   1.336  20.288  0.00  0.00    +0.000 HD
ENDBRANCH   3   5
BRANCH   1  23
ATOM     18  C   UNL     1      -0.484  11.033  20.497  0.00  0.00    +0.000 C 
ATOM     19  C   UNL     1      -1.550  12.066  20.890  0.00  0.00    +0.000 C 
ATOM     20  C   UNL     1      -1.647  12.396  22.375  0.00  0.00    +0.000 C 
ATOM     21  C   UNL     1      -1.632  11.153  23.251  0.00  0.00    +0.000 C 
ATOM     22  C   UNL     1      -0.418  10.300  22.943  0.00  0.00    +0.000 C 
ATOM     23  C   UNL     1      -0.379   9.847  21.473  0.00  0.00    +0.000 C 
BRANCH  18  25
ATOM     24  N   UNL     1       1.216  11.472  18.694  0.00  0.00    +0.000 N 
ATOM     25  C   UNL     1       0.877  11.554  20.020  0.00  0.00    +0.000 C 
ATOM     26  O   UNL     1       1.593  12.135  20.843  0.00  0.00    +0.000 OA
ATOM     27  H   UNL     1       0.569  11.098  18.013  0.00  0.00    +0.000 HD
BRANCH  24  28
ATOM     28  C   UNL     1       2.435  12.130  18.223  0.00  0.00    +0.000 C 
BRANCH  28  29
ATOM     29  C   UNL     1       2.249  13.606  17.872  0.00  0.00    +0.000 C 
BRANCH  29  31
ATOM     30  C   UNL     1       3.703  15.646  17.538  0.00  0.00    +0.000 C 
ATOM     31  C   UNL     1       3.386  14.463  18.437  0.00  0.00    +0.000 C 
ENDBRANCH  29  31
ENDBRANCH  28  29
ENDBRANCH  24  28
ENDBRANCH  18  25
ENDBRANCH   1  23
TORSDOF 6
ENDMDL
MODEL 8
REMARK VINA RESULT:      -7.3      1.778      3.936
REMARK  Name = 
REMARK  8 active torsions:
REMARK  status: ('A' for Active; 'I' for Inactive)
REMARK    1  A    between atoms: C_1  and  C_2
REMARK    2  A    between atoms: C_2  and  C_3
REMARK    3  A    between atoms: C_3  and  C_4
REMARK    4  A    between atoms: C_4  and  N_5
REMARK    5  A    between atoms: C_6  and  C_8
REMARK    6  A    between atoms: C_13  and  C_14
REMARK    7  A    between atoms: N_16  and  C_17
REMARK    8  A    between atoms: C_19  and  C_20
REMARK                            x       y       z     vdW  Elec       q    Type
REMARK                         _______ _______ _______ _____ _____    ______ ____
ROOT
ATOM      1  C   UNL     1       2.102   5.607  19.214  0.00  0.00    +0.000 C 
ATOM      2  O   UNL     1       1.880   5.951  18.051  0.00  0.00    +0.000 OA
ATOM      3  N   UNL     1       1.944   6.418  20.320  0.00  0.00    +0.000 N 
ATOM      4  H   UNL     1       2.532   6.212  21.123  0.00  0.00    +0.000 HD
ENDROOT
BRANCH   3   5
ATOM      5  C   UNL     1       1.499   7.759  20.249  0.00  0.00    +0.000 A 
ATOM      6  C   UNL     1       1.854   8.604  19.200  0.00  0.00    +0.000 A 
ATOM      7  C   UNL     1       1.547   9.973  19.207  0.00  0.00    +0.000 A 
ATOM      8  C   UNL     1       2.024  10.828  18.068  0.00  0.00    +0.000 C 
ATOM      9  C   UNL     1       0.830  10.490  20.313  0.00  0.00    +0.000 A 
ATOM     10  N   UNL     1       0.472  11.814  20.508  0.00  0.00    +0.000 NA
ATOM     11  C   UNL     1      -0.136  11.956  21.670  0.00  0.00    +0.000 A 
ATOM     12  N   UNL     1      -0.557  13.132  22.139  0.00  0.00    +0.000 N 
ATOM     13  S   UNL     1      -0.374  10.512  22.556  0.00  0.00    +0.000 S 
ATOM     14  C   UNL     1       0.440   9.617  21.333  0.00  0.00    +0.000 A 
ATOM     15  C   UNL     1       0.736   8.245  21.311  0.00  0.00    +0.000 A 
ATOM     16  H   UNL     1      -0.637  13.887  21.467  0.00  0.00    +0.000 HD
ATOM     17  H   UNL     1      -1.262  13.136  22.870  0.00  0.00    +0.000 HD
ENDBRANCH   3   5
BRANCH   1  23
ATOM     18  C   UNL     1       4.079   3.948  19.459  0.00  0.00    +0.000 C 
ATOM     19  C   UNL     1       4.484   2.467  19.472  0.00  0.00    +0.000 C 
ATOM     20  C   UNL     1       3.631   1.532  18.622  0.00  0.00    +0.000 C 
ATOM     21  C   UNL     1       2.141   1.772  18.809  0.00  0.00    +0.000 C 
ATOM     22  C   UNL     1       1.801   3.227  18.559  0.00  0.00    +0.000 C 
ATOM     23  C   UNL     1       2.557   4.176  19.504  0.00  0.00    +0.000 C 
BRANCH  18  25
ATOM     24  N   UNL     1       4.566   4.794  17.140  0.00  0.00    +0.000 N 
ATOM     25  C   UNL     1       4.809   4.882  18.486  0.00  0.00    +0.000 C 
ATOM     26  O   UNL     1       5.526   5.767  18.966  0.00  0.00    +0.000 OA
ATOM     27  H   UNL     1       3.887   4.140  16.774  0.00  0.00    +0.000 HD
BRANCH  24  28
ATOM     28  C   UNL     1       5.130   5.803  16.242  0.00  0.00    +0.000 C 
BRANCH  28  29
ATOM     29  C   UNL     1       6.440   5.380  15.576  0.00  0.00    +0.000 C 
BRANCH  29  31
ATOM     30  C   UNL     1       5.763   3.881  13.657  0.00  0.00    +0.000 C 
ATOM     31  C   UNL     1       6.362   3.942  15.052  0.00  0.00    +0.000 C 
ENDBRANCH  29  31
ENDBRANCH  28  29
ENDBRANCH  24  28
ENDBRANCH  18  25
ENDBRANCH   1  23
TORSDOF 6
ENDMDL
MODEL 9
REMARK VINA RESULT:      -7.2      2.230      4.663
REMARK  Name = 
REMARK  8 active torsions:
REMARK  status: ('A' for Active; 'I' for Inactive)
REMARK    1  A    between atoms: C_1  and  C_2
REMARK    2  A    between atoms: C_2  and  C_3
REMARK    3  A    between atoms: C_3  and  C_4
REMARK    4  A    between atoms: C_4  and  N_5
REMARK    5  A    between atoms: C_6  and  C_8
REMARK    6  A    between atoms: C_13  and  C_14
REMARK    7  A    between atoms: N_16  and  C_17
REMARK    8  A    between atoms: C_19  and  C_20
REMARK                            x       y       z     vdW  Elec       q    Type
REMARK                         _______ _______ _______ _____ _____    ______ ____
ROOT
ATOM      1  C   UNL     1       3.065   5.385  19.989  0.00  0.00    +0.000 C 
ATOM      2  O   UNL     1       4.112   6.012  19.810  0.00  0.00    +0.000 OA
ATOM      3  N   UNL     1       1.832   5.960  20.224  0.00  0.00    +0.000 N 
ATOM      4  H   UNL     1       1.170   5.409  20.763  0.00  0.00    +0.000 HD
ENDROOT
BRANCH   3   5
ATOM      5  C   UNL     1       1.620   7.357  20.288  0.00  0.00    +0.000 A 
ATOM      6  C   UNL     1       1.037   7.970  21.394  0.00  0.00    +0.000 A 
ATOM      7  C   UNL     1       0.683   9.328  21.396  0.00  0.00    +0.000 A 
ATOM      8  C   UNL     1      -0.002   9.896  22.605  0.00  0.00    +0.000 C 
ATOM      9  C   UNL     1       0.957  10.090  20.234  0.00  0.00    +0.000 A 
ATOM     10  N   UNL     1       0.647  11.426  20.042  0.00  0.00    +0.000 NA
ATOM     11  C   UNL     1       0.991  11.803  18.825  0.00  0.00    +0.000 A 
ATOM     12  N   UNL     1       0.774  13.031  18.350  0.00  0.00    +0.000 N 
ATOM     13  S   UNL     1       1.762  10.608  17.875  0.00  0.00    +0.000 S 
ATOM     14  C   UNL     1       1.587   9.468  19.152  0.00  0.00    +0.000 A 
ATOM     15  C   UNL     1       1.954   8.114  19.165  0.00  0.00    +0.000 A 
ATOM     16  H   UNL     1       0.574  13.754  19.031  0.00  0.00    +0.000 HD
ATOM     17  H   UNL     1       1.314  13.340  17.546  0.00  0.00    +0.000 HD
ENDBRANCH   3   5
BRANCH   1  23
ATOM     18  C   UNL     1       4.417   3.231  19.487  0.00  0.00    +0.000 C 
ATOM     19  C   UNL     1       4.322   1.734  19.157  0.00  0.00    +0.000 C 
ATOM     20  C   UNL     1       3.084   1.296  18.384  0.00  0.00    +0.000 C 
ATOM     21  C   UNL     1       1.804   1.892  18.950  0.00  0.00    +0.000 C 
ATOM     22  C   UNL     1       1.910   3.401  19.032  0.00  0.00    +0.000 C 
ATOM     23  C   UNL     1       3.080   3.857  19.922  0.00  0.00    +0.000 C 
BRANCH  18  25
ATOM     24  N   UNL     1       6.428   4.649  18.957  0.00  0.00    +0.000 N 
ATOM     25  C   UNL     1       5.232   4.123  18.542  0.00  0.00    +0.000 C 
ATOM     26  O   UNL     1       4.826   4.255  17.383  0.00  0.00    +0.000 OA
ATOM     27  H   UNL     1       6.802   4.435  19.872  0.00  0.00    +0.000 HD
BRANCH  24  28
ATOM     28  C   UNL     1       7.277   5.348  17.992  0.00  0.00    +0.000 C 
BRANCH  28  29
ATOM     29  C   UNL     1       7.870   6.656  18.519  0.00  0.00    +0.000 C 
BRANCH  29  31
ATOM     30  C   UNL     1       8.276   9.101  18.026  0.00  0.00    +0.000 C 
ATOM     31  C   UNL     1       7.677   7.800  17.518  0.00  0.00    +0.000 C 
ENDBRANCH  29  31
ENDBRANCH  28  29
ENDBRANCH  24  28
ENDBRANCH  18  25
ENDBRANCH   1  23
TORSDOF 6
ENDMDL
