MODEL 1
REMARK VINA RESULT:      -7.3      0.000      0.000
REMARK  Name = 
REMARK  14 active torsions:
REMARK  status: ('A' for Active; 'I' for Inactive)
REMARK    1  A    between atoms: C_1  and  C_2
REMARK    2  A    between atoms: C_2  and  C_3
REMARK    3  A    between atoms: C_3  and  O_4
REMARK    4  A    between atoms: O_4  and  C_5
REMARK    5  A    between atoms: C_8  and  C_9
REMARK    6  A    between atoms: C_10  and  C_11
REMARK    7  A    between atoms: C_11  and  C_13
REMARK    8  A    between atoms: C_20  and  O_21
REMARK    9  A    between atoms: N_24  and  C_25
REMARK   10  A    between atoms: C_25  and  C_26
REMARK   11  A    between atoms: C_26  and  C_27
REMARK   12  A    between atoms: C_27  and  N_28
REMARK   13  A    between atoms: N_28  and  C_29
REMARK   14  A    between atoms: N_28  and  C_30
REMARK                            x       y       z     vdW  Elec       q    Type
REMARK                         _______ _______ _______ _____ _____    ______ ____
ROOT
ATOM      1  C   UNL     1       5.056   5.585  17.980  0.00  0.00    +0.000 C 
ATOM      2  C   UNL     1       4.564   4.565  17.008  0.00  0.00    +0.000 C 
ATOM      3  C   UNL     1       5.310   4.533  15.900  0.00  0.00    +0.000 C 
ATOM      4  C   UNL     1       6.442   5.460  16.109  0.00  0.00    +0.000 C 
ATOM      5  O   UNL     1       7.418   5.561  15.390  0.00  0.00    +0.000 OA
ATOM      6  N   UNL     1       6.209   6.132  17.302  0.00  0.00    +0.000 N 
ENDROOT
BRANCH   1  10
ATOM      7  C   UNL     1       1.811   8.244  18.972  0.00  0.00    +0.000 A 
ATOM      8  C   UNL     1       2.288   7.312  19.895  0.00  0.00    +0.000 A 
ATOM      9  C   UNL     1       3.380   6.507  19.592  0.00  0.00    +0.000 A 
ATOM     10  C   UNL     1       4.036   6.633  18.362  0.00  0.00    +0.000 A 
ATOM     11  C   UNL     1       3.652   7.678  17.504  0.00  0.00    +0.000 A 
ATOM     12  C   UNL     1       2.528   8.456  17.795  0.00  0.00    +0.000 A 
BRANCH   7  13
ATOM     13  O   UNL     1       0.657   8.969  19.122  0.00  0.00    +0.000 OA
BRANCH  13  14
ATOM     14  C   UNL     1       0.315   9.784  17.997  0.00  0.00    +0.000 C 
BRANCH  14  16
ATOM     15  C   UNL     1      -1.971   9.902  16.989  0.00  0.00    +0.000 C 
ATOM     16  C   UNL     1      -1.092  10.334  18.155  0.00  0.00    +0.000 C 
ENDBRANCH  14  16
ENDBRANCH  13  14
ENDBRANCH   7  13
ENDBRANCH   1  10
BRANCH   2  17
ATOM     17  C   UNL     1       3.318   3.757  17.101  0.00  0.00    +0.000 C 
ATOM     18  O   UNL     1       2.765   3.392  16.060  0.00  0.00    +0.000 OA
BRANCH  17  19
ATOM     19  C   UNL     1       2.713   3.373  18.408  0.00  0.00    +0.000 A 
ATOM     20  C   UNL     1       3.543   2.807  19.393  0.00  0.00    +0.000 A 
ATOM     21  C   UNL     1       3.035   2.501  20.664  0.00  0.00    +0.000 A 
ATOM     22  C   UNL     1       1.700   2.763  20.943  0.00  0.00    +0.000 A 
ATOM     23  F   UNL     1       1.214   2.495  22.161  0.00  0.00    +0.000 F 
ATOM     24  C   UNL     1       0.867   3.326  19.985  0.00  0.00    +0.000 A 
ATOM     25  C   UNL     1       1.377   3.648  18.724  0.00  0.00    +0.000 A 
ENDBRANCH  17  19
ENDBRANCH   2  17
BRANCH   3  26
ATOM     26  O   UNL     1       5.116   3.796  14.761  0.00  0.00    +0.000 OA
ATOM     27  H   UNL     1       5.418   2.882  14.957  0.00  0.00    +0.000 HD
ENDBRANCH   3  26
BRANCH   6  28
ATOM     28  C   UNL     1       7.287   6.806  18.033  0.00  0.00    +0.000 C 
BRANCH  28  29
ATOM     29  C   UNL     1       7.389   8.288  17.670  0.00  0.00    +0.000 C 
BRANCH  29  30
ATOM     30  C   UNL     1       8.691   8.948  18.150  0.00  0.00    +0.000 C 
BRANCH  30  31
ATOM     31  N   UNL     1       8.537  10.286  18.747  0.00  0.00    +0.000 NA
ATOM     32  C   UNL     1       9.285  10.412  20.004  0.00  0.00    +0.000 C 
ATOM     33  C   UNL     1       9.002  11.312  17.806  0.00  0.00    +0.000 C 
ENDBRANCH  30  31
ENDBRANCH  29  30
ENDBRANCH  28  29
ENDBRANCH   6  28
TORSDOF 11
ENDMDL
MODEL 2
REMARK VINA RESULT:      -7.3      0.819      1.287
REMARK  Name = 
REMARK  14 active torsions:
REMARK  status: ('A' for Active; 'I' for Inactive)
REMARK    1  A    between atoms: C_1  and  C_2
REMARK    2  A    between atoms: C_2  and  C_3
REMARK    3  A    between atoms: C_3  and  O_4
REMARK    4  A    between atoms: O_4  and  C_5
REMARK    5  A    between atoms: C_8  and  C_9
REMARK    6  A    between atoms: C_10  and  C_11
REMARK    7  A    between atoms: C_11  and  C_13
REMARK    8  A    between atoms: C_20  and  O_21
REMARK    9  A    between atoms: N_24  and  C_25
REMARK   10  A    between atoms: C_25  and  C_26
REMARK   11  A    between atoms: C_26  and  C_27
REMARK   12  A    between atoms: C_27  and  N_28
REMARK   13  A    between atoms: N_28  and  C_29
REMARK   14  A    between atoms: N_28  and  C_30
REMARK                            x       y       z     vdW  Elec       q    Type
REMARK                         _______ _______ _______ _____ _____    ______ ____
ROOT
ATOM      1  C   UNL     1       5.281   5.325  18.358  0.00  0.00    +0.000 C 
ATOM      2  C   UNL     1       4.848   4.135  17.570  0.00  0.00    +0.000 C 
ATOM      3  C   UNL     1       5.717   3.836  16.600  0.00  0.00    +0.000 C 
ATOM      4  C   UNL     1       6.871   4.747  16.753  0.00  0.00    +0.000 C 
ATOM      5  O   UNL     1       7.930   4.654  16.163  0.00  0.00    +0.000 OA
ATOM      6  N   UNL     1       6.539   5.671  17.735  0.00  0.00    +0.000 N 
ENDROOT
BRANCH   1  10
ATOM      7  C   UNL     1       2.118   8.254  18.279  0.00  0.00    +0.000 A 
ATOM      8  C   UNL     1       2.331   7.452  19.401  0.00  0.00    +0.000 A 
ATOM      9  C   UNL     1       3.396   6.559  19.445  0.00  0.00    +0.000 A 
ATOM     10  C   UNL     1       4.289   6.466  18.372  0.00  0.00    +0.000 A 
ATOM     11  C   UNL     1       4.164   7.386  17.315  0.00  0.00    +0.000 A 
ATOM     12  C   UNL     1       3.067   8.251  17.257  0.00  0.00    +0.000 A 
BRANCH   7  13
ATOM     13  O   UNL     1       1.017   9.047  18.085  0.00  0.00    +0.000 OA
BRANCH  13  14
ATOM     14  C   UNL     1       0.785  10.007  19.120  0.00  0.00    +0.000 C 
BRANCH  14  16
ATOM     15  C   UNL     1      -1.429  10.240  17.979  0.00  0.00    +0.000 C 
ATOM     16  C   UNL     1      -0.706  10.217  19.319  0.00  0.00    +0.000 C 
ENDBRANCH  14  16
ENDBRANCH  13  14
ENDBRANCH   7  13
ENDBRANCH   1  10
BRANCH   2  17
ATOM     17  C   UNL     1       3.551   3.410  17.668  0.00  0.00    +0.000 C 
ATOM     18  O   UNL     1       3.040   2.960  16.640  0.00  0.00    +0.000 OA
BRANCH  17  19
ATOM     19  C   UNL     1       2.848   3.209  18.967  0.00  0.00    +0.000 A 
ATOM     20  C   UNL     1       1.456   3.406  19.016  0.00  0.00    +0.000 A 
ATOM     21  C   UNL     1       0.740   3.155  20.196  0.00  0.00    +0.000 A 
ATOM     22  C   UNL     1       1.421   2.709  21.321  0.00  0.00    +0.000 A 
ATOM     23  F   UNL     1       0.742   2.446  22.444  0.00  0.00    +0.000 F 
ATOM     24  C   UNL     1       2.795   2.506  21.290  0.00  0.00    +0.000 A 
ATOM     25  C   UNL     1       3.505   2.737  20.110  0.00  0.00    +0.000 A 
ENDBRANCH  17  19
ENDBRANCH   2  17
BRANCH   3  26
ATOM     26  O   UNL     1       5.617   2.874  15.629  0.00  0.00    +0.000 OA
ATOM     27  H   UNL     1       6.300   3.078  14.954  0.00  0.00    +0.000 HD
ENDBRANCH   3  26
BRANCH   6  28
ATOM     28  C   UNL     1       7.561   6.451  18.441  0.00  0.00    +0.000 C 
BRANCH  28  29
ATOM     29  C   UNL     1       7.799   7.812  17.785  0.00  0.00    +0.000 C 
BRANCH  29  30
ATOM     30  C   UNL     1       8.492   8.824  18.711  0.00  0.00    +0.000 C 
BRANCH  30  31
ATOM     31  N   UNL     1       9.015  10.032  18.047  0.00  0.00    +0.000 NA
ATOM     32  C   UNL     1       7.937  10.942  17.643  0.00  0.00    +0.000 C 
ATOM     33  C   UNL     1       9.933  10.741  18.946  0.00  0.00    +0.000 C 
ENDBRANCH  30  31
ENDBRANCH  29  30
ENDBRANCH  28  29
ENDBRANCH   6  28
TORSDOF 11
ENDMDL
MODEL 3
REMARK VINA RESULT:      -7.2      0.807      1.521
REMARK  Name = 
REMARK  14 active torsions:
REMARK  status: ('A' for Active; 'I' for Inactive)
REMARK    1  A    between atoms: C_1  and  C_2
REMARK    2  A    between atoms: C_2  and  C_3
REMARK    3  A    between atoms: C_3  and  O_4
REMARK    4  A    between atoms: O_4  and  C_5
REMARK    5  A    between atoms: C_8  and  C_9
REMARK    6  A    between atoms: C_10  and  C_11
REMARK    7  A    between atoms: C_11  and  C_13
REMARK    8  A    between atoms: C_20  and  O_21
REMARK    9  A    between atoms: N_24  and  C_25
REMARK   10  A    between atoms: C_25  and  C_26
REMARK   11  A    between atoms: C_26  and  C_27
REMARK   12  A    between atoms: C_27  and  N_28
REMARK   13  A    between atoms: N_28  and  C_29
REMARK   14  A    between atoms: N_28  and  C_30
REMARK                            x       y       z     vdW  Elec       q    Type
REMARK                         _______ _______ _______ _____ _____    ______ ____
ROOT
ATOM      1  C   UNL     1       5.205   5.194  18.400  0.00  0.00    +0.000 C 
ATOM      2  C   UNL     1       4.937   3.951  17.619  0.00  0.00    +0.000 C 
ATOM      3  C   UNL     1       5.750   3.840  16.564  0.00  0.00    +0.000 C 
ATOM      4  C   UNL     1       6.713   4.959  16.637  0.00  0.00    +0.000 C 
ATOM      5  O   UNL     1       7.708   5.084  15.948  0.00  0.00    +0.000 OA
ATOM      6  N   UNL     1       6.305   5.788  17.674  0.00  0.00    +0.000 N 
ENDROOT
BRANCH   1  10
ATOM      7  C   UNL     1       2.129   8.175  18.889  0.00  0.00    +0.000 A 
ATOM      8  C   UNL     1       2.806   8.028  17.677  0.00  0.00    +0.000 A 
ATOM      9  C   UNL     1       3.747   7.020  17.506  0.00  0.00    +0.000 A 
ATOM     10  C   UNL     1       4.016   6.117  18.541  0.00  0.00    +0.000 A 
ATOM     11  C   UNL     1       3.219   6.169  19.699  0.00  0.00    +0.000 A 
ATOM     12  C   UNL     1       2.305   7.211  19.881  0.00  0.00    +0.000 A 
BRANCH   7  13
ATOM     13  O   UNL     1       1.301   9.223  19.198  0.00  0.00    +0.000 OA
BRANCH  13  14
ATOM     14  C   UNL     1       0.694   9.856  18.067  0.00  0.00    +0.000 C 
BRANCH  14  16
ATOM     15  C   UNL     1      -0.511  10.888  20.002  0.00  0.00    +0.000 C 
ATOM     16  C   UNL     1      -0.534  10.639  18.499  0.00  0.00    +0.000 C 
ENDBRANCH  14  16
ENDBRANCH  13  14
ENDBRANCH   7  13
ENDBRANCH   1  10
BRANCH   2  17
ATOM     17  C   UNL     1       3.823   2.983  17.816  0.00  0.00    +0.000 C 
ATOM     18  O   UNL     1       3.537   2.209  16.899  0.00  0.00    +0.000 OA
BRANCH  17  19
ATOM     19  C   UNL     1       3.039   2.918  19.082  0.00  0.00    +0.000 A 
ATOM     20  C   UNL     1       1.651   3.137  19.026  0.00  0.00    +0.000 A 
ATOM     21  C   UNL     1       0.861   3.011  20.178  0.00  0.00    +0.000 A 
ATOM     22  C   UNL     1       1.464   2.666  21.380  0.00  0.00    +0.000 A 
ATOM     23  F   UNL     1       0.714   2.521  22.479  0.00  0.00    +0.000 F 
ATOM     24  C   UNL     1       2.833   2.442  21.454  0.00  0.00    +0.000 A 
ATOM     25  C   UNL     1       3.618   2.549  20.303  0.00  0.00    +0.000 A 
ENDBRANCH  17  19
ENDBRANCH   2  17
BRANCH   3  26
ATOM     26  O   UNL     1       5.744   2.890  15.578  0.00  0.00    +0.000 OA
ATOM     27  H   UNL     1       4.805   2.728  15.341  0.00  0.00    +0.000 HD
ENDBRANCH   3  26
BRANCH   6  28
ATOM     28  C   UNL     1       7.219   6.746  18.304  0.00  0.00    +0.000 C 
BRANCH  28  29
ATOM     29  C   UNL     1       7.316   8.052  17.515  0.00  0.00    +0.000 C 
BRANCH  29  30
ATOM     30  C   UNL     1       8.568   8.878  17.851  0.00  0.00    +0.000 C 
BRANCH  30  31
ATOM     31  N   UNL     1       8.320  10.126  18.593  0.00  0.00    +0.000 NA
ATOM     32  C   UNL     1       9.298  10.323  19.670  0.00  0.00    +0.000 C 
ATOM     33  C   UNL     1       8.373  11.274  17.680  0.00  0.00    +0.000 C 
ENDBRANCH  30  31
ENDBRANCH  29  30
ENDBRANCH  28  29
ENDBRANCH   6  28
TORSDOF 11
ENDMDL
MODEL 4
REMARK VINA RESULT:      -7.1      0.829      1.344
REMARK  Name = 
REMARK  14 active torsions:
REMARK  status: ('A' for Active; 'I' for Inactive)
REMARK    1  A    between atoms: C_1  and  C_2
REMARK    2  A    between atoms: C_2  and  C_3
REMARK    3  A    between atoms: C_3  and  O_4
REMARK    4  A    between atoms: O_4  and  C_5
REMARK    5  A    between atoms: C_8  and  C_9
REMARK    6  A    between atoms: C_10  and  C_11
REMARK    7  A    between atoms: C_11  and  C_13
REMARK    8  A    between atoms: C_20  and  O_21
REMARK    9  A    between atoms: N_24  and  C_25
REMARK   10  A    between atoms: C_25  and  C_26
REMARK   11  A    between atoms: C_26  and  C_27
REMARK   12  A    between atoms: C_27  and  N_28
REMARK   13  A    between atoms: N_28  and  C_29
REMARK   14  A    between atoms: N_28  and  C_30
REMARK                            x       y       z     vdW  Elec       q    Type
REMARK                         _______ _______ _______ _____ _____    ______ ____
ROOT
ATOM      1  C   UNL     1       5.043   5.686  18.089  0.00  0.00    +0.000 C 
ATOM      2  C   UNL     1       4.561   4.598  17.190  0.00  0.00    +0.000 C 
ATOM      3  C   UNL     1       5.309   4.494  16.088  0.00  0.00    +0.000 C 
ATOM      4  C   UNL     1       6.434   5.442  16.233  0.00  0.00    +0.000 C 
ATOM      5  O   UNL     1       7.411   5.499  15.511  0.00  0.00    +0.000 OA
ATOM      6  N   UNL     1       6.194   6.194  17.376  0.00  0.00    +0.000 N 
ENDROOT
BRANCH   1  10
ATOM      7  C   UNL     1       1.775   8.393  18.851  0.00  0.00    +0.000 A 
ATOM      8  C   UNL     1       2.193   7.476  19.817  0.00  0.00    +0.000 A 
ATOM      9  C   UNL     1       3.291   6.655  19.589  0.00  0.00    +0.000 A 
ATOM     10  C   UNL     1       4.014   6.751  18.395  0.00  0.00    +0.000 A 
ATOM     11  C   UNL     1       3.687   7.782  17.496  0.00  0.00    +0.000 A 
ATOM     12  C   UNL     1       2.556   8.576  17.711  0.00  0.00    +0.000 A 
BRANCH   7  13
ATOM     13  O   UNL     1       0.622   9.132  18.925  0.00  0.00    +0.000 OA
BRANCH  13  14
ATOM     14  C   UNL     1       0.825  10.537  19.103  0.00  0.00    +0.000 C 
BRANCH  14  16
ATOM     15  C   UNL     1      -0.301  10.125  21.299  0.00  0.00    +0.000 C 
ATOM     16  C   UNL     1       0.805  10.888  20.581  0.00  0.00    +0.000 C 
ENDBRANCH  14  16
ENDBRANCH  13  14
ENDBRANCH   7  13
ENDBRANCH   1  10
BRANCH   2  17
ATOM     17  C   UNL     1       3.320   3.788  17.336  0.00  0.00    +0.000 C 
ATOM     18  O   UNL     1       2.766   3.357  16.322  0.00  0.00    +0.000 OA
BRANCH  17  19
ATOM     19  C   UNL     1       2.723   3.481  18.667  0.00  0.00    +0.000 A 
ATOM     20  C   UNL     1       1.339   3.665  18.841  0.00  0.00    +0.000 A 
ATOM     21  C   UNL     1       0.720   3.318  20.051  0.00  0.00    +0.000 A 
ATOM     22  C   UNL     1       1.487   2.786  21.079  0.00  0.00    +0.000 A 
ATOM     23  F   UNL     1       0.900   2.431  22.228  0.00  0.00    +0.000 F 
ATOM     24  C   UNL     1       2.854   2.593  20.923  0.00  0.00    +0.000 A 
ATOM     25  C   UNL     1       3.468   2.922  19.712  0.00  0.00    +0.000 A 
ENDBRANCH  17  19
ENDBRANCH   2  17
BRANCH   3  26
ATOM     26  O   UNL     1       5.124   3.677  15.003  0.00  0.00    +0.000 OA
ATOM     27  H   UNL     1       6.016   3.447  14.663  0.00  0.00    +0.000 HD
ENDBRANCH   3  26
BRANCH   6  28
ATOM     28  C   UNL     1       7.265   6.926  18.060  0.00  0.00    +0.000 C 
BRANCH  28  29
ATOM     29  C   UNL     1       7.364   8.375  17.584  0.00  0.00    +0.000 C 
BRANCH  29  30
ATOM     30  C   UNL     1       8.666   9.071  18.012  0.00  0.00    +0.000 C 
BRANCH  30  31
ATOM     31  N   UNL     1       8.494  10.354  18.718  0.00  0.00    +0.000 NA
ATOM     32  C   UNL     1       9.376  10.454  19.887  0.00  0.00    +0.000 C 
ATOM     33  C   UNL     1       8.773  11.470  17.807  0.00  0.00    +0.000 C 
ENDBRANCH  30  31
ENDBRANCH  29  30
ENDBRANCH  28  29
ENDBRANCH   6  28
TORSDOF 11
ENDMDL
MODEL 5
REMARK VINA RESULT:      -7.1      1.140      1.612
REMARK  Name = 
REMARK  14 active torsions:
REMARK  status: ('A' for Active; 'I' for Inactive)
REMARK    1  A    between atoms: C_1  and  C_2
REMARK    2  A    between atoms: C_2  and  C_3
REMARK    3  A    between atoms: C_3  and  O_4
REMARK    4  A    between atoms: O_4  and  C_5
REMARK    5  A    between atoms: C_8  and  C_9
REMARK    6  A    between atoms: C_10  and  C_11
REMARK    7  A    between atoms: C_11  and  C_13
REMARK    8  A    between atoms: C_20  and  O_21
REMARK    9  A    between atoms: N_24  and  C_25
REMARK   10  A    between atoms: C_25  and  C_26
REMARK   11  A    between atoms: C_26  and  C_27
REMARK   12  A    between atoms: C_27  and  N_28
REMARK   13  A    between atoms: N_28  and  C_29
REMARK   14  A    between atoms: N_28  and  C_30
REMARK                            x       y       z     vdW  Elec       q    Type
REMARK                         _______ _______ _______ _____ _____    ______ ____
ROOT
ATOM      1  C   UNL     1       4.978   5.602  18.160  0.00  0.00    +0.000 C 
ATOM      2  C   UNL     1       4.707   4.481  17.213  0.00  0.00    +0.000 C 
ATOM      3  C   UNL     1       5.537   4.500  16.166  0.00  0.00    +0.000 C 
ATOM      4  C   UNL     1       6.515   5.583  16.405  0.00  0.00    +0.000 C 
ATOM      5  O   UNL     1       7.523   5.783  15.756  0.00  0.00    +0.000 OA
ATOM      6  N   UNL     1       6.099   6.270  17.538  0.00  0.00    +0.000 N 
ENDROOT
BRANCH   1  10
ATOM      7  C   UNL     1       1.938   8.548  18.972  0.00  0.00    +0.000 A 
ATOM      8  C   UNL     1       2.589   8.505  17.738  0.00  0.00    +0.000 A 
ATOM      9  C   UNL     1       3.518   7.509  17.460  0.00  0.00    +0.000 A 
ATOM     10  C   UNL     1       3.800   6.516  18.406  0.00  0.00    +0.000 A 
ATOM     11  C   UNL     1       3.027   6.472  19.580  0.00  0.00    +0.000 A 
ATOM     12  C   UNL     1       2.126   7.501  19.872  0.00  0.00    +0.000 A 
BRANCH   7  13
ATOM     13  O   UNL     1       1.126   9.572  19.389  0.00  0.00    +0.000 OA
BRANCH  13  14
ATOM     14  C   UNL     1       1.105   9.777  20.805  0.00  0.00    +0.000 C 
BRANCH  14  16
ATOM     15  C   UNL     1      -0.353   9.539  22.824  0.00  0.00    +0.000 C 
ATOM     16  C   UNL     1      -0.324   9.763  21.317  0.00  0.00    +0.000 C 
ENDBRANCH  14  16
ENDBRANCH  13  14
ENDBRANCH   7  13
ENDBRANCH   1  10
BRANCH   2  17
ATOM     17  C   UNL     1       3.575   3.514  17.259  0.00  0.00    +0.000 C 
ATOM     18  O   UNL     1       3.214   2.969  16.213  0.00  0.00    +0.000 OA
BRANCH  17  19
ATOM     19  C   UNL     1       2.862   3.183  18.525  0.00  0.00    +0.000 A 
ATOM     20  C   UNL     1       3.624   2.817  19.650  0.00  0.00    +0.000 A 
ATOM     21  C   UNL     1       3.002   2.570  20.883  0.00  0.00    +0.000 A 
ATOM     22  C   UNL     1       1.622   2.692  20.985  0.00  0.00    +0.000 A 
ATOM     23  F   UNL     1       1.025   2.481  22.164  0.00  0.00    +0.000 F 
ATOM     24  C   UNL     1       0.855   3.057  19.886  0.00  0.00    +0.000 A 
ATOM     25  C   UNL     1       1.475   3.321  18.662  0.00  0.00    +0.000 A 
ENDBRANCH  17  19
ENDBRANCH   2  17
BRANCH   3  26
ATOM     26  O   UNL     1       5.535   3.692  15.060  0.00  0.00    +0.000 OA
ATOM     27  H   UNL     1       4.840   4.034  14.457  0.00  0.00    +0.000 HD
ENDBRANCH   3  26
BRANCH   6  28
ATOM     28  C   UNL     1       7.015   7.119  18.308  0.00  0.00    +0.000 C 
BRANCH  28  29
ATOM     29  C   UNL     1       7.166   8.509  17.689  0.00  0.00    +0.000 C 
BRANCH  29  30
ATOM     30  C   UNL     1       8.584   9.086  17.821  0.00  0.00    +0.000 C 
BRANCH  30  31
ATOM     31  N   UNL     1       8.673  10.393  18.497  0.00  0.00    +0.000 NA
ATOM     32  C   UNL     1       9.148  10.261  19.880  0.00  0.00    +0.000 C 
ATOM     33  C   UNL     1       9.582  11.279  17.759  0.00  0.00    +0.000 C 
ENDBRANCH  30  31
ENDBRANCH  29  30
ENDBRANCH  28  29
ENDBRANCH   6  28
TORSDOF 11
ENDMDL
MODEL 6
REMARK VINA RESULT:      -6.7      1.662      2.461
REMARK  Name = 
REMARK  14 active torsions:
REMARK  status: ('A' for Active; 'I' for Inactive)
REMARK    1  A    between atoms: C_1  and  C_2
REMARK    2  A    between atoms: C_2  and  C_3
REMARK    3  A    between atoms: C_3  and  O_4
REMARK    4  A    between atoms: O_4  and  C_5
REMARK    5  A    between atoms: C_8  and  C_9
REMARK    6  A    between atoms: C_10  and  C_11
REMARK    7  A    between atoms: C_11  and  C_13
REMARK    8  A    between atoms: C_20  and  O_21
REMARK    9  A    between atoms: N_24  and  C_25
REMARK   10  A    between atoms: C_25  and  C_26
REMARK   11  A    between atoms: C_26  and  C_27
REMARK   12  A    between atoms: C_27  and  N_28
REMARK   13  A    between atoms: N_28  and  C_29
REMARK   14  A    between atoms: N_28  and  C_30
REMARK                            x       y       z     vdW  Elec       q    Type
REMARK                         _______ _______ _______ _____ _____    ______ ____
ROOT
ATOM      1  C   UNL     1       4.361   6.035  17.877  0.00  0.00    +0.000 C 
ATOM      2  C   UNL     1       3.990   4.825  17.087  0.00  0.00    +0.000 C 
ATOM      3  C   UNL     1       4.603   4.798  15.900  0.00  0.00    +0.000 C 
ATOM      4  C   UNL     1       5.533   5.946  15.863  0.00  0.00    +0.000 C 
ATOM      5  O   UNL     1       6.384   6.142  15.017  0.00  0.00    +0.000 OA
ATOM      6  N   UNL     1       5.295   6.705  17.002  0.00  0.00    +0.000 N 
ENDROOT
BRANCH   1  10
ATOM      7  C   UNL     1       1.342   8.874  19.063  0.00  0.00    +0.000 A 
ATOM      8  C   UNL     1       1.772   8.790  17.738  0.00  0.00    +0.000 A 
ATOM      9  C   UNL     1       2.695   7.825  17.351  0.00  0.00    +0.000 A 
ATOM     10  C   UNL     1       3.192   6.904  18.280  0.00  0.00    +0.000 A 
ATOM     11  C   UNL     1       2.637   6.892  19.572  0.00  0.00    +0.000 A 
ATOM     12  C   UNL     1       1.742   7.891  19.967  0.00  0.00    +0.000 A 
BRANCH   7  13
ATOM     13  O   UNL     1       0.556   9.880  19.565  0.00  0.00    +0.000 OA
BRANCH  13  14
ATOM     14  C   UNL     1      -0.020  10.737  18.574  0.00  0.00    +0.000 C 
BRANCH  14  16
ATOM     15  C   UNL     1      -2.294  11.591  17.979  0.00  0.00    +0.000 C 
ATOM     16  C   UNL     1      -1.470  10.359  18.331  0.00  0.00    +0.000 C 
ENDBRANCH  14  16
ENDBRANCH  13  14
ENDBRANCH   7  13
ENDBRANCH   1  10
BRANCH   2  17
ATOM     17  C   UNL     1       2.956   3.808  17.424  0.00  0.00    +0.000 C 
ATOM     18  O   UNL     1       2.410   3.187  16.508  0.00  0.00    +0.000 OA
BRANCH  17  19
ATOM     19  C   UNL     1       2.556   3.514  18.829  0.00  0.00    +0.000 A 
ATOM     20  C   UNL     1       1.222   3.746  19.211  0.00  0.00    +0.000 A 
ATOM     21  C   UNL     1       0.781   3.414  20.500  0.00  0.00    +0.000 A 
ATOM     22  C   UNL     1       1.676   2.850  21.400  0.00  0.00    +0.000 A 
ATOM     23  F   UNL     1       1.256   2.510  22.625  0.00  0.00    +0.000 F 
ATOM     24  C   UNL     1       2.995   2.610  21.039  0.00  0.00    +0.000 A 
ATOM     25  C   UNL     1       3.431   2.924  19.749  0.00  0.00    +0.000 A 
ENDBRANCH  17  19
ENDBRANCH   2  17
BRANCH   3  26
ATOM     26  O   UNL     1       4.446   3.899  14.877  0.00  0.00    +0.000 OA
ATOM     27  H   UNL     1       4.380   3.009  15.287  0.00  0.00    +0.000 HD
ENDBRANCH   3  26
BRANCH   6  28
ATOM     28  C   UNL     1       6.282   7.662  17.513  0.00  0.00    +0.000 C 
BRANCH  28  29
ATOM     29  C   UNL     1       7.690   7.069  17.554  0.00  0.00    +0.000 C 
BRANCH  29  30
ATOM     30  C   UNL     1       8.062   6.468  18.919  0.00  0.00    +0.000 C 
BRANCH  30  31
ATOM     31  N   UNL     1       7.872   5.012  19.041  0.00  0.00    +0.000 NA
ATOM     32  C   UNL     1       6.599   4.681  19.693  0.00  0.00    +0.000 C 
ATOM     33  C   UNL     1       7.910   4.387  17.714  0.00  0.00    +0.000 C 
ENDBRANCH  30  31
ENDBRANCH  29  30
ENDBRANCH  28  29
ENDBRANCH   6  28
TORSDOF 11
ENDMDL
MODEL 7
REMARK VINA RESULT:      -6.7      1.141      1.864
REMARK  Name = 
REMARK  14 active torsions:
REMARK  status: ('A' for Active; 'I' for Inactive)
REMARK    1  A    between atoms: C_1  and  C_2
REMARK    2  A    between atoms: C_2  and  C_3
REMARK    3  A    between atoms: C_3  and  O_4
REMARK    4  A    between atoms: O_4  and  C_5
REMARK    5  A    between atoms: C_8  and  C_9
REMARK    6  A    between atoms: C_10  and  C_11
REMARK    7  A    between atoms: C_11  and  C_13
REMARK    8  A    between atoms: C_20  and  O_21
REMARK    9  A    between atoms: N_24  and  C_25
REMARK   10  A    between atoms: C_25  and  C_26
REMARK   11  A    between atoms: C_26  and  C_27
REMARK   12  A    between atoms: C_27  and  N_28
REMARK   13  A    between atoms: N_28  and  C_29
REMARK   14  A    between atoms: N_28  and  C_30
REMARK                            x       y       z     vdW  Elec       q    Type
REMARK                         _______ _______ _______ _____ _____    ______ ____
ROOT
ATOM      1  C   UNL     1       5.195   5.406  18.361  0.00  0.00    +0.000 C 
ATOM      2  C   UNL     1       4.983   4.162  17.565  0.00  0.00    +0.000 C 
ATOM      3  C   UNL     1       5.809   4.095  16.516  0.00  0.00    +0.000 C 
ATOM      4  C   UNL     1       6.726   5.251  16.609  0.00  0.00    +0.000 C 
ATOM      5  O   UNL     1       7.720   5.423  15.931  0.00  0.00    +0.000 OA
ATOM      6  N   UNL     1       6.275   6.051  17.651  0.00  0.00    +0.000 N 
ENDROOT
BRANCH   1  10
ATOM      7  C   UNL     1       1.996   8.250  18.871  0.00  0.00    +0.000 A 
ATOM      8  C   UNL     1       2.712   8.177  17.676  0.00  0.00    +0.000 A 
ATOM      9  C   UNL     1       3.695   7.211  17.495  0.00  0.00    +0.000 A 
ATOM     10  C   UNL     1       3.968   6.278  18.501  0.00  0.00    +0.000 A 
ATOM     11  C   UNL     1       3.137   6.255  19.635  0.00  0.00    +0.000 A 
ATOM     12  C   UNL     1       2.179   7.256  19.830  0.00  0.00    +0.000 A 
BRANCH   7  13
ATOM     13  O   UNL     1       1.121   9.255  19.195  0.00  0.00    +0.000 OA
BRANCH  13  14
ATOM     14  C   UNL     1       1.738  10.517  19.468  0.00  0.00    +0.000 C 
BRANCH  14  16
ATOM     15  C   UNL     1       2.463  12.590  18.271  0.00  0.00    +0.000 C 
ATOM     16  C   UNL     1       1.385  11.522  18.386  0.00  0.00    +0.000 C 
ENDBRANCH  14  16
ENDBRANCH  13  14
ENDBRANCH   7  13
ENDBRANCH   1  10
BRANCH   2  17
ATOM     17  C   UNL     1       3.908   3.148  17.741  0.00  0.00    +0.000 C 
ATOM     18  O   UNL     1       3.664   2.369  16.816  0.00  0.00    +0.000 OA
BRANCH  17  19
ATOM     19  C   UNL     1       3.112   3.042  18.997  0.00  0.00    +0.000 A 
ATOM     20  C   UNL     1       1.718   3.218  18.927  0.00  0.00    +0.000 A 
ATOM     21  C   UNL     1       0.919   3.052  20.068  0.00  0.00    +0.000 A 
ATOM     22  C   UNL     1       1.519   2.710  21.273  0.00  0.00    +0.000 A 
ATOM     23  F   UNL     1       0.761   2.528  22.361  0.00  0.00    +0.000 F 
ATOM     24  C   UNL     1       2.893   2.528  21.360  0.00  0.00    +0.000 A 
ATOM     25  C   UNL     1       3.687   2.675  20.220  0.00  0.00    +0.000 A 
ENDBRANCH  17  19
ENDBRANCH   2  17
BRANCH   3  26
ATOM     26  O   UNL     1       5.850   3.156  15.520  0.00  0.00    +0.000 OA
ATOM     27  H   UNL     1       6.167   2.320  15.927  0.00  0.00    +0.000 HD
ENDBRANCH   3  26
BRANCH   6  28
ATOM     28  C   UNL     1       7.145   7.038  18.300  0.00  0.00    +0.000 C 
BRANCH  28  29
ATOM     29  C   UNL     1       7.638   8.102  17.319  0.00  0.00    +0.000 C 
BRANCH  29  30
ATOM     30  C   UNL     1       7.590   9.528  17.888  0.00  0.00    +0.000 C 
BRANCH  30  31
ATOM     31  N   UNL     1       8.901  10.148  18.151  0.00  0.00    +0.000 NA
ATOM     32  C   UNL     1       8.908  11.576  17.811  0.00  0.00    +0.000 C 
ATOM     33  C   UNL     1       9.257   9.989  19.566  0.00  0.00    +0.000 C 
ENDBRANCH  30  31
ENDBRANCH  29  30
ENDBRANCH  28  29
ENDBRANCH   6  28
TORSDOF 11
ENDMDL
MODEL 8
REMARK VINA RESULT:      -6.7      1.873      2.780
REMARK  Name = 
REMARK  14 active torsions:
REMARK  status: ('A' for Active; 'I' for Inactive)
REMARK    1  A    between atoms: C_1  and  C_2
REMARK    2  A    between atoms: C_2  and  C_3
REMARK    3  A    between atoms: C_3  and  O_4
REMARK    4  A    between atoms: O_4  and  C_5
REMARK    5  A    between atoms: C_8  and  C_9
REMARK    6  A    between atoms: C_10  and  C_11
REMARK    7  A    between atoms: C_11  and  C_13
REMARK    8  A    between atoms: C_20  and  O_21
REMARK    9  A    between atoms: N_24  and  C_25
REMARK   10  A    between atoms: C_25  and  C_26
REMARK   11  A    between atoms: C_26  and  C_27
REMARK   12  A    between atoms: C_27  and  N_28
REMARK   13  A    between atoms: N_28  and  C_29
REMARK   14  A    between atoms: N_28  and  C_30
REMARK                            x       y       z     vdW  Elec       q    Type
REMARK                         _______ _______ _______ _____ _____    ______ ____
ROOT
ATOM      1  C   UNL     1       4.323   6.074  17.923  0.00  0.00    +0.000 C 
ATOM      2  C   UNL     1       3.946   4.871  17.125  0.00  0.00    +0.000 C 
ATOM      3  C   UNL     1       4.553   4.852  15.935  0.00  0.00    +0.000 C 
ATOM      4  C   UNL     1       5.486   5.998  15.903  0.00  0.00    +0.000 C 
ATOM      5  O   UNL     1       6.333   6.199  15.054  0.00  0.00    +0.000 OA
ATOM      6  N   UNL     1       5.255   6.750  17.048  0.00  0.00    +0.000 N 
ENDROOT
BRANCH   1  10
ATOM      7  C   UNL     1       1.318   8.907  19.162  0.00  0.00    +0.000 A 
ATOM      8  C   UNL     1       1.772   8.867  17.843  0.00  0.00    +0.000 A 
ATOM      9  C   UNL     1       2.689   7.906  17.435  0.00  0.00    +0.000 A 
ATOM     10  C   UNL     1       3.157   6.944  18.338  0.00  0.00    +0.000 A 
ATOM     11  C   UNL     1       2.579   6.890  19.618  0.00  0.00    +0.000 A 
ATOM     12  C   UNL     1       1.689   7.885  20.035  0.00  0.00    +0.000 A 
BRANCH   7  13
ATOM     13  O   UNL     1       0.536   9.903  19.688  0.00  0.00    +0.000 OA
BRANCH  13  14
ATOM     14  C   UNL     1       0.544   9.976  21.116  0.00  0.00    +0.000 C 
BRANCH  14  16
ATOM     15  C   UNL     1      -0.990  10.946  22.838  0.00  0.00    +0.000 C 
ATOM     16  C   UNL     1      -0.174  11.230  21.584  0.00  0.00    +0.000 C 
ENDBRANCH  14  16
ENDBRANCH  13  14
ENDBRANCH   7  13
ENDBRANCH   1  10
BRANCH   2  17
ATOM     17  C   UNL     1       2.911   3.854  17.459  0.00  0.00    +0.000 C 
ATOM     18  O   UNL     1       2.350   3.251  16.541  0.00  0.00    +0.000 OA
BRANCH  17  19
ATOM     19  C   UNL     1       2.527   3.540  18.865  0.00  0.00    +0.000 A 
ATOM     20  C   UNL     1       1.183   3.701  19.247  0.00  0.00    +0.000 A 
ATOM     21  C   UNL     1       0.760   3.346  20.536  0.00  0.00    +0.000 A 
ATOM     22  C   UNL     1       1.684   2.831  21.436  0.00  0.00    +0.000 A 
ATOM     23  F   UNL     1       1.284   2.469  22.661  0.00  0.00    +0.000 F 
ATOM     24  C   UNL     1       3.014   2.661  21.075  0.00  0.00    +0.000 A 
ATOM     25  C   UNL     1       3.432   2.997  19.784  0.00  0.00    +0.000 A 
ENDBRANCH  17  19
ENDBRANCH   2  17
BRANCH   3  26
ATOM     26  O   UNL     1       4.389   3.962  14.906  0.00  0.00    +0.000 OA
ATOM     27  H   UNL     1       3.629   3.387  15.144  0.00  0.00    +0.000 HD
ENDBRANCH   3  26
BRANCH   6  28
ATOM     28  C   UNL     1       6.246   7.701  17.562  0.00  0.00    +0.000 C 
BRANCH  28  29
ATOM     29  C   UNL     1       7.660   7.121  17.545  0.00  0.00    +0.000 C 
BRANCH  29  30
ATOM     30  C   UNL     1       8.089   6.514  18.890  0.00  0.00    +0.000 C 
BRANCH  30  31
ATOM     31  N   UNL     1       7.873   5.063  19.026  0.00  0.00    +0.000 NA
ATOM     32  C   UNL     1       6.599   4.762  19.691  0.00  0.00    +0.000 C 
ATOM     33  C   UNL     1       7.889   4.426  17.704  0.00  0.00    +0.000 C 
ENDBRANCH  30  31
ENDBRANCH  29  30
ENDBRANCH  28  29
ENDBRANCH   6  28
TORSDOF 11
ENDMDL
MODEL 9
REMARK VINA RESULT:      -6.5      3.896      6.853
REMARK  Name = 
REMARK  14 active torsions:
REMARK  status: ('A' for Active; 'I' for Inactive)
REMARK    1  A    between atoms: C_1  and  C_2
REMARK    2  A    between atoms: C_2  and  C_3
REMARK    3  A    between atoms: C_3  and  O_4
REMARK    4  A    between atoms: O_4  and  C_5
REMARK    5  A    between atoms: C_8  and  C_9
REMARK    6  A    between atoms: C_10  and  C_11
REMARK    7  A    between atoms: C_11  and  C_13
REMARK    8  A    between atoms: C_20  and  O_21
REMARK    9  A    between atoms: N_24  and  C_25
REMARK   10  A    between atoms: C_25  and  C_26
REMARK   11  A    between atoms: C_26  and  C_27
REMARK   12  A    between atoms: C_27  and  N_28
REMARK   13  A    between atoms: N_28  and  C_29
REMARK   14  A    between atoms: N_28  and  C_30
REMARK                            x       y       z     vdW  Elec       q    Type
REMARK                         _______ _______ _______ _____ _____    ______ ____
ROOT
ATOM      1  C   UNL     1       1.469   6.885  19.800  0.00  0.00    +0.000 C 
ATOM      2  C   UNL     1       2.302   7.531  18.744  0.00  0.00    +0.000 C 
ATOM      3  C   UNL     1       3.490   6.934  18.611  0.00  0.00    +0.000 C 
ATOM      4  C   UNL     1       3.485   5.753  19.501  0.00  0.00    +0.000 C 
ATOM      5  O   UNL     1       4.325   4.873  19.515  0.00  0.00    +0.000 OA
ATOM      6  N   UNL     1       2.320   5.809  20.255  0.00  0.00    +0.000 N 
ENDROOT
BRANCH   1  10
ATOM      7  C   UNL     1       0.082   9.829  22.627  0.00  0.00    +0.000 A 
ATOM      8  C   UNL     1      -0.799   8.918  22.044  0.00  0.00    +0.000 A 
ATOM      9  C   UNL     1      -0.333   7.927  21.187  0.00  0.00    +0.000 A 
ATOM     10  C   UNL     1       1.034   7.812  20.912  0.00  0.00    +0.000 A 
ATOM     11  C   UNL     1       1.931   8.629  21.624  0.00  0.00    +0.000 A 
ATOM     12  C   UNL     1       1.453   9.650  22.451  0.00  0.00    +0.000 A 
BRANCH   7  13
ATOM     13  O   UNL     1      -0.301  10.924  23.359  0.00  0.00    +0.000 OA
BRANCH  13  14
ATOM     14  C   UNL     1      -1.595  11.438  23.030  0.00  0.00    +0.000 C 
BRANCH  14  16
ATOM     15  C   UNL     1      -0.481  13.597  22.433  0.00  0.00    +0.000 C 
ATOM     16  C   UNL     1      -1.622  12.946  23.204  0.00  0.00    +0.000 C 
ENDBRANCH  14  16
ENDBRANCH  13  14
ENDBRANCH   7  13
ENDBRANCH   1  10
BRANCH   2  17
ATOM     17  C   UNL     1       2.002   8.783  17.997  0.00  0.00    +0.000 C 
ATOM     18  O   UNL     1       2.711   9.088  17.034  0.00  0.00    +0.000 OA
BRANCH  17  19
ATOM     19  C   UNL     1       0.875   9.684  18.372  0.00  0.00    +0.000 A 
ATOM     20  C   UNL     1      -0.430   9.324  17.986  0.00  0.00    +0.000 A 
ATOM     21  C   UNL     1      -1.530  10.100  18.382  0.00  0.00    +0.000 A 
ATOM     22  C   UNL     1      -1.319  11.230  19.161  0.00  0.00    +0.000 A 
ATOM     23  F   UNL     1      -2.365  11.962  19.561  0.00  0.00    +0.000 F 
ATOM     24  C   UNL     1      -0.039  11.597  19.554  0.00  0.00    +0.000 A 
ATOM     25  C   UNL     1       1.056  10.815  19.176  0.00  0.00    +0.000 A 
ENDBRANCH  17  19
ENDBRANCH   2  17
BRANCH   3  26
ATOM     26  O   UNL     1       4.544   7.295  17.814  0.00  0.00    +0.000 OA
ATOM     27  H   UNL     1       5.344   6.860  18.183  0.00  0.00    +0.000 HD
ENDBRANCH   3  26
BRANCH   6  28
ATOM     28  C   UNL     1       1.775   4.624  20.926  0.00  0.00    +0.000 C 
BRANCH  28  29
ATOM     29  C   UNL     1       0.999   3.725  19.963  0.00  0.00    +0.000 C 
BRANCH  29  30
ATOM     30  C   UNL     1       1.683   2.374  19.702  0.00  0.00    +0.000 C 
BRANCH  30  31
ATOM     31  N   UNL     1       2.092   2.132  18.307  0.00  0.00    +0.000 NA
ATOM     32  C   UNL     1       1.978   3.344  17.487  0.00  0.00    +0.000 C 
ATOM     33  C   UNL     1       3.478   1.652  18.265  0.00  0.00    +0.000 C 
ENDBRANCH  30  31
ENDBRANCH  29  30
ENDBRANCH  28  29
ENDBRANCH   6  28
TORSDOF 11
ENDMDL
