MODEL 1
REMARK VINA RESULT:      -6.6      0.000      0.000
REMARK  Name = 
REMARK  7 active torsions:
REMARK  status: ('A' for Active; 'I' for Inactive)
REMARK    1  A    between atoms: C_4  and  O_5
REMARK    2  A    between atoms: C_7  and  C_8
REMARK    3  A    between atoms: C_13  and  C_14
REMARK    4  A    between atoms: C_15  and  C_16
REMARK    5  A    between atoms: C_16  and  C_17
REMARK    6  A    between atoms: C_16  and  C_18
REMARK    7  A    between atoms: C_16  and  O_19
REMARK                            x       y       z     vdW  Elec       q    Type
REMARK                         _______ _______ _______ _____ _____    ______ ____
ROOT
ATOM      1  C   UNL     1      11.858  15.886  19.282  0.00  0.00    +0.000 C 
ATOM      2  C   UNL     1      10.906  15.058  18.803  0.00  0.00    +0.000 C 
ATOM      3  C   UNL     1      10.864  14.807  17.283  0.00  0.00    +0.000 C 
ATOM      4  C   UNL     1      11.098  13.355  16.786  0.00  0.00    +0.000 C 
ATOM      5  C   UNL     1      11.789  12.575  17.856  0.00  0.00    +0.000 C 
ATOM      6  C   UNL     1      11.201  11.605  18.570  0.00  0.00    +0.000 C 
ATOM      7  C   UNL     1      10.015  10.786  18.139  0.00  0.00    +0.000 C 
ATOM      8  C   UNL     1      11.636  11.497  19.999  0.00  0.00    +0.000 C 
ATOM      9  C   UNL     1      10.537  12.064  20.891  0.00  0.00    +0.000 C 
ATOM     10  C   UNL     1      10.122  13.576  20.917  0.00  0.00    +0.000 C 
ATOM     11  C   UNL     1       8.907  13.642  21.832  0.00  0.00    +0.000 C 
ATOM     12  C   UNL     1       7.937  12.731  22.048  0.00  0.00    +0.000 C 
ATOM     13  C   UNL     1       8.731  14.997  22.375  0.00  0.00    +0.000 C 
ATOM     14  O   UNL     1       8.898  15.328  23.533  0.00  0.00    +0.000 OA
ATOM     15  O   UNL     1       8.216  15.756  21.387  0.00  0.00    +0.000 OA
ATOM     16  C   UNL     1       9.011  15.824  20.199  0.00  0.00    +0.000 C 
ATOM     17  C   UNL     1       9.761  14.515  19.695  0.00  0.00    +0.000 C 
ENDROOT
BRANCH   4  18
ATOM     18  O   UNL     1      11.906  13.351  15.618  0.00  0.00    +0.000 OA
ATOM     19  H   UNL     1      12.825  13.182  15.887  0.00  0.00    +0.000 HD
ENDBRANCH   4  18
BRANCH  12  20
ATOM     20  C   UNL     1       7.045  12.805  23.174  0.00  0.00    +0.000 C 
ATOM     21  C   UNL     1       7.135  12.101  24.304  0.00  0.00    +0.000 C 
BRANCH  21  22
ATOM     22  C   UNL     1       6.379  12.522  25.547  0.00  0.00    +0.000 C 
ATOM     23  C   UNL     1       7.183  12.323  26.824  0.00  0.00    +0.000 C 
ATOM     24  C   UNL     1       5.951  13.978  25.370  0.00  0.00    +0.000 C 
BRANCH  22  25
ATOM     25  O   UNL     1       5.189  11.740  25.684  0.00  0.00    +0.000 OA
ATOM     26  H   UNL     1       4.480  12.199  25.198  0.00  0.00    +0.000 HD
ENDBRANCH  22  25
ENDBRANCH  21  22
ENDBRANCH  12  20
TORSDOF 4
ENDMDL
MODEL 2
REMARK VINA RESULT:      -6.1      9.454     11.564
REMARK  Name = 
REMARK  7 active torsions:
REMARK  status: ('A' for Active; 'I' for Inactive)
REMARK    1  A    between atoms: C_4  and  O_5
REMARK    2  A    between atoms: C_7  and  C_8
REMARK    3  A    between atoms: C_13  and  C_14
REMARK    4  A    between atoms: C_15  and  C_16
REMARK    5  A    between atoms: C_16  and  C_17
REMARK    6  A    between atoms: C_16  and  C_18
REMARK    7  A    between atoms: C_16  and  O_19
REMARK                            x       y       z     vdW  Elec       q    Type
REMARK                         _______ _______ _______ _____ _____    ______ ____
ROOT
ATOM      1  C   UNL     1      -0.907  13.317  22.959  0.00  0.00    +0.000 C 
ATOM      2  C   UNL     1      -1.574  12.460  22.158  0.00  0.00    +0.000 C 
ATOM      3  C   UNL     1      -3.023  12.811  21.770  0.00  0.00    +0.000 C 
ATOM      4  C   UNL     1      -3.332  13.039  20.266  0.00  0.00    +0.000 C 
ATOM      5  C   UNL     1      -2.059  13.337  19.543  0.00  0.00    +0.000 C 
ATOM      6  C   UNL     1      -1.472  12.491  18.686  0.00  0.00    +0.000 C 
ATOM      7  C   UNL     1      -2.159  11.398  17.914  0.00  0.00    +0.000 C 
ATOM      8  C   UNL     1       0.025  12.508  18.682  0.00  0.00    +0.000 C 
ATOM      9  C   UNL     1       0.533  11.264  19.402  0.00  0.00    +0.000 C 
ATOM     10  C   UNL     1       0.336  10.998  20.935  0.00  0.00    +0.000 C 
ATOM     11  C   UNL     1       0.867   9.590  21.169  0.00  0.00    +0.000 C 
ATOM     12  C   UNL     1       0.867   8.519  20.350  0.00  0.00    +0.000 C 
ATOM     13  C   UNL     1       1.243   9.398  22.577  0.00  0.00    +0.000 C 
ATOM     14  O   UNL     1       2.376   9.272  23.001  0.00  0.00    +0.000 OA
ATOM     15  O   UNL     1       0.101   9.242  23.275  0.00  0.00    +0.000 OA
ATOM     16  C   UNL     1      -0.820  10.335  23.178  0.00  0.00    +0.000 C 
ATOM     17  C   UNL     1      -1.001  11.071  21.779  0.00  0.00    +0.000 C 
ENDROOT
BRANCH   4  18
ATOM     18  O   UNL     1      -4.225  14.131  20.098  0.00  0.00    +0.000 OA
ATOM     19  H   UNL     1      -3.863  14.892  20.582  0.00  0.00    +0.000 HD
ENDBRANCH   4  18
BRANCH  12  20
ATOM     20  C   UNL     1       1.691   7.364  20.588  0.00  0.00    +0.000 C 
ATOM     21  C   UNL     1       1.378   6.096  20.314  0.00  0.00    +0.000 C 
BRANCH  21  22
ATOM     22  C   UNL     1       2.445   5.024  20.259  0.00  0.00    +0.000 C 
ATOM     23  C   UNL     1       2.509   4.187  21.528  0.00  0.00    +0.000 C 
ATOM     24  C   UNL     1       2.184   4.160  19.026  0.00  0.00    +0.000 C 
BRANCH  22  25
ATOM     25  O   UNL     1       3.733   5.623  20.096  0.00  0.00    +0.000 OA
ATOM     26  H   UNL     1       4.129   5.252  19.287  0.00  0.00    +0.000 HD
ENDBRANCH  22  25
ENDBRANCH  21  22
ENDBRANCH  12  20
TORSDOF 4
ENDMDL
MODEL 3
REMARK VINA RESULT:      -6.0      1.767      3.395
REMARK  Name = 
REMARK  7 active torsions:
REMARK  status: ('A' for Active; 'I' for Inactive)
REMARK    1  A    between atoms: C_4  and  O_5
REMARK    2  A    between atoms: C_7  and  C_8
REMARK    3  A    between atoms: C_13  and  C_14
REMARK    4  A    between atoms: C_15  and  C_16
REMARK    5  A    between atoms: C_16  and  C_17
REMARK    6  A    between atoms: C_16  and  C_18
REMARK    7  A    between atoms: C_16  and  O_19
REMARK                            x       y       z     vdW  Elec       q    Type
REMARK                         _______ _______ _______ _____ _____    ______ ____
ROOT
ATOM      1  C   UNL     1       8.751  11.146  18.056  0.00  0.00    +0.000 C 
ATOM      2  C   UNL     1       9.809  11.783  18.599  0.00  0.00    +0.000 C 
ATOM      3  C   UNL     1      11.145  11.748  17.834  0.00  0.00    +0.000 C 
ATOM      4  C   UNL     1      11.732  13.100  17.344  0.00  0.00    +0.000 C 
ATOM      5  C   UNL     1      10.642  14.121  17.301  0.00  0.00    +0.000 C 
ATOM      6  C   UNL     1      10.548  15.148  18.157  0.00  0.00    +0.000 C 
ATOM      7  C   UNL     1      11.686  15.766  18.925  0.00  0.00    +0.000 C 
ATOM      8  C   UNL     1       9.157  15.554  18.533  0.00  0.00    +0.000 C 
ATOM      9  C   UNL     1       8.868  15.064  19.948  0.00  0.00    +0.000 C 
ATOM     10  C   UNL     1       8.755  13.551  20.345  0.00  0.00    +0.000 C 
ATOM     11  C   UNL     1       8.609  13.544  21.860  0.00  0.00    +0.000 C 
ATOM     12  C   UNL     1       9.115  14.389  22.782  0.00  0.00    +0.000 C 
ATOM     13  C   UNL     1       7.974  12.301  22.322  0.00  0.00    +0.000 C 
ATOM     14  O   UNL     1       6.858  12.203  22.793  0.00  0.00    +0.000 OA
ATOM     15  O   UNL     1       8.908  11.331  22.258  0.00  0.00    +0.000 OA
ATOM     16  C   UNL     1       9.471  11.119  20.959  0.00  0.00    +0.000 C 
ATOM     17  C   UNL     1       9.768  12.376  20.031  0.00  0.00    +0.000 C 
ENDROOT
BRANCH   4  18
ATOM     18  O   UNL     1      12.287  12.963  16.044  0.00  0.00    +0.000 OA
ATOM     19  H   UNL     1      12.356  12.014  15.844  0.00  0.00    +0.000 HD
ENDBRANCH   4  18
BRANCH  12  20
ATOM     20  C   UNL     1       8.624  14.442  24.133  0.00  0.00    +0.000 C 
ATOM     21  C   UNL     1       7.672  15.253  24.599  0.00  0.00    +0.000 C 
BRANCH  21  22
ATOM     22  C   UNL     1       6.985  14.971  25.918  0.00  0.00    +0.000 C 
ATOM     23  C   UNL     1       5.627  14.306  25.748  0.00  0.00    +0.000 C 
ATOM     24  C   UNL     1       7.927  14.121  26.770  0.00  0.00    +0.000 C 
BRANCH  22  25
ATOM     25  O   UNL     1       6.759  16.195  26.623  0.00  0.00    +0.000 OA
ATOM     26  H   UNL     1       7.316  16.878  26.210  0.00  0.00    +0.000 HD
ENDBRANCH  22  25
ENDBRANCH  21  22
ENDBRANCH  12  20
TORSDOF 4
ENDMDL
MODEL 4
REMARK VINA RESULT:      -5.9      9.707     13.341
REMARK  Name = 
REMARK  7 active torsions:
REMARK  status: ('A' for Active; 'I' for Inactive)
REMARK    1  A    between atoms: C_4  and  O_5
REMARK    2  A    between atoms: C_7  and  C_8
REMARK    3  A    between atoms: C_13  and  C_14
REMARK    4  A    between atoms: C_15  and  C_16
REMARK    5  A    between atoms: C_16  and  C_17
REMARK    6  A    between atoms: C_16  and  C_18
REMARK    7  A    between atoms: C_16  and  O_19
REMARK                            x       y       z     vdW  Elec       q    Type
REMARK                         _______ _______ _______ _____ _____    ______ ____
ROOT
ATOM      1  C   UNL     1       2.446   6.605  20.102  0.00  0.00    +0.000 C 
ATOM      2  C   UNL     1       3.047   5.397  20.087  0.00  0.00    +0.000 C 
ATOM      3  C   UNL     1       2.971   4.536  21.363  0.00  0.00    +0.000 C 
ATOM      4  C   UNL     1       2.243   3.168  21.266  0.00  0.00    +0.000 C 
ATOM      5  C   UNL     1       1.347   3.172  20.071  0.00  0.00    +0.000 C 
ATOM      6  C   UNL     1       1.580   2.457  18.962  0.00  0.00    +0.000 C 
ATOM      7  C   UNL     1       2.404   1.201  18.877  0.00  0.00    +0.000 C 
ATOM      8  C   UNL     1       1.162   3.100  17.676  0.00  0.00    +0.000 C 
ATOM      9  C   UNL     1       2.405   3.604  16.951  0.00  0.00    +0.000 C 
ATOM     10  C   UNL     1       3.314   4.768  17.477  0.00  0.00    +0.000 C 
ATOM     11  C   UNL     1       4.496   4.818  16.518  0.00  0.00    +0.000 C 
ATOM     12  C   UNL     1       5.099   3.823  15.836  0.00  0.00    +0.000 C 
ATOM     13  C   UNL     1       5.136   6.141  16.542  0.00  0.00    +0.000 C 
ATOM     14  O   UNL     1       5.116   6.959  15.642  0.00  0.00    +0.000 OA
ATOM     15  O   UNL     1       5.862   6.210  17.676  0.00  0.00    +0.000 OA
ATOM     16  C   UNL     1       5.115   6.026  18.883  0.00  0.00    +0.000 C 
ATOM     17  C   UNL     1       3.952   4.942  18.915  0.00  0.00    +0.000 C 
ENDROOT
BRANCH   4  18
ATOM     18  O   UNL     1       1.460   2.935  22.429  0.00  0.00    +0.000 OA
ATOM     19  H   UNL     1       0.968   3.749  22.628  0.00  0.00    +0.000 HD
ENDBRANCH   4  18
BRANCH  12  20
ATOM     20  C   UNL     1       5.983   4.071  14.729  0.00  0.00    +0.000 C 
ATOM     21  C   UNL     1       6.060   3.362  13.601  0.00  0.00    +0.000 C 
BRANCH  21  22
ATOM     22  C   UNL     1       6.745   3.922  12.373  0.00  0.00    +0.000 C 
ATOM     23  C   UNL     1       7.731   5.034  12.701  0.00  0.00    +0.000 C 
ATOM     24  C   UNL     1       7.423   2.764  11.641  0.00  0.00    +0.000 C 
BRANCH  22  25
ATOM     25  O   UNL     1       5.775   4.480  11.483  0.00  0.00    +0.000 OA
ATOM     26  H   UNL     1       5.619   5.401  11.761  0.00  0.00    +0.000 HD
ENDBRANCH  22  25
ENDBRANCH  21  22
ENDBRANCH  12  20
TORSDOF 4
ENDMDL
MODEL 5
REMARK VINA RESULT:      -5.9      9.850     13.429
REMARK  Name = 
REMARK  7 active torsions:
REMARK  status: ('A' for Active; 'I' for Inactive)
REMARK    1  A    between atoms: C_4  and  O_5
REMARK    2  A    between atoms: C_7  and  C_8
REMARK    3  A    between atoms: C_13  and  C_14
REMARK    4  A    between atoms: C_15  and  C_16
REMARK    5  A    between atoms: C_16  and  C_17
REMARK    6  A    between atoms: C_16  and  C_18
REMARK    7  A    between atoms: C_16  and  O_19
REMARK                            x       y       z     vdW  Elec       q    Type
REMARK                         _______ _______ _______ _____ _____    ______ ____
ROOT
ATOM      1  C   UNL     1       2.495   6.468  20.615  0.00  0.00    +0.000 C 
ATOM      2  C   UNL     1       2.934   5.205  20.432  0.00  0.00    +0.000 C 
ATOM      3  C   UNL     1       2.784   4.211  21.600  0.00  0.00    +0.000 C 
ATOM      4  C   UNL     1       1.882   2.967  21.376  0.00  0.00    +0.000 C 
ATOM      5  C   UNL     1       0.961   3.228  20.230  0.00  0.00    +0.000 C 
ATOM      6  C   UNL     1       1.067   2.630  19.036  0.00  0.00    +0.000 C 
ATOM      7  C   UNL     1       1.720   1.300  18.769  0.00  0.00    +0.000 C 
ATOM      8  C   UNL     1       0.700   3.472  17.854  0.00  0.00    +0.000 C 
ATOM      9  C   UNL     1       1.977   3.900  17.139  0.00  0.00    +0.000 C 
ATOM     10  C   UNL     1       3.043   4.869  17.757  0.00  0.00    +0.000 C 
ATOM     11  C   UNL     1       4.194   4.887  16.760  0.00  0.00    +0.000 C 
ATOM     12  C   UNL     1       4.643   3.915  15.940  0.00  0.00    +0.000 C 
ATOM     13  C   UNL     1       5.000   6.107  16.910  0.00  0.00    +0.000 C 
ATOM     14  O   UNL     1       5.060   7.024  16.114  0.00  0.00    +0.000 OA
ATOM     15  O   UNL     1       5.761   5.946  18.011  0.00  0.00    +0.000 OA
ATOM     16  C   UNL     1       5.031   5.712  19.220  0.00  0.00    +0.000 C 
ATOM     17  C   UNL     1       3.739   4.785  19.176  0.00  0.00    +0.000 C 
ENDROOT
BRANCH   4  18
ATOM     18  O   UNL     1       1.110   2.694  22.537  0.00  0.00    +0.000 OA
ATOM     19  H   UNL     1       1.625   2.970  23.313  0.00  0.00    +0.000 HD
ENDBRANCH   4  18
BRANCH  12  20
ATOM     20  C   UNL     1       5.520   4.183  14.832  0.00  0.00    +0.000 C 
ATOM     21  C   UNL     1       5.957   3.297  13.934  0.00  0.00    +0.000 C 
BRANCH  21  22
ATOM     22  C   UNL     1       6.559   3.750  12.621  0.00  0.00    +0.000 C 
ATOM     23  C   UNL     1       5.508   4.085  11.573  0.00  0.00    +0.000 C 
ATOM     24  C   UNL     1       7.473   4.941  12.906  0.00  0.00    +0.000 C 
BRANCH  22  25
ATOM     25  O   UNL     1       7.372   2.709  12.071  0.00  0.00    +0.000 OA
ATOM     26  H   UNL     1       7.692   3.016  11.204  0.00  0.00    +0.000 HD
ENDBRANCH  22  25
ENDBRANCH  21  22
ENDBRANCH  12  20
TORSDOF 4
ENDMDL
MODEL 6
REMARK VINA RESULT:      -5.7      1.988      3.511
REMARK  Name = 
REMARK  7 active torsions:
REMARK  status: ('A' for Active; 'I' for Inactive)
REMARK    1  A    between atoms: C_4  and  O_5
REMARK    2  A    between atoms: C_7  and  C_8
REMARK    3  A    between atoms: C_13  and  C_14
REMARK    4  A    between atoms: C_15  and  C_16
REMARK    5  A    between atoms: C_16  and  C_17
REMARK    6  A    between atoms: C_16  and  C_18
REMARK    7  A    between atoms: C_16  and  O_19
REMARK                            x       y       z     vdW  Elec       q    Type
REMARK                         _______ _______ _______ _____ _____    ______ ____
ROOT
ATOM      1  C   UNL     1       9.049  12.427  17.758  0.00  0.00    +0.000 C 
ATOM      2  C   UNL     1       9.771  13.405  18.342  0.00  0.00    +0.000 C 
ATOM      3  C   UNL     1      10.800  14.160  17.478  0.00  0.00    +0.000 C 
ATOM      4  C   UNL     1      10.588  15.684  17.271  0.00  0.00    +0.000 C 
ATOM      5  C   UNL     1       9.162  16.025  17.562  0.00  0.00    +0.000 C 
ATOM      6  C   UNL     1       8.766  16.717  18.638  0.00  0.00    +0.000 C 
ATOM      7  C   UNL     1       9.608  17.681  19.429  0.00  0.00    +0.000 C 
ATOM      8  C   UNL     1       7.445  16.315  19.217  0.00  0.00    +0.000 C 
ATOM      9  C   UNL     1       7.689  15.523  20.497  0.00  0.00    +0.000 C 
ATOM     10  C   UNL     1       8.368  14.111  20.537  0.00  0.00    +0.000 C 
ATOM     11  C   UNL     1       8.531  13.785  22.015  0.00  0.00    +0.000 C 
ATOM     12  C   UNL     1       8.750  14.607  23.062  0.00  0.00    +0.000 C 
ATOM     13  C   UNL     1       8.645  12.335  22.225  0.00  0.00    +0.000 C 
ATOM     14  O   UNL     1       7.813  11.624  22.755  0.00  0.00    +0.000 OA
ATOM     15  O   UNL     1       9.892  11.978  21.857  0.00  0.00    +0.000 OA
ATOM     16  C   UNL     1      10.233  12.287  20.501  0.00  0.00    +0.000 C 
ATOM     17  C   UNL     1       9.731  13.658  19.871  0.00  0.00    +0.000 C 
ENDROOT
BRANCH   4  18
ATOM     18  O   UNL     1      10.886  16.053  15.932  0.00  0.00    +0.000 OA
ATOM     19  H   UNL     1      10.927  17.023  15.889  0.00  0.00    +0.000 HD
ENDBRANCH   4  18
BRANCH  12  20
ATOM     20  C   UNL     1       8.555  14.190  24.425  0.00  0.00    +0.000 C 
ATOM     21  C   UNL     1       7.418  14.259  25.121  0.00  0.00    +0.000 C 
BRANCH  21  22
ATOM     22  C   UNL     1       7.234  13.462  26.395  0.00  0.00    +0.000 C 
ATOM     23  C   UNL     1       7.656  14.231  27.639  0.00  0.00    +0.000 C 
ATOM     24  C   UNL     1       5.773  13.023  26.470  0.00  0.00    +0.000 C 
BRANCH  22  25
ATOM     25  O   UNL     1       8.035  12.278  26.351  0.00  0.00    +0.000 OA
ATOM     26  H   UNL     1       7.956  11.904  25.454  0.00  0.00    +0.000 HD
ENDBRANCH  22  25
ENDBRANCH  21  22
ENDBRANCH  12  20
TORSDOF 4
ENDMDL
MODEL 7
REMARK VINA RESULT:      -5.6      2.377      3.615
REMARK  Name = 
REMARK  7 active torsions:
REMARK  status: ('A' for Active; 'I' for Inactive)
REMARK    1  A    between atoms: C_4  and  O_5
REMARK    2  A    between atoms: C_7  and  C_8
REMARK    3  A    between atoms: C_13  and  C_14
REMARK    4  A    between atoms: C_15  and  C_16
REMARK    5  A    between atoms: C_16  and  C_17
REMARK    6  A    between atoms: C_16  and  C_18
REMARK    7  A    between atoms: C_16  and  O_19
REMARK                            x       y       z     vdW  Elec       q    Type
REMARK                         _______ _______ _______ _____ _____    ______ ____
ROOT
ATOM      1  C   UNL     1       6.694  16.994  20.950  0.00  0.00    +0.000 C 
ATOM      2  C   UNL     1       6.710  15.733  20.469  0.00  0.00    +0.000 C 
ATOM      3  C   UNL     1       6.870  15.540  18.949  0.00  0.00    +0.000 C 
ATOM      4  C   UNL     1       8.129  14.782  18.447  0.00  0.00    +0.000 C 
ATOM      5  C   UNL     1       9.174  14.806  19.514  0.00  0.00    +0.000 C 
ATOM      6  C   UNL     1       9.538  13.731  20.226  0.00  0.00    +0.000 C 
ATOM      7  C   UNL     1       9.397  12.296  19.794  0.00  0.00    +0.000 C 
ATOM      8  C   UNL     1       9.906  13.992  21.653  0.00  0.00    +0.000 C 
ATOM      9  C   UNL     1       8.767  13.518  22.549  0.00  0.00    +0.000 C 
ATOM     10  C   UNL     1       7.345  14.176  22.580  0.00  0.00    +0.000 C 
ATOM     11  C   UNL     1       6.512  13.290  23.497  0.00  0.00    +0.000 C 
ATOM     12  C   UNL     1       6.584  11.960  23.712  0.00  0.00    +0.000 C 
ATOM     13  C   UNL     1       5.366  14.029  24.044  0.00  0.00    +0.000 C 
ATOM     14  O   UNL     1       5.225  14.369  25.203  0.00  0.00    +0.000 OA
ATOM     15  O   UNL     1       4.450  14.126  23.060  0.00  0.00    +0.000 OA
ATOM     16  C   UNL     1       4.908  14.779  21.871  0.00  0.00    +0.000 C 
ATOM     17  C   UNL     1       6.390  14.507  21.362  0.00  0.00    +0.000 C 
ENDROOT
BRANCH   4  18
ATOM     18  O   UNL     1       8.650  15.398  17.277  0.00  0.00    +0.000 OA
ATOM     19  H   UNL     1       8.407  16.339  17.299  0.00  0.00    +0.000 HD
ENDBRANCH   4  18
BRANCH  12  20
ATOM     20  C   UNL     1       5.955  11.326  24.840  0.00  0.00    +0.000 C 
ATOM     21  C   UNL     1       6.505  11.113  26.037  0.00  0.00    +0.000 C 
BRANCH  21  22
ATOM     22  C   UNL     1       5.647  10.785  27.241  0.00  0.00    +0.000 C 
ATOM     23  C   UNL     1       5.524  11.948  28.214  0.00  0.00    +0.000 C 
ATOM     24  C   UNL     1       4.281  10.323  26.737  0.00  0.00    +0.000 C 
BRANCH  22  25
ATOM     25  O   UNL     1       6.224   9.698  27.970  0.00  0.00    +0.000 OA
ATOM     26  H   UNL     1       5.568   9.408  28.630  0.00  0.00    +0.000 HD
ENDBRANCH  22  25
ENDBRANCH  21  22
ENDBRANCH  12  20
TORSDOF 4
ENDMDL
MODEL 8
REMARK VINA RESULT:      -5.5     12.354     15.700
REMARK  Name = 
REMARK  7 active torsions:
REMARK  status: ('A' for Active; 'I' for Inactive)
REMARK    1  A    between atoms: C_4  and  O_5
REMARK    2  A    between atoms: C_7  and  C_8
REMARK    3  A    between atoms: C_13  and  C_14
REMARK    4  A    between atoms: C_15  and  C_16
REMARK    5  A    between atoms: C_16  and  C_17
REMARK    6  A    between atoms: C_16  and  C_18
REMARK    7  A    between atoms: C_16  and  O_19
REMARK                            x       y       z     vdW  Elec       q    Type
REMARK                         _______ _______ _______ _____ _____    ______ ____
ROOT
ATOM      1  C   UNL     1      -7.804  14.334  23.979  0.00  0.00    +0.000 C 
ATOM      2  C   UNL     1      -6.934  15.051  23.237  0.00  0.00    +0.000 C 
ATOM      3  C   UNL     1      -6.837  16.566  23.501  0.00  0.00    +0.000 C 
ATOM      4  C   UNL     1      -5.476  17.125  23.998  0.00  0.00    +0.000 C 
ATOM      5  C   UNL     1      -4.668  16.009  24.575  0.00  0.00    +0.000 C 
ATOM      6  C   UNL     1      -3.574  15.501  23.991  0.00  0.00    +0.000 C 
ATOM      7  C   UNL     1      -2.682  16.216  23.012  0.00  0.00    +0.000 C 
ATOM      8  C   UNL     1      -3.366  14.030  24.172  0.00  0.00    +0.000 C 
ATOM      9  C   UNL     1      -3.720  13.320  22.869  0.00  0.00    +0.000 C 
ATOM     10  C   UNL     1      -5.169  13.252  22.274  0.00  0.00    +0.000 C 
ATOM     11  C   UNL     1      -5.013  12.584  20.915  0.00  0.00    +0.000 C 
ATOM     12  C   UNL     1      -3.987  12.631  20.040  0.00  0.00    +0.000 C 
ATOM     13  C   UNL     1      -6.279  11.976  20.479  0.00  0.00    +0.000 C 
ATOM     14  O   UNL     1      -6.505  10.785  20.393  0.00  0.00    +0.000 OA
ATOM     15  O   UNL     1      -7.077  12.979  20.061  0.00  0.00    +0.000 OA
ATOM     16  C   UNL     1      -7.349  13.985  21.043  0.00  0.00    +0.000 C 
ATOM     17  C   UNL     1      -6.185  14.440  22.026  0.00  0.00    +0.000 C 
ENDROOT
BRANCH   4  18
ATOM     18  O   UNL     1      -5.677  18.114  24.997  0.00  0.00    +0.000 OA
ATOM     19  H   UNL     1      -5.337  17.765  25.839  0.00  0.00    +0.000 HD
ENDBRANCH   4  18
BRANCH  12  20
ATOM     20  C   UNL     1      -3.851  11.694  18.958  0.00  0.00    +0.000 C 
ATOM     21  C   UNL     1      -2.816  11.592  18.122  0.00  0.00    +0.000 C 
BRANCH  21  22
ATOM     22  C   UNL     1      -2.614  10.352  17.277  0.00  0.00    +0.000 C 
ATOM     23  C   UNL     1      -2.964  10.571  15.813  0.00  0.00    +0.000 C 
ATOM     24  C   UNL     1      -1.167   9.893  17.450  0.00  0.00    +0.000 C 
BRANCH  22  25
ATOM     25  O   UNL     1      -3.456   9.297  17.749  0.00  0.00    +0.000 OA
ATOM     26  H   UNL     1      -3.503   9.371  18.719  0.00  0.00    +0.000 HD
ENDBRANCH  22  25
ENDBRANCH  21  22
ENDBRANCH  12  20
TORSDOF 4
ENDMDL
MODEL 9
REMARK VINA RESULT:      -5.5      2.074      3.629
REMARK  Name = 
REMARK  7 active torsions:
REMARK  status: ('A' for Active; 'I' for Inactive)
REMARK    1  A    between atoms: C_4  and  O_5
REMARK    2  A    between atoms: C_7  and  C_8
REMARK    3  A    between atoms: C_13  and  C_14
REMARK    4  A    between atoms: C_15  and  C_16
REMARK    5  A    between atoms: C_16  and  C_17
REMARK    6  A    between atoms: C_16  and  C_18
REMARK    7  A    between atoms: C_16  and  O_19
REMARK                            x       y       z     vdW  Elec       q    Type
REMARK                         _______ _______ _______ _____ _____    ______ ____
ROOT
ATOM      1  C   UNL     1       8.739  12.484  17.700  0.00  0.00    +0.000 C 
ATOM      2  C   UNL     1       9.559  13.374  18.297  0.00  0.00    +0.000 C 
ATOM      3  C   UNL     1      10.625  14.070  17.429  0.00  0.00    +0.000 C 
ATOM      4  C   UNL     1      10.541  15.613  17.283  0.00  0.00    +0.000 C 
ATOM      5  C   UNL     1       9.159  16.064  17.629  0.00  0.00    +0.000 C 
ATOM      6  C   UNL     1       8.854  16.745  18.742  0.00  0.00    +0.000 C 
ATOM      7  C   UNL     1       9.799  17.602  19.541  0.00  0.00    +0.000 C 
ATOM      8  C   UNL     1       7.519  16.437  19.346  0.00  0.00    +0.000 C 
ATOM      9  C   UNL     1       7.728  15.578  20.588  0.00  0.00    +0.000 C 
ATOM     10  C   UNL     1       8.283  14.112  20.557  0.00  0.00    +0.000 C 
ATOM     11  C   UNL     1       8.458  13.718  22.017  0.00  0.00    +0.000 C 
ATOM     12  C   UNL     1       8.776  14.477  23.086  0.00  0.00    +0.000 C 
ATOM     13  C   UNL     1       8.451  12.256  22.171  0.00  0.00    +0.000 C 
ATOM     14  O   UNL     1       7.575  11.599  22.700  0.00  0.00    +0.000 OA
ATOM     15  O   UNL     1       9.651  11.808  21.753  0.00  0.00    +0.000 OA
ATOM     16  C   UNL     1       9.980  12.138  20.399  0.00  0.00    +0.000 C 
ATOM     17  C   UNL     1       9.583  13.570  19.834  0.00  0.00    +0.000 C 
ENDROOT
BRANCH   4  18
ATOM     18  O   UNL     1      10.834  16.006  15.950  0.00  0.00    +0.000 OA
ATOM     19  H   UNL     1      11.192  16.909  15.973  0.00  0.00    +0.000 HD
ENDBRANCH   4  18
BRANCH  12  20
ATOM     20  C   UNL     1       8.584  14.027  24.438  0.00  0.00    +0.000 C 
ATOM     21  C   UNL     1       8.077  14.739  25.446  0.00  0.00    +0.000 C 
BRANCH  21  22
ATOM     22  C   UNL     1       7.580  14.063  26.706  0.00  0.00    +0.000 C 
ATOM     23  C   UNL     1       7.323  12.575  26.517  0.00  0.00    +0.000 C 
ATOM     24  C   UNL     1       8.598  14.324  27.815  0.00  0.00    +0.000 C 
BRANCH  22  25
ATOM     25  O   UNL     1       6.341  14.646  27.118  0.00  0.00    +0.000 OA
ATOM     26  H   UNL     1       6.378  14.760  28.085  0.00  0.00    +0.000 HD
ENDBRANCH  22  25
ENDBRANCH  21  22
ENDBRANCH  12  20
TORSDOF 4
ENDMDL
