MODEL 1
REMARK VINA RESULT:      -9.5      0.000      0.000
REMARK  Name = 
REMARK  7 active torsions:
REMARK  status: ('A' for Active; 'I' for Inactive)
REMARK    1  A    between atoms: C_1  and  C_2
REMARK    2  A    between atoms: N_4  and  C_5
REMARK    3  A    between atoms: C_5  and  C_6
REMARK    4  A    between atoms: C_6  and  N_7
REMARK    5  A    between atoms: C_10  and  C_12
REMARK    6  A    between atoms: C_16  and  C_17
REMARK    7  A    between atoms: C_23  and  C_24
REMARK                            x       y       z     vdW  Elec       q    Type
REMARK                         _______ _______ _______ _____ _____    ______ ____
ROOT
ATOM      1  N   UNL     1       0.287  10.875  19.326  0.00  0.00    +0.000 N 
ATOM      2  C   UNL     1      -0.006  10.822  20.682  0.00  0.00    +0.000 A 
ATOM      3  N   UNL     1      -0.777  11.766  21.354  0.00  0.00    +0.000 N 
ATOM      4  C   UNL     1      -1.011  11.636  22.720  0.00  0.00    +0.000 C 
ATOM      5  O   UNL     1      -0.583  10.751  23.454  0.00  0.00    +0.000 OA
ATOM      6  N   UNL     1       0.547   9.745  21.217  0.00  0.00    +0.000 NA
ATOM      7  C   UNL     1       1.186   9.070  20.213  0.00  0.00    +0.000 A 
ATOM      8  C   UNL     1       1.904   7.861  20.170  0.00  0.00    +0.000 A 
ATOM      9  C   UNL     1       2.384   7.441  18.914  0.00  0.00    +0.000 A 
ATOM     10  C   UNL     1       2.076   8.203  17.800  0.00  0.00    +0.000 A 
ATOM     11  N   UNL     1       1.475   9.400  17.817  0.00  0.00    +0.000 NA
ATOM     12  C   UNL     1       1.035   9.763  19.030  0.00  0.00    +0.000 A 
ATOM     13  H   UNL     1      -1.132  12.566  20.851  0.00  0.00    +0.000 HD
ENDROOT
BRANCH   9  14
ATOM     14  C   UNL     1       3.084   6.150  18.734  0.00  0.00    +0.000 C 
ATOM     15  O   UNL     1       3.976   6.115  17.889  0.00  0.00    +0.000 OA
ATOM     16  N   UNL     1       2.769   5.052  19.550  0.00  0.00    +0.000 N 
ATOM     17  C   UNL     1       3.697   3.922  19.582  0.00  0.00    +0.000 C 
ATOM     18  C   UNL     1       2.999   2.625  19.190  0.00  0.00    +0.000 C 
ATOM     19  C   UNL     1       1.760   2.381  20.050  0.00  0.00    +0.000 C 
ATOM     20  C   UNL     1       0.825   3.582  19.995  0.00  0.00    +0.000 C 
ATOM     21  C   UNL     1       1.552   4.871  20.355  0.00  0.00    +0.000 C 
ENDBRANCH   9  14
BRANCH   4  22
ATOM     22  C   UNL     1      -1.855  12.677  23.390  0.00  0.00    +0.000 A 
ATOM     23  C   UNL     1      -3.198  12.340  23.640  0.00  0.00    +0.000 A 
ATOM     24  C   UNL     1      -4.098  13.282  24.141  0.00  0.00    +0.000 A 
ATOM     25  C   UNL     1      -3.665  14.583  24.388  0.00  0.00    +0.000 A 
ATOM     26  C   UNL     1      -2.329  14.937  24.143  0.00  0.00    +0.000 A 
ATOM     27  C   UNL     1      -1.420  13.984  23.653  0.00  0.00    +0.000 A 
BRANCH  26  28
ATOM     28  C   UNL     1      -1.913  16.295  24.359  0.00  0.00    +0.000 C 
ATOM     29  N   UNL     1      -1.575  17.395  24.536  0.00  0.00    +0.000 NA
ENDBRANCH  26  28
ENDBRANCH   4  22
BRANCH   1  30
ATOM     30  C   UNL     1      -0.096  11.868  18.329  0.00  0.00    +0.000 C 
BRANCH  30  31
ATOM     31  C   UNL     1      -1.619  11.967  18.075  0.00  0.00    +0.000 C 
BRANCH  31  35
ATOM     32  C   UNL     1      -2.904  10.275  14.975  0.00  0.00    +0.000 C 
ATOM     33  C   UNL     1      -2.639  10.429  16.445  0.00  0.00    +0.000 C 
ATOM     34  O   UNL     1      -2.930   9.588  17.283  0.00  0.00    +0.000 OA
ATOM     35  N   UNL     1      -2.064  11.636  16.743  0.00  0.00    +0.000 N 
ATOM     36  H   UNL     1      -1.595  12.121  15.984  0.00  0.00    +0.000 HD
ENDBRANCH  31  35
ENDBRANCH  30  31
ENDBRANCH   1  30
TORSDOF 6
ENDMDL
MODEL 2
REMARK VINA RESULT:      -9.5      1.355      1.778
REMARK  Name = 
REMARK  7 active torsions:
REMARK  status: ('A' for Active; 'I' for Inactive)
REMARK    1  A    between atoms: C_1  and  C_2
REMARK    2  A    between atoms: N_4  and  C_5
REMARK    3  A    between atoms: C_5  and  C_6
REMARK    4  A    between atoms: C_6  and  N_7
REMARK    5  A    between atoms: C_10  and  C_12
REMARK    6  A    between atoms: C_16  and  C_17
REMARK    7  A    between atoms: C_23  and  C_24
REMARK                            x       y       z     vdW  Elec       q    Type
REMARK                         _______ _______ _______ _____ _____    ______ ____
ROOT
ATOM      1  N   UNL     1       0.407  10.361  19.393  0.00  0.00    +0.000 N 
ATOM      2  C   UNL     1       0.015  10.415  20.723  0.00  0.00    +0.000 A 
ATOM      3  N   UNL     1      -0.823  11.392  21.253  0.00  0.00    +0.000 N 
ATOM      4  C   UNL     1      -1.156  11.372  22.605  0.00  0.00    +0.000 C 
ATOM      5  O   UNL     1      -0.767  10.563  23.442  0.00  0.00    +0.000 OA
ATOM      6  N   UNL     1       0.548   9.402  21.388  0.00  0.00    +0.000 NA
ATOM      7  C   UNL     1       1.273   8.662  20.495  0.00  0.00    +0.000 A 
ATOM      8  C   UNL     1       2.017   7.473  20.608  0.00  0.00    +0.000 A 
ATOM      9  C   UNL     1       2.598   6.961  19.432  0.00  0.00    +0.000 A 
ATOM     10  C   UNL     1       2.359   7.618  18.237  0.00  0.00    +0.000 A 
ATOM     11  N   UNL     1       1.734   8.796  18.107  0.00  0.00    +0.000 NA
ATOM     12  C   UNL     1       1.198   9.248  19.249  0.00  0.00    +0.000 A 
ATOM     13  H   UNL     1      -1.156  12.136  20.660  0.00  0.00    +0.000 HD
ENDROOT
BRANCH   9  14
ATOM     14  C   UNL     1       3.336   5.679  19.415  0.00  0.00    +0.000 C 
ATOM     15  O   UNL     1       4.547   5.738  19.217  0.00  0.00    +0.000 OA
ATOM     16  N   UNL     1       2.668   4.473  19.682  0.00  0.00    +0.000 N 
ATOM     17  C   UNL     1       3.469   3.291  19.995  0.00  0.00    +0.000 C 
ATOM     18  C   UNL     1       3.164   2.148  19.033  0.00  0.00    +0.000 C 
ATOM     19  C   UNL     1       1.668   1.840  18.995  0.00  0.00    +0.000 C 
ATOM     20  C   UNL     1       0.871   3.097  18.674  0.00  0.00    +0.000 C 
ATOM     21  C   UNL     1       1.218   4.236  19.625  0.00  0.00    +0.000 C 
ENDBRANCH   9  14
BRANCH   4  22
ATOM     22  C   UNL     1      -2.069  12.443  23.120  0.00  0.00    +0.000 A 
ATOM     23  C   UNL     1      -1.460  13.593  23.654  0.00  0.00    +0.000 A 
ATOM     24  C   UNL     1      -2.216  14.589  24.274  0.00  0.00    +0.000 A 
ATOM     25  C   UNL     1      -3.598  14.439  24.377  0.00  0.00    +0.000 A 
ATOM     26  C   UNL     1      -4.222  13.297  23.850  0.00  0.00    +0.000 A 
ATOM     27  C   UNL     1      -3.461  12.302  23.212  0.00  0.00    +0.000 A 
BRANCH  26  28
ATOM     28  C   UNL     1      -5.641  13.138  24.008  0.00  0.00    +0.000 C 
ATOM     29  N   UNL     1      -6.792  13.011  24.133  0.00  0.00    +0.000 NA
ENDBRANCH  26  28
ENDBRANCH   4  22
BRANCH   1  30
ATOM     30  C   UNL     1       0.080  11.256  18.289  0.00  0.00    +0.000 C 
BRANCH  30  31
ATOM     31  C   UNL     1      -1.436  11.466  18.061  0.00  0.00    +0.000 C 
BRANCH  31  35
ATOM     32  C   UNL     1      -3.004  10.319  14.844  0.00  0.00    +0.000 C 
ATOM     33  C   UNL     1      -2.767  10.333  16.326  0.00  0.00    +0.000 C 
ATOM     34  O   UNL     1      -3.308   9.568  17.112  0.00  0.00    +0.000 OA
ATOM     35  N   UNL     1      -1.900  11.324  16.701  0.00  0.00    +0.000 N 
ATOM     36  H   UNL     1      -1.287  11.695  15.982  0.00  0.00    +0.000 HD
ENDBRANCH  31  35
ENDBRANCH  30  31
ENDBRANCH   1  30
TORSDOF 6
ENDMDL
MODEL 3
REMARK VINA RESULT:      -9.2      1.400      2.144
REMARK  Name = 
REMARK  7 active torsions:
REMARK  status: ('A' for Active; 'I' for Inactive)
REMARK    1  A    between atoms: C_1  and  C_2
REMARK    2  A    between atoms: N_4  and  C_5
REMARK    3  A    between atoms: C_5  and  C_6
REMARK    4  A    between atoms: C_6  and  N_7
REMARK    5  A    between atoms: C_10  and  C_12
REMARK    6  A    between atoms: C_16  and  C_17
REMARK    7  A    between atoms: C_23  and  C_24
REMARK                            x       y       z     vdW  Elec       q    Type
REMARK                         _______ _______ _______ _____ _____    ______ ____
ROOT
ATOM      1  N   UNL     1       0.315  10.841  19.310  0.00  0.00    +0.000 N 
ATOM      2  C   UNL     1       0.004  10.746  20.659  0.00  0.00    +0.000 A 
ATOM      3  N   UNL     1      -0.767  11.675  21.353  0.00  0.00    +0.000 N 
ATOM      4  C   UNL     1      -1.019  11.502  22.711  0.00  0.00    +0.000 C 
ATOM      5  O   UNL     1      -0.609  10.588  23.421  0.00  0.00    +0.000 OA
ATOM      6  N   UNL     1       0.541   9.647  21.165  0.00  0.00    +0.000 NA
ATOM      7  C   UNL     1       1.187   8.999  20.147  0.00  0.00    +0.000 A 
ATOM      8  C   UNL     1       1.894   7.785  20.073  0.00  0.00    +0.000 A 
ATOM      9  C   UNL     1       2.387   7.403  18.810  0.00  0.00    +0.000 A 
ATOM     10  C   UNL     1       2.100   8.205  17.718  0.00  0.00    +0.000 A 
ATOM     11  N   UNL     1       1.509   9.406  17.767  0.00  0.00    +0.000 NA
ATOM     12  C   UNL     1       1.058   9.733  18.986  0.00  0.00    +0.000 A 
ATOM     13  H   UNL     1      -1.108  12.494  20.873  0.00  0.00    +0.000 HD
ENDROOT
BRANCH   9  14
ATOM     14  C   UNL     1       3.077   6.112  18.595  0.00  0.00    +0.000 C 
ATOM     15  O   UNL     1       2.663   5.148  19.235  0.00  0.00    +0.000 OA
ATOM     16  N   UNL     1       4.110   6.009  17.650  0.00  0.00    +0.000 N 
ATOM     17  C   UNL     1       4.527   4.675  17.220  0.00  0.00    +0.000 C 
ATOM     18  C   UNL     1       6.015   4.456  17.469  0.00  0.00    +0.000 C 
ATOM     19  C   UNL     1       6.853   5.559  16.825  0.00  0.00    +0.000 C 
ATOM     20  C   UNL     1       6.382   6.931  17.292  0.00  0.00    +0.000 C 
ATOM     21  C   UNL     1       4.887   7.113  17.068  0.00  0.00    +0.000 C 
ENDBRANCH   9  14
BRANCH   4  22
ATOM     22  C   UNL     1      -1.862  12.528  23.405  0.00  0.00    +0.000 A 
ATOM     23  C   UNL     1      -3.189  12.163  23.701  0.00  0.00    +0.000 A 
ATOM     24  C   UNL     1      -4.092  13.088  24.228  0.00  0.00    +0.000 A 
ATOM     25  C   UNL     1      -3.679  14.399  24.455  0.00  0.00    +0.000 A 
ATOM     26  C   UNL     1      -2.359  14.780  24.164  0.00  0.00    +0.000 A 
ATOM     27  C   UNL     1      -1.446  13.844  23.648  0.00  0.00    +0.000 A 
BRANCH  26  28
ATOM     28  C   UNL     1      -1.965  16.148  24.361  0.00  0.00    +0.000 C 
ATOM     29  N   UNL     1      -1.643  17.256  24.519  0.00  0.00    +0.000 NA
ENDBRANCH  26  28
ENDBRANCH   4  22
BRANCH   1  30
ATOM     30  C   UNL     1      -0.046  11.870  18.342  0.00  0.00    +0.000 C 
BRANCH  30  31
ATOM     31  C   UNL     1      -1.562  11.974  18.051  0.00  0.00    +0.000 C 
BRANCH  31  35
ATOM     32  C   UNL     1      -2.881  10.228  14.995  0.00  0.00    +0.000 C 
ATOM     33  C   UNL     1      -2.665  10.448  16.465  0.00  0.00    +0.000 C 
ATOM     34  O   UNL     1      -3.080   9.696  17.336  0.00  0.00    +0.000 OA
ATOM     35  N   UNL     1      -1.980  11.606  16.720  0.00  0.00    +0.000 N 
ATOM     36  H   UNL     1      -1.430  11.991  15.959  0.00  0.00    +0.000 HD
ENDBRANCH  31  35
ENDBRANCH  30  31
ENDBRANCH   1  30
TORSDOF 6
ENDMDL
MODEL 4
REMARK VINA RESULT:      -9.1      1.836      2.698
REMARK  Name = 
REMARK  7 active torsions:
REMARK  status: ('A' for Active; 'I' for Inactive)
REMARK    1  A    between atoms: C_1  and  C_2
REMARK    2  A    between atoms: N_4  and  C_5
REMARK    3  A    between atoms: C_5  and  C_6
REMARK    4  A    between atoms: C_6  and  N_7
REMARK    5  A    between atoms: C_10  and  C_12
REMARK    6  A    between atoms: C_16  and  C_17
REMARK    7  A    between atoms: C_23  and  C_24
REMARK                            x       y       z     vdW  Elec       q    Type
REMARK                         _______ _______ _______ _____ _____    ______ ____
ROOT
ATOM      1  N   UNL     1       0.236  10.770  19.236  0.00  0.00    +0.000 N 
ATOM      2  C   UNL     1      -0.125  10.740  20.576  0.00  0.00    +0.000 A 
ATOM      3  N   UNL     1      -0.958  11.674  21.184  0.00  0.00    +0.000 N 
ATOM      4  C   UNL     1      -1.258  11.569  22.540  0.00  0.00    +0.000 C 
ATOM      5  O   UNL     1      -0.843  10.714  23.316  0.00  0.00    +0.000 OA
ATOM      6  N   UNL     1       0.432   9.693  21.165  0.00  0.00    +0.000 NA
ATOM      7  C   UNL     1       1.142   9.015  20.212  0.00  0.00    +0.000 A 
ATOM      8  C   UNL     1       1.898   7.829  20.235  0.00  0.00    +0.000 A 
ATOM      9  C   UNL     1       2.455   7.395  19.017  0.00  0.00    +0.000 A 
ATOM     10  C   UNL     1       2.182   8.121  17.870  0.00  0.00    +0.000 A 
ATOM     11  N   UNL     1       1.544   9.299  17.826  0.00  0.00    +0.000 NA
ATOM     12  C   UNL     1       1.032   9.676  19.006  0.00  0.00    +0.000 A 
ATOM     13  H   UNL     1      -1.311  12.450  20.645  0.00  0.00    +0.000 HD
ENDROOT
BRANCH   9  14
ATOM     14  C   UNL     1       3.202   6.123  18.904  0.00  0.00    +0.000 C 
ATOM     15  O   UNL     1       2.880   5.221  19.674  0.00  0.00    +0.000 OA
ATOM     16  N   UNL     1       4.181   5.961  17.912  0.00  0.00    +0.000 N 
ATOM     17  C   UNL     1       4.645   4.608  17.609  0.00  0.00    +0.000 C 
ATOM     18  C   UNL     1       6.155   4.491  17.783  0.00  0.00    +0.000 C 
ATOM     19  C   UNL     1       6.891   5.552  16.966  0.00  0.00    +0.000 C 
ATOM     20  C   UNL     1       6.373   6.944  17.305  0.00  0.00    +0.000 C 
ATOM     21  C   UNL     1       4.860   7.027  17.159  0.00  0.00    +0.000 C 
ENDBRANCH   9  14
BRANCH   4  22
ATOM     22  C   UNL     1      -2.167  12.598  23.139  0.00  0.00    +0.000 A 
ATOM     23  C   UNL     1      -1.555  13.701  23.763  0.00  0.00    +0.000 A 
ATOM     24  C   UNL     1      -2.306  14.646  24.461  0.00  0.00    +0.000 A 
ATOM     25  C   UNL     1      -3.689  14.492  24.555  0.00  0.00    +0.000 A 
ATOM     26  C   UNL     1      -4.316  13.397  23.940  0.00  0.00    +0.000 A 
ATOM     27  C   UNL     1      -3.559  12.454  23.223  0.00  0.00    +0.000 A 
BRANCH  26  28
ATOM     28  C   UNL     1      -5.736  13.230  24.087  0.00  0.00    +0.000 C 
ATOM     29  N   UNL     1      -6.886  13.093  24.204  0.00  0.00    +0.000 NA
ENDBRANCH  26  28
ENDBRANCH   4  22
BRANCH   1  30
ATOM     30  C   UNL     1      -0.125  11.727  18.197  0.00  0.00    +0.000 C 
BRANCH  30  31
ATOM     31  C   UNL     1      -1.643  11.823  17.911  0.00  0.00    +0.000 C 
BRANCH  31  35
ATOM     32  C   UNL     1      -2.965  10.161  14.810  0.00  0.00    +0.000 C 
ATOM     33  C   UNL     1      -2.753  10.344  16.285  0.00  0.00    +0.000 C 
ATOM     34  O   UNL     1      -3.178   9.575  17.137  0.00  0.00    +0.000 OA
ATOM     35  N   UNL     1      -2.060  11.490  16.570  0.00  0.00    +0.000 N 
ATOM     36  H   UNL     1      -1.503  11.888  15.821  0.00  0.00    +0.000 HD
ENDBRANCH  31  35
ENDBRANCH  30  31
ENDBRANCH   1  30
TORSDOF 6
ENDMDL
MODEL 5
REMARK VINA RESULT:      -9.1      1.424      1.851
REMARK  Name = 
REMARK  7 active torsions:
REMARK  status: ('A' for Active; 'I' for Inactive)
REMARK    1  A    between atoms: C_1  and  C_2
REMARK    2  A    between atoms: N_4  and  C_5
REMARK    3  A    between atoms: C_5  and  C_6
REMARK    4  A    between atoms: C_6  and  N_7
REMARK    5  A    between atoms: C_10  and  C_12
REMARK    6  A    between atoms: C_16  and  C_17
REMARK    7  A    between atoms: C_23  and  C_24
REMARK                            x       y       z     vdW  Elec       q    Type
REMARK                         _______ _______ _______ _____ _____    ______ ____
ROOT
ATOM      1  N   UNL     1       0.673  11.162  19.292  0.00  0.00    +0.000 N 
ATOM      2  C   UNL     1       0.059  10.955  20.519  0.00  0.00    +0.000 A 
ATOM      3  N   UNL     1      -0.753  11.889  21.156  0.00  0.00    +0.000 N 
ATOM      4  C   UNL     1      -1.320  11.596  22.394  0.00  0.00    +0.000 C 
ATOM      5  O   UNL     1      -1.173  10.563  23.040  0.00  0.00    +0.000 OA
ATOM      6  N   UNL     1       0.356   9.746  20.969  0.00  0.00    +0.000 NA
ATOM      7  C   UNL     1       1.147   9.142  20.030  0.00  0.00    +0.000 A 
ATOM      8  C   UNL     1       1.730   7.864  19.938  0.00  0.00    +0.000 A 
ATOM      9  C   UNL     1       2.454   7.568  18.767  0.00  0.00    +0.000 A 
ATOM     10  C   UNL     1       2.501   8.519  17.761  0.00  0.00    +0.000 A 
ATOM     11  N   UNL     1       2.036   9.772  17.851  0.00  0.00    +0.000 NA
ATOM     12  C   UNL     1       1.356  10.013  18.981  0.00  0.00    +0.000 A 
ATOM     13  H   UNL     1      -0.895  12.794  20.734  0.00  0.00    +0.000 HD
ENDROOT
BRANCH   9  14
ATOM     14  C   UNL     1       3.044   6.233  18.526  0.00  0.00    +0.000 C 
ATOM     15  O   UNL     1       3.761   6.115  17.535  0.00  0.00    +0.000 OA
ATOM     16  N   UNL     1       2.831   5.188  19.438  0.00  0.00    +0.000 N 
ATOM     17  C   UNL     1       3.692   4.010  19.357  0.00  0.00    +0.000 C 
ATOM     18  C   UNL     1       2.871   2.740  19.162  0.00  0.00    +0.000 C 
ATOM     19  C   UNL     1       1.801   2.601  20.245  0.00  0.00    +0.000 C 
ATOM     20  C   UNL     1       0.932   3.851  20.302  0.00  0.00    +0.000 C 
ATOM     21  C   UNL     1       1.776   5.109  20.460  0.00  0.00    +0.000 C 
ENDBRANCH   9  14
BRANCH   4  22
ATOM     22  C   UNL     1      -2.193  12.635  23.029  0.00  0.00    +0.000 A 
ATOM     23  C   UNL     1      -1.542  13.701  23.677  0.00  0.00    +0.000 A 
ATOM     24  C   UNL     1      -2.258  14.649  24.407  0.00  0.00    +0.000 A 
ATOM     25  C   UNL     1      -3.644  14.535  24.510  0.00  0.00    +0.000 A 
ATOM     26  C   UNL     1      -4.310  13.477  23.871  0.00  0.00    +0.000 A 
ATOM     27  C   UNL     1      -3.588  12.531  23.122  0.00  0.00    +0.000 A 
BRANCH  26  28
ATOM     28  C   UNL     1      -5.732  13.348  24.027  0.00  0.00    +0.000 C 
ATOM     29  N   UNL     1      -6.886  13.246  24.152  0.00  0.00    +0.000 NA
ENDBRANCH  26  28
ENDBRANCH   4  22
BRANCH   1  30
ATOM     30  C   UNL     1       0.642  12.332  18.422  0.00  0.00    +0.000 C 
BRANCH  30  31
ATOM     31  C   UNL     1      -0.766  12.711  17.906  0.00  0.00    +0.000 C 
BRANCH  31  35
ATOM     32  C   UNL     1      -3.325   9.987  17.514  0.00  0.00    +0.000 C 
ATOM     33  C   UNL     1      -2.709  11.214  18.121  0.00  0.00    +0.000 C 
ATOM     34  O   UNL     1      -3.170  11.802  19.089  0.00  0.00    +0.000 OA
ATOM     35  N   UNL     1      -1.589  11.620  17.444  0.00  0.00    +0.000 N 
ATOM     36  H   UNL     1      -1.125  10.925  16.868  0.00  0.00    +0.000 HD
ENDBRANCH  31  35
ENDBRANCH  30  31
ENDBRANCH   1  30
TORSDOF 6
ENDMDL
MODEL 6
REMARK VINA RESULT:      -8.9      2.191      2.827
REMARK  Name = 
REMARK  7 active torsions:
REMARK  status: ('A' for Active; 'I' for Inactive)
REMARK    1  A    between atoms: C_1  and  C_2
REMARK    2  A    between atoms: N_4  and  C_5
REMARK    3  A    between atoms: C_5  and  C_6
REMARK    4  A    between atoms: C_6  and  N_7
REMARK    5  A    between atoms: C_10  and  C_12
REMARK    6  A    between atoms: C_16  and  C_17
REMARK    7  A    between atoms: C_23  and  C_24
REMARK                            x       y       z     vdW  Elec       q    Type
REMARK                         _______ _______ _______ _____ _____    ______ ____
ROOT
ATOM      1  N   UNL     1       0.556  10.290  19.480  0.00  0.00    +0.000 N 
ATOM      2  C   UNL     1       0.103  10.330  20.792  0.00  0.00    +0.000 A 
ATOM      3  N   UNL     1      -0.735  11.318  21.301  0.00  0.00    +0.000 N 
ATOM      4  C   UNL     1      -1.130  11.282  22.635  0.00  0.00    +0.000 C 
ATOM      5  O   UNL     1      -0.800  10.449  23.474  0.00  0.00    +0.000 OA
ATOM      6  N   UNL     1       0.581   9.293  21.462  0.00  0.00    +0.000 NA
ATOM      7  C   UNL     1       1.329   8.550  20.590  0.00  0.00    +0.000 A 
ATOM      8  C   UNL     1       2.038   7.341  20.715  0.00  0.00    +0.000 A 
ATOM      9  C   UNL     1       2.661   6.836  19.558  0.00  0.00    +0.000 A 
ATOM     10  C   UNL     1       2.494   7.520  18.365  0.00  0.00    +0.000 A 
ATOM     11  N   UNL     1       1.904   8.715  18.228  0.00  0.00    +0.000 NA
ATOM     12  C   UNL     1       1.326   9.160  19.352  0.00  0.00    +0.000 A 
ATOM     13  H   UNL     1      -1.021  12.081  20.706  0.00  0.00    +0.000 HD
ENDROOT
BRANCH   9  14
ATOM     14  C   UNL     1       3.367   5.536  19.551  0.00  0.00    +0.000 C 
ATOM     15  O   UNL     1       4.590   5.570  19.432  0.00  0.00    +0.000 OA
ATOM     16  N   UNL     1       2.656   4.341  19.740  0.00  0.00    +0.000 N 
ATOM     17  C   UNL     1       3.407   3.131  20.069  0.00  0.00    +0.000 C 
ATOM     18  C   UNL     1       3.137   2.023  19.057  0.00  0.00    +0.000 C 
ATOM     19  C   UNL     1       1.640   1.754  18.915  0.00  0.00    +0.000 C 
ATOM     20  C   UNL     1       0.895   3.040  18.580  0.00  0.00    +0.000 C 
ATOM     21  C   UNL     1       1.207   4.142  19.583  0.00  0.00    +0.000 C 
ENDBRANCH   9  14
BRANCH   4  22
ATOM     22  C   UNL     1      -2.041  12.367  23.127  0.00  0.00    +0.000 A 
ATOM     23  C   UNL     1      -1.429  13.538  23.611  0.00  0.00    +0.000 A 
ATOM     24  C   UNL     1      -2.180  14.551  24.208  0.00  0.00    +0.000 A 
ATOM     25  C   UNL     1      -3.559  14.399  24.338  0.00  0.00    +0.000 A 
ATOM     26  C   UNL     1      -4.186  13.237  23.861  0.00  0.00    +0.000 A 
ATOM     27  C   UNL     1      -3.430  12.224  23.246  0.00  0.00    +0.000 A 
BRANCH  26  28
ATOM     28  C   UNL     1      -5.601  13.077  24.047  0.00  0.00    +0.000 C 
ATOM     29  N   UNL     1      -6.749  12.948  24.200  0.00  0.00    +0.000 NA
ENDBRANCH  26  28
ENDBRANCH   4  22
BRANCH   1  30
ATOM     30  C   UNL     1       0.302  11.211  18.379  0.00  0.00    +0.000 C 
BRANCH  30  31
ATOM     31  C   UNL     1       0.996  12.587  18.520  0.00  0.00    +0.000 C 
BRANCH  31  35
ATOM     32  C   UNL     1      -0.969  15.364  20.118  0.00  0.00    +0.000 C 
ATOM     33  C   UNL     1       0.090  14.302  20.036  0.00  0.00    +0.000 C 
ATOM     34  O   UNL     1       0.846  14.021  20.955  0.00  0.00    +0.000 OA
ATOM     35  N   UNL     1       0.133  13.708  18.803  0.00  0.00    +0.000 N 
ATOM     36  H   UNL     1      -0.699  13.785  18.227  0.00  0.00    +0.000 HD
ENDBRANCH  31  35
ENDBRANCH  30  31
ENDBRANCH   1  30
TORSDOF 6
ENDMDL
MODEL 7
REMARK VINA RESULT:      -8.6      1.650      2.058
REMARK  Name = 
REMARK  7 active torsions:
REMARK  status: ('A' for Active; 'I' for Inactive)
REMARK    1  A    between atoms: C_1  and  C_2
REMARK    2  A    between atoms: N_4  and  C_5
REMARK    3  A    between atoms: C_5  and  C_6
REMARK    4  A    between atoms: C_6  and  N_7
REMARK    5  A    between atoms: C_10  and  C_12
REMARK    6  A    between atoms: C_16  and  C_17
REMARK    7  A    between atoms: C_23  and  C_24
REMARK                            x       y       z     vdW  Elec       q    Type
REMARK                         _______ _______ _______ _____ _____    ______ ____
ROOT
ATOM      1  N   UNL     1       0.589  10.242  19.373  0.00  0.00    +0.000 N 
ATOM      2  C   UNL     1       0.260  10.295  20.720  0.00  0.00    +0.000 A 
ATOM      3  N   UNL     1      -0.535  11.283  21.294  0.00  0.00    +0.000 N 
ATOM      4  C   UNL     1      -0.805  11.261  22.660  0.00  0.00    +0.000 C 
ATOM      5  O   UNL     1      -0.392  10.440  23.473  0.00  0.00    +0.000 OA
ATOM      6  N   UNL     1       0.805   9.269  21.355  0.00  0.00    +0.000 NA
ATOM      7  C   UNL     1       1.475   8.521  20.425  0.00  0.00    +0.000 A 
ATOM      8  C   UNL     1       2.201   7.318  20.498  0.00  0.00    +0.000 A 
ATOM      9  C   UNL     1       2.718   6.803  19.293  0.00  0.00    +0.000 A 
ATOM     10  C   UNL     1       2.436   7.471  18.114  0.00  0.00    +0.000 A 
ATOM     11  N   UNL     1       1.827   8.661  18.018  0.00  0.00    +0.000 NA
ATOM     12  C   UNL     1       1.352   9.116  19.187  0.00  0.00    +0.000 A 
ATOM     13  H   UNL     1      -0.881  12.037  20.720  0.00  0.00    +0.000 HD
ENDROOT
BRANCH   9  14
ATOM     14  C   UNL     1       3.430   5.508  19.235  0.00  0.00    +0.000 C 
ATOM     15  O   UNL     1       4.629   5.545  18.967  0.00  0.00    +0.000 OA
ATOM     16  N   UNL     1       2.758   4.314  19.542  0.00  0.00    +0.000 N 
ATOM     17  C   UNL     1       3.555   3.118  19.810  0.00  0.00    +0.000 C 
ATOM     18  C   UNL     1       3.175   1.980  18.869  0.00  0.00    +0.000 C 
ATOM     19  C   UNL     1       1.674   1.699  18.919  0.00  0.00    +0.000 C 
ATOM     20  C   UNL     1       0.881   2.970  18.643  0.00  0.00    +0.000 C 
ATOM     21  C   UNL     1       1.303   4.102  19.570  0.00  0.00    +0.000 C 
ENDBRANCH   9  14
BRANCH   4  22
ATOM     22  C   UNL     1      -1.674  12.345  23.221  0.00  0.00    +0.000 A 
ATOM     23  C   UNL     1      -3.000  11.996  23.537  0.00  0.00    +0.000 A 
ATOM     24  C   UNL     1      -3.924  12.960  23.943  0.00  0.00    +0.000 A 
ATOM     25  C   UNL     1      -3.532  14.294  24.028  0.00  0.00    +0.000 A 
ATOM     26  C   UNL     1      -2.213  14.660  23.717  0.00  0.00    +0.000 A 
ATOM     27  C   UNL     1      -1.279  13.686  23.323  0.00  0.00    +0.000 A 
BRANCH  26  28
ATOM     28  C   UNL     1      -1.840  16.047  23.766  0.00  0.00    +0.000 C 
ATOM     29  N   UNL     1      -1.536  17.171  23.807  0.00  0.00    +0.000 NA
ENDBRANCH  26  28
ENDBRANCH   4  22
BRANCH   1  30
ATOM     30  C   UNL     1       0.227  11.149  18.290  0.00  0.00    +0.000 C 
BRANCH  30  31
ATOM     31  C   UNL     1      -0.993  12.052  18.590  0.00  0.00    +0.000 C 
BRANCH  31  35
ATOM     32  C   UNL     1      -0.244  15.731  18.762  0.00  0.00    +0.000 C 
ATOM     33  C   UNL     1      -0.188  14.297  19.203  0.00  0.00    +0.000 C 
ATOM     34  O   UNL     1       0.384  13.915  20.215  0.00  0.00    +0.000 OA
ATOM     35  N   UNL     1      -0.822  13.460  18.324  0.00  0.00    +0.000 N 
ATOM     36  H   UNL     1      -1.505  13.880  17.701  0.00  0.00    +0.000 HD
ENDBRANCH  31  35
ENDBRANCH  30  31
ENDBRANCH   1  30
TORSDOF 6
ENDMDL
MODEL 8
REMARK VINA RESULT:      -8.6      1.804      2.723
REMARK  Name = 
REMARK  7 active torsions:
REMARK  status: ('A' for Active; 'I' for Inactive)
REMARK    1  A    between atoms: C_1  and  C_2
REMARK    2  A    between atoms: N_4  and  C_5
REMARK    3  A    between atoms: C_5  and  C_6
REMARK    4  A    between atoms: C_6  and  N_7
REMARK    5  A    between atoms: C_10  and  C_12
REMARK    6  A    between atoms: C_16  and  C_17
REMARK    7  A    between atoms: C_23  and  C_24
REMARK                            x       y       z     vdW  Elec       q    Type
REMARK                         _______ _______ _______ _____ _____    ______ ____
ROOT
ATOM      1  N   UNL     1       0.650  10.995  19.453  0.00  0.00    +0.000 N 
ATOM      2  C   UNL     1       0.150  10.800  20.734  0.00  0.00    +0.000 A 
ATOM      3  N   UNL     1      -0.624  11.730  21.423  0.00  0.00    +0.000 N 
ATOM      4  C   UNL     1      -1.074  11.450  22.710  0.00  0.00    +0.000 C 
ATOM      5  O   UNL     1      -0.848  10.434  23.360  0.00  0.00    +0.000 OA
ATOM      6  N   UNL     1       0.512   9.607  21.178  0.00  0.00    +0.000 NA
ATOM      7  C   UNL     1       1.231   9.000  20.184  0.00  0.00    +0.000 A 
ATOM      8  C   UNL     1       1.831   7.733  20.065  0.00  0.00    +0.000 A 
ATOM      9  C   UNL     1       2.456   7.428  18.841  0.00  0.00    +0.000 A 
ATOM     10  C   UNL     1       2.394   8.359  17.817  0.00  0.00    +0.000 A 
ATOM     11  N   UNL     1       1.911   9.604  17.924  0.00  0.00    +0.000 NA
ATOM     12  C   UNL     1       1.328   9.854  19.105  0.00  0.00    +0.000 A 
ATOM     13  H   UNL     1      -0.822  12.623  20.998  0.00  0.00    +0.000 HD
ENDROOT
BRANCH   9  14
ATOM     14  C   UNL     1       3.053   6.101  18.573  0.00  0.00    +0.000 C 
ATOM     15  O   UNL     1       3.715   5.987  17.544  0.00  0.00    +0.000 OA
ATOM     16  N   UNL     1       2.908   5.058  19.502  0.00  0.00    +0.000 N 
ATOM     17  C   UNL     1       3.781   3.892  19.377  0.00  0.00    +0.000 C 
ATOM     18  C   UNL     1       2.970   2.609  19.236  0.00  0.00    +0.000 C 
ATOM     19  C   UNL     1       1.966   2.461  20.378  0.00  0.00    +0.000 C 
ATOM     20  C   UNL     1       1.083   3.697  20.479  0.00  0.00    +0.000 C 
ATOM     21  C   UNL     1       1.914   4.969  20.581  0.00  0.00    +0.000 C 
ENDBRANCH   9  14
BRANCH   4  22
ATOM     22  C   UNL     1      -1.910  12.484  23.401  0.00  0.00    +0.000 A 
ATOM     23  C   UNL     1      -3.193  12.086  23.821  0.00  0.00    +0.000 A 
ATOM     24  C   UNL     1      -4.096  13.006  24.356  0.00  0.00    +0.000 A 
ATOM     25  C   UNL     1      -3.727  14.345  24.469  0.00  0.00    +0.000 A 
ATOM     26  C   UNL     1      -2.452  14.760  24.055  0.00  0.00    +0.000 A 
ATOM     27  C   UNL     1      -1.538  13.830  23.530  0.00  0.00    +0.000 A 
BRANCH  26  28
ATOM     28  C   UNL     1      -2.107  16.152  24.135  0.00  0.00    +0.000 C 
ATOM     29  N   UNL     1      -1.828  17.281  24.197  0.00  0.00    +0.000 NA
ENDBRANCH  26  28
ENDBRANCH   4  22
BRANCH   1  30
ATOM     30  C   UNL     1       0.517  12.146  18.568  0.00  0.00    +0.000 C 
BRANCH  30  31
ATOM     31  C   UNL     1       1.626  13.212  18.731  0.00  0.00    +0.000 C 
BRANCH  31  35
ATOM     32  C   UNL     1       1.397  15.339  21.821  0.00  0.00    +0.000 C 
ATOM     33  C   UNL     1       1.902  14.216  20.962  0.00  0.00    +0.000 C 
ATOM     34  O   UNL     1       2.716  13.382  21.337  0.00  0.00    +0.000 OA
ATOM     35  N   UNL     1       1.372  14.251  19.700  0.00  0.00    +0.000 N 
ATOM     36  H   UNL     1       0.509  14.770  19.579  0.00  0.00    +0.000 HD
ENDBRANCH  31  35
ENDBRANCH  30  31
ENDBRANCH   1  30
TORSDOF 6
ENDMDL
MODEL 9
REMARK VINA RESULT:      -8.6      2.150      3.043
REMARK  Name = 
REMARK  7 active torsions:
REMARK  status: ('A' for Active; 'I' for Inactive)
REMARK    1  A    between atoms: C_1  and  C_2
REMARK    2  A    between atoms: N_4  and  C_5
REMARK    3  A    between atoms: C_5  and  C_6
REMARK    4  A    between atoms: C_6  and  N_7
REMARK    5  A    between atoms: C_10  and  C_12
REMARK    6  A    between atoms: C_16  and  C_17
REMARK    7  A    between atoms: C_23  and  C_24
REMARK                            x       y       z     vdW  Elec       q    Type
REMARK                         _______ _______ _______ _____ _____    ______ ____
ROOT
ATOM      1  N   UNL     1       0.477  10.398  19.395  0.00  0.00    +0.000 N 
ATOM      2  C   UNL     1       0.053  10.421  20.717  0.00  0.00    +0.000 A 
ATOM      3  N   UNL     1      -0.785  11.394  21.254  0.00  0.00    +0.000 N 
ATOM      4  C   UNL     1      -1.150  11.341  22.597  0.00  0.00    +0.000 C 
ATOM      5  O   UNL     1      -0.791  10.504  23.420  0.00  0.00    +0.000 OA
ATOM      6  N   UNL     1       0.558   9.383  21.366  0.00  0.00    +0.000 NA
ATOM      7  C   UNL     1       1.295   8.658  20.470  0.00  0.00    +0.000 A 
ATOM      8  C   UNL     1       2.021   7.457  20.568  0.00  0.00    +0.000 A 
ATOM      9  C   UNL     1       2.624   6.970  19.392  0.00  0.00    +0.000 A 
ATOM     10  C   UNL     1       2.421   7.662  18.210  0.00  0.00    +0.000 A 
ATOM     11  N   UNL     1       1.814   8.852  18.098  0.00  0.00    +0.000 NA
ATOM     12  C   UNL     1       1.257   9.280  19.239  0.00  0.00    +0.000 A 
ATOM     13  H   UNL     1      -1.094  12.158  20.674  0.00  0.00    +0.000 HD
ENDROOT
BRANCH   9  14
ATOM     14  C   UNL     1       3.345   5.679  19.356  0.00  0.00    +0.000 C 
ATOM     15  O   UNL     1       4.544   5.720  19.090  0.00  0.00    +0.000 OA
ATOM     16  N   UNL     1       2.681   4.486  19.682  0.00  0.00    +0.000 N 
ATOM     17  C   UNL     1       3.486   3.300  19.971  0.00  0.00    +0.000 C 
ATOM     18  C   UNL     1       3.115   2.144  19.048  0.00  0.00    +0.000 C 
ATOM     19  C   UNL     1       1.616   1.853  19.099  0.00  0.00    +0.000 C 
ATOM     20  C   UNL     1       0.815   3.114  18.801  0.00  0.00    +0.000 C 
ATOM     21  C   UNL     1       1.227   4.264  19.710  0.00  0.00    +0.000 C 
ENDBRANCH   9  14
BRANCH   4  22
ATOM     22  C   UNL     1      -2.061  12.409  23.119  0.00  0.00    +0.000 A 
ATOM     23  C   UNL     1      -1.451  13.562  23.647  0.00  0.00    +0.000 A 
ATOM     24  C   UNL     1      -2.205  14.556  24.273  0.00  0.00    +0.000 A 
ATOM     25  C   UNL     1      -3.585  14.401  24.390  0.00  0.00    +0.000 A 
ATOM     26  C   UNL     1      -4.210  13.257  23.869  0.00  0.00    +0.000 A 
ATOM     27  C   UNL     1      -3.452  12.264  23.225  0.00  0.00    +0.000 A 
BRANCH  26  28
ATOM     28  C   UNL     1      -5.627  13.094  24.040  0.00  0.00    +0.000 C 
ATOM     29  N   UNL     1      -6.776  12.964  24.179  0.00  0.00    +0.000 NA
ENDBRANCH  26  28
ENDBRANCH   4  22
BRANCH   1  30
ATOM     30  C   UNL     1       0.187  11.327  18.309  0.00  0.00    +0.000 C 
BRANCH  30  31
ATOM     31  C   UNL     1       0.639  12.783  18.571  0.00  0.00    +0.000 C 
BRANCH  31  35
ATOM     32  C   UNL     1       4.019  14.379  18.171  0.00  0.00    +0.000 C 
ATOM     33  C   UNL     1       2.606  14.261  18.667  0.00  0.00    +0.000 C 
ATOM     34  O   UNL     1       2.047  15.113  19.344  0.00  0.00    +0.000 OA
ATOM     35  N   UNL     1       2.027  13.075  18.302  0.00  0.00    +0.000 N 
ATOM     36  H   UNL     1       2.439  12.586  17.514  0.00  0.00    +0.000 HD
ENDBRANCH  31  35
ENDBRANCH  30  31
ENDBRANCH   1  30
TORSDOF 6
ENDMDL
