MODEL 1
REMARK VINA RESULT:      -6.7      0.000      0.000
REMARK  Name = 
REMARK  12 active torsions:
REMARK  status: ('A' for Active; 'I' for Inactive)
REMARK    1  A    between atoms: C_2  and  C_3
REMARK    2  A    between atoms: N_5  and  C_6
REMARK    3  A    between atoms: N_5  and  C_16
REMARK    4  A    between atoms: C_8  and  O_9
REMARK    5  A    between atoms: O_9  and  C_10
REMARK    6  A    between atoms: C_12  and  O_13
REMARK    7  A    between atoms: O_13  and  C_14
REMARK    8  A    between atoms: C_16  and  C_17
REMARK    9  A    between atoms: C_16  and  C_25
REMARK   10  A    between atoms: N_19  and  C_20
REMARK   11  A    between atoms: C_28  and  O_29
REMARK   12  A    between atoms: O_29  and  C_30
REMARK                            x       y       z     vdW  Elec       q    Type
REMARK                         _______ _______ _______ _____ _____    ______ ____
ROOT
ATOM      1  C   UNL     1       0.328  11.624  20.550  0.00  0.00    +0.000 C 
ENDROOT
BRANCH   1   2
ATOM      2  C   UNL     1       0.826  10.215  20.174  0.00  0.00    +0.000 A 
ATOM      3  C   UNL     1       1.401   9.977  18.913  0.00  0.00    +0.000 A 
ATOM      4  C   UNL     1       1.957   8.727  18.608  0.00  0.00    +0.000 A 
ATOM      5  C   UNL     1       1.957   7.692  19.543  0.00  0.00    +0.000 A 
ATOM      6  C   UNL     1       1.335   7.888  20.770  0.00  0.00    +0.000 A 
ATOM      7  C   UNL     1       0.786   9.137  21.081  0.00  0.00    +0.000 A 
BRANCH   5   8
ATOM      8  O   UNL     1       2.559   6.523  19.155  0.00  0.00    +0.000 OA
ATOM      9  C   UNL     1       2.401   5.431  20.060  0.00  0.00    +0.000 C 
ENDBRANCH   5   8
ENDBRANCH   1   2
BRANCH   1  10
ATOM     10  C   UNL     1      -0.357  11.691  21.951  0.00  0.00    +0.000 C 
ATOM     11  O   UNL     1      -0.152  10.844  22.821  0.00  0.00    +0.000 OA
ATOM     12  N   UNL     1      -1.231  12.739  22.162  0.00  0.00    +0.000 N 
ATOM     13  H   UNL     1      -1.170  13.541  21.544  0.00  0.00    +0.000 HD
BRANCH  12  14
ATOM     14  C   UNL     1      -1.899  12.915  23.434  0.00  0.00    +0.000 C 
ATOM     15  C   UNL     1      -2.218  14.378  23.709  0.00  0.00    +0.000 C 
ATOM     16  C   UNL     1      -3.292  14.326  24.784  0.00  0.00    +0.000 C 
ATOM     17  C   UNL     1      -4.045  13.015  24.561  0.00  0.00    +0.000 C 
ATOM     18  C   UNL     1      -3.275  12.250  23.489  0.00  0.00    +0.000 C 
ENDBRANCH  12  14
ENDBRANCH   1  10
BRANCH   1  21
ATOM     19  C   UNL     1       0.133  13.466  18.802  0.00  0.00    +0.000 C 
ATOM     20  O   UNL     1      -0.307  13.911  17.745  0.00  0.00    +0.000 OA
ATOM     21  N   UNL     1      -0.407  12.357  19.477  0.00  0.00    +0.000 N 
BRANCH  21  22
ATOM     22  C   UNL     1      -1.594  11.746  18.922  0.00  0.00    +0.000 A 
ATOM     23  C   UNL     1      -1.514  10.827  17.868  0.00  0.00    +0.000 A 
ATOM     24  C   UNL     1      -2.670  10.379  17.221  0.00  0.00    +0.000 A 
ATOM     25  C   UNL     1      -3.922  10.722  17.722  0.00  0.00    +0.000 A 
ATOM     26  C   UNL     1      -4.029  11.571  18.824  0.00  0.00    +0.000 A 
ATOM     27  C   UNL     1      -2.870  12.116  19.390  0.00  0.00    +0.000 A 
BRANCH  24  28
ATOM     28  O   UNL     1      -2.463   9.608  16.108  0.00  0.00    +0.000 OA
ATOM     29  C   UNL     1      -3.013  10.137  14.902  0.00  0.00    +0.000 C 
ENDBRANCH  24  28
BRANCH  26  30
ATOM     30  O   UNL     1      -5.315  11.792  19.235  0.00  0.00    +0.000 OA
ATOM     31  C   UNL     1      -6.356  11.474  18.321  0.00  0.00    +0.000 C 
ENDBRANCH  26  30
ENDBRANCH  21  22
BRANCH  19  33
ATOM     32  C   UNL     1       2.361  14.585  19.690  0.00  0.00    +0.000 C 
ATOM     33  C   UNL     1       1.344  14.089  19.292  0.00  0.00    +0.000 C 
ENDBRANCH  19  33
ENDBRANCH   1  21
TORSDOF 9
ENDMDL
MODEL 2
REMARK VINA RESULT:      -6.7      2.155      6.769
REMARK  Name = 
REMARK  12 active torsions:
REMARK  status: ('A' for Active; 'I' for Inactive)
REMARK    1  A    between atoms: C_2  and  C_3
REMARK    2  A    between atoms: N_5  and  C_6
REMARK    3  A    between atoms: N_5  and  C_16
REMARK    4  A    between atoms: C_8  and  O_9
REMARK    5  A    between atoms: O_9  and  C_10
REMARK    6  A    between atoms: C_12  and  O_13
REMARK    7  A    between atoms: O_13  and  C_14
REMARK    8  A    between atoms: C_16  and  C_17
REMARK    9  A    between atoms: C_16  and  C_25
REMARK   10  A    between atoms: N_19  and  C_20
REMARK   11  A    between atoms: C_28  and  O_29
REMARK   12  A    between atoms: O_29  and  C_30
REMARK                            x       y       z     vdW  Elec       q    Type
REMARK                         _______ _______ _______ _____ _____    ______ ____
ROOT
ATOM      1  C   UNL     1      -0.384  11.432  20.421  0.00  0.00    +0.000 C 
ENDROOT
BRANCH   1   2
ATOM      2  C   UNL     1       0.420  12.721  20.169  0.00  0.00    +0.000 A 
ATOM      3  C   UNL     1       1.759  12.818  20.588  0.00  0.00    +0.000 A 
ATOM      4  C   UNL     1       2.528  13.945  20.263  0.00  0.00    +0.000 A 
ATOM      5  C   UNL     1       1.989  14.993  19.517  0.00  0.00    +0.000 A 
ATOM      6  C   UNL     1       0.649  14.944  19.151  0.00  0.00    +0.000 A 
ATOM      7  C   UNL     1      -0.119  13.818  19.467  0.00  0.00    +0.000 A 
BRANCH   5   8
ATOM      8  O   UNL     1       2.837  16.028  19.223  0.00  0.00    +0.000 OA
ATOM      9  C   UNL     1       2.682  16.587  17.920  0.00  0.00    +0.000 C 
ENDBRANCH   5   8
ENDBRANCH   1   2
BRANCH   1  10
ATOM     10  C   UNL     1      -1.653  11.301  19.522  0.00  0.00    +0.000 C 
ATOM     11  O   UNL     1      -2.665  11.976  19.716  0.00  0.00    +0.000 OA
ATOM     12  N   UNL     1      -1.599  10.365  18.507  0.00  0.00    +0.000 N 
ATOM     13  H   UNL     1      -0.686  10.033  18.217  0.00  0.00    +0.000 HD
BRANCH  12  14
ATOM     14  C   UNL     1      -2.707  10.181  17.596  0.00  0.00    +0.000 C 
ATOM     15  C   UNL     1      -3.307  11.509  17.156  0.00  0.00    +0.000 C 
ATOM     16  C   UNL     1      -4.085  11.164  15.896  0.00  0.00    +0.000 C 
ATOM     17  C   UNL     1      -3.361   9.974  15.269  0.00  0.00    +0.000 C 
ATOM     18  C   UNL     1      -2.297   9.536  16.271  0.00  0.00    +0.000 C 
ENDBRANCH  12  14
ENDBRANCH   1  10
BRANCH   1  21
ATOM     19  C   UNL     1       0.048  10.025  22.500  0.00  0.00    +0.000 C 
ATOM     20  O   UNL     1       0.101   9.887  23.720  0.00  0.00    +0.000 OA
ATOM     21  N   UNL     1      -0.615  11.083  21.854  0.00  0.00    +0.000 N 
BRANCH  21  22
ATOM     22  C   UNL     1      -1.333  12.029  22.681  0.00  0.00    +0.000 A 
ATOM     23  C   UNL     1      -2.629  11.758  23.138  0.00  0.00    +0.000 A 
ATOM     24  C   UNL     1      -3.380  12.746  23.783  0.00  0.00    +0.000 A 
ATOM     25  C   UNL     1      -2.788  13.961  24.116  0.00  0.00    +0.000 A 
ATOM     26  C   UNL     1      -1.469  14.224  23.745  0.00  0.00    +0.000 A 
ATOM     27  C   UNL     1      -0.763  13.279  22.990  0.00  0.00    +0.000 A 
BRANCH  24  28
ATOM     28  O   UNL     1      -4.684  12.420  24.044  0.00  0.00    +0.000 OA
ATOM     29  C   UNL     1      -5.632  13.438  23.725  0.00  0.00    +0.000 C 
ENDBRANCH  24  28
BRANCH  26  30
ATOM     30  O   UNL     1      -1.001  15.437  24.170  0.00  0.00    +0.000 OA
ATOM     31  C   UNL     1      -1.512  15.940  25.399  0.00  0.00    +0.000 C 
ENDBRANCH  26  30
ENDBRANCH  21  22
BRANCH  19  33
ATOM     32  C   UNL     1       1.462   8.307  21.068  0.00  0.00    +0.000 C 
ATOM     33  C   UNL     1       0.815   9.074  21.724  0.00  0.00    +0.000 C 
ENDBRANCH  19  33
ENDBRANCH   1  21
TORSDOF 9
ENDMDL
MODEL 3
REMARK VINA RESULT:      -6.6      1.873      5.591
REMARK  Name = 
REMARK  12 active torsions:
REMARK  status: ('A' for Active; 'I' for Inactive)
REMARK    1  A    between atoms: C_2  and  C_3
REMARK    2  A    between atoms: N_5  and  C_6
REMARK    3  A    between atoms: N_5  and  C_16
REMARK    4  A    between atoms: C_8  and  O_9
REMARK    5  A    between atoms: O_9  and  C_10
REMARK    6  A    between atoms: C_12  and  O_13
REMARK    7  A    between atoms: O_13  and  C_14
REMARK    8  A    between atoms: C_16  and  C_17
REMARK    9  A    between atoms: C_16  and  C_25
REMARK   10  A    between atoms: N_19  and  C_20
REMARK   11  A    between atoms: C_28  and  O_29
REMARK   12  A    between atoms: O_29  and  C_30
REMARK                            x       y       z     vdW  Elec       q    Type
REMARK                         _______ _______ _______ _____ _____    ______ ____
ROOT
ATOM      1  C   UNL     1      -0.138  11.094  19.954  0.00  0.00    +0.000 C 
ENDROOT
BRANCH   1   2
ATOM      2  C   UNL     1      -1.421  11.037  19.103  0.00  0.00    +0.000 A 
ATOM      3  C   UNL     1      -2.482  11.925  19.355  0.00  0.00    +0.000 A 
ATOM      4  C   UNL     1      -3.604  11.951  18.514  0.00  0.00    +0.000 A 
ATOM      5  C   UNL     1      -3.695  11.104  17.410  0.00  0.00    +0.000 A 
ATOM      6  C   UNL     1      -2.687  10.174  17.184  0.00  0.00    +0.000 A 
ATOM      7  C   UNL     1      -1.563  10.150  18.016  0.00  0.00    +0.000 A 
BRANCH   5   8
ATOM      8  O   UNL     1      -4.816  11.238  16.633  0.00  0.00    +0.000 OA
ATOM      9  C   UNL     1      -5.760  12.204  17.093  0.00  0.00    +0.000 C 
ENDBRANCH   5   8
ENDBRANCH   1   2
BRANCH   1  10
ATOM     10  C   UNL     1      -0.399  11.412  21.459  0.00  0.00    +0.000 C 
ATOM     11  O   UNL     1       0.170  10.800  22.365  0.00  0.00    +0.000 OA
ATOM     12  N   UNL     1      -1.325  12.400  21.732  0.00  0.00    +0.000 N 
ATOM     13  H   UNL     1      -1.563  13.046  20.987  0.00  0.00    +0.000 HD
BRANCH  12  14
ATOM     14  C   UNL     1      -1.623  12.795  23.091  0.00  0.00    +0.000 C 
ATOM     15  C   UNL     1      -1.134  14.205  23.392  0.00  0.00    +0.000 C 
ATOM     16  C   UNL     1      -1.922  14.614  24.626  0.00  0.00    +0.000 C 
ATOM     17  C   UNL     1      -3.246  13.857  24.548  0.00  0.00    +0.000 C 
ATOM     18  C   UNL     1      -3.122  12.885  23.378  0.00  0.00    +0.000 C 
ENDBRANCH  12  14
ENDBRANCH   1  10
BRANCH   1  21
ATOM     19  C   UNL     1       1.886  11.303  18.421  0.00  0.00    +0.000 C 
ATOM     20  O   UNL     1       2.640  11.963  17.710  0.00  0.00    +0.000 OA
ATOM     21  N   UNL     1       0.998  11.859  19.359  0.00  0.00    +0.000 N 
BRANCH  21  22
ATOM     22  C   UNL     1       1.025  13.294  19.539  0.00  0.00    +0.000 A 
ATOM     23  C   UNL     1       1.807  13.887  20.538  0.00  0.00    +0.000 A 
ATOM     24  C   UNL     1       1.691  15.252  20.821  0.00  0.00    +0.000 A 
ATOM     25  C   UNL     1       0.910  16.065  20.005  0.00  0.00    +0.000 A 
ATOM     26  C   UNL     1       0.186  15.511  18.948  0.00  0.00    +0.000 A 
ATOM     27  C   UNL     1       0.208  14.126  18.748  0.00  0.00    +0.000 A 
BRANCH  24  28
ATOM     28  O   UNL     1       2.384  15.689  21.918  0.00  0.00    +0.000 OA
ATOM     29  C   UNL     1       1.695  16.646  22.721  0.00  0.00    +0.000 C 
ENDBRANCH  24  28
BRANCH  26  30
ATOM     30  O   UNL     1      -0.505  16.428  18.205  0.00  0.00    +0.000 OA
ATOM     31  C   UNL     1       0.109  17.693  17.993  0.00  0.00    +0.000 C 
ENDBRANCH  26  30
ENDBRANCH  21  22
BRANCH  19  33
ATOM     32  C   UNL     1       1.847   8.701  17.943  0.00  0.00    +0.000 C 
ATOM     33  C   UNL     1       1.872   9.878  18.172  0.00  0.00    +0.000 C 
ENDBRANCH  19  33
ENDBRANCH   1  21
TORSDOF 9
ENDMDL
MODEL 4
REMARK VINA RESULT:      -6.6      2.412      6.280
REMARK  Name = 
REMARK  12 active torsions:
REMARK  status: ('A' for Active; 'I' for Inactive)
REMARK    1  A    between atoms: C_2  and  C_3
REMARK    2  A    between atoms: N_5  and  C_6
REMARK    3  A    between atoms: N_5  and  C_16
REMARK    4  A    between atoms: C_8  and  O_9
REMARK    5  A    between atoms: O_9  and  C_10
REMARK    6  A    between atoms: C_12  and  O_13
REMARK    7  A    between atoms: O_13  and  C_14
REMARK    8  A    between atoms: C_16  and  C_17
REMARK    9  A    between atoms: C_16  and  C_25
REMARK   10  A    between atoms: N_19  and  C_20
REMARK   11  A    between atoms: C_28  and  O_29
REMARK   12  A    between atoms: O_29  and  C_30
REMARK                            x       y       z     vdW  Elec       q    Type
REMARK                         _______ _______ _______ _____ _____    ______ ____
ROOT
ATOM      1  C   UNL     1      -1.208  12.012  20.443  0.00  0.00    +0.000 C 
ENDROOT
BRANCH   1   2
ATOM      2  C   UNL     1       0.010  12.827  19.969  0.00  0.00    +0.000 A 
ATOM      3  C   UNL     1       0.653  12.508  18.760  0.00  0.00    +0.000 A 
ATOM      4  C   UNL     1       1.690  13.315  18.269  0.00  0.00    +0.000 A 
ATOM      5  C   UNL     1       2.107  14.450  18.963  0.00  0.00    +0.000 A 
ATOM      6  C   UNL     1       1.528  14.744  20.192  0.00  0.00    +0.000 A 
ATOM      7  C   UNL     1       0.488  13.946  20.680  0.00  0.00    +0.000 A 
BRANCH   5   8
ATOM      8  O   UNL     1       3.102  15.188  18.377  0.00  0.00    +0.000 OA
ATOM      9  C   UNL     1       4.346  14.507  18.214  0.00  0.00    +0.000 C 
ENDBRANCH   5   8
ENDBRANCH   1   2
BRANCH   1  10
ATOM     10  C   UNL     1      -2.578  12.639  20.033  0.00  0.00    +0.000 C 
ATOM     11  O   UNL     1      -2.821  13.837  20.187  0.00  0.00    +0.000 OA
ATOM     12  N   UNL     1      -3.522  11.776  19.511  0.00  0.00    +0.000 N 
ATOM     13  H   UNL     1      -3.203  10.880  19.159  0.00  0.00    +0.000 HD
BRANCH  12  14
ATOM     14  C   UNL     1      -4.814  12.255  19.071  0.00  0.00    +0.000 C 
ATOM     15  C   UNL     1      -5.391  11.390  17.959  0.00  0.00    +0.000 C 
ATOM     16  C   UNL     1      -6.875  11.722  17.965  0.00  0.00    +0.000 C 
ATOM     17  C   UNL     1      -7.213  12.107  19.404  0.00  0.00    +0.000 C 
ATOM     18  C   UNL     1      -5.888  12.175  20.158  0.00  0.00    +0.000 C 
ENDBRANCH  12  14
ENDBRANCH   1  10
BRANCH   1  21
ATOM     19  C   UNL     1      -0.285  10.519  22.289  0.00  0.00    +0.000 C 
ATOM     20  O   UNL     1      -0.013  10.299  23.466  0.00  0.00    +0.000 OA
ATOM     21  N   UNL     1      -1.156  11.535  21.857  0.00  0.00    +0.000 N 
BRANCH  21  22
ATOM     22  C   UNL     1      -1.821  12.324  22.870  0.00  0.00    +0.000 A 
ATOM     23  C   UNL     1      -3.046  11.922  23.418  0.00  0.00    +0.000 A 
ATOM     24  C   UNL     1      -3.765  12.775  24.261  0.00  0.00    +0.000 A 
ATOM     25  C   UNL     1      -3.196  13.970  24.689  0.00  0.00    +0.000 A 
ATOM     26  C   UNL     1      -1.938  14.355  24.223  0.00  0.00    +0.000 A 
ATOM     27  C   UNL     1      -1.277  13.557  23.281  0.00  0.00    +0.000 A 
BRANCH  24  28
ATOM     28  O   UNL     1      -5.017  12.343  24.610  0.00  0.00    +0.000 OA
ATOM     29  C   UNL     1      -6.086  12.971  23.904  0.00  0.00    +0.000 C 
ENDBRANCH  24  28
BRANCH  26  30
ATOM     30  O   UNL     1      -1.482  15.530  24.755  0.00  0.00    +0.000 OA
ATOM     31  C   UNL     1      -2.356  16.235  25.628  0.00  0.00    +0.000 C 
ENDBRANCH  26  30
ENDBRANCH  21  22
BRANCH  19  33
ATOM     32  C   UNL     1       1.033   9.049  20.528  0.00  0.00    +0.000 C 
ATOM     33  C   UNL     1       0.437   9.727  21.317  0.00  0.00    +0.000 C 
ENDBRANCH  19  33
ENDBRANCH   1  21
TORSDOF 9
ENDMDL
MODEL 5
REMARK VINA RESULT:      -6.6      1.907      5.431
REMARK  Name = 
REMARK  12 active torsions:
REMARK  status: ('A' for Active; 'I' for Inactive)
REMARK    1  A    between atoms: C_2  and  C_3
REMARK    2  A    between atoms: N_5  and  C_6
REMARK    3  A    between atoms: N_5  and  C_16
REMARK    4  A    between atoms: C_8  and  O_9
REMARK    5  A    between atoms: O_9  and  C_10
REMARK    6  A    between atoms: C_12  and  O_13
REMARK    7  A    between atoms: O_13  and  C_14
REMARK    8  A    between atoms: C_16  and  C_17
REMARK    9  A    between atoms: C_16  and  C_25
REMARK   10  A    between atoms: N_19  and  C_20
REMARK   11  A    between atoms: C_28  and  O_29
REMARK   12  A    between atoms: O_29  and  C_30
REMARK                            x       y       z     vdW  Elec       q    Type
REMARK                         _______ _______ _______ _____ _____    ______ ____
ROOT
ATOM      1  C   UNL     1      -1.508  12.757  19.387  0.00  0.00    +0.000 C 
ENDROOT
BRANCH   1   2
ATOM      2  C   UNL     1      -0.031  13.185  19.468  0.00  0.00    +0.000 A 
ATOM      3  C   UNL     1       0.682  13.504  18.298  0.00  0.00    +0.000 A 
ATOM      4  C   UNL     1       1.991  14.001  18.375  0.00  0.00    +0.000 A 
ATOM      5  C   UNL     1       2.616  14.195  19.606  0.00  0.00    +0.000 A 
ATOM      6  C   UNL     1       1.951  13.824  20.769  0.00  0.00    +0.000 A 
ATOM      7  C   UNL     1       0.642  13.334  20.697  0.00  0.00    +0.000 A 
BRANCH   5   8
ATOM      8  O   UNL     1       3.881  14.720  19.569  0.00  0.00    +0.000 OA
ATOM      9  C   UNL     1       4.586  14.692  20.810  0.00  0.00    +0.000 C 
ENDBRANCH   5   8
ENDBRANCH   1   2
BRANCH   1  10
ATOM     10  C   UNL     1      -2.399  13.368  20.514  0.00  0.00    +0.000 C 
ATOM     11  O   UNL     1      -2.759  14.546  20.496  0.00  0.00    +0.000 OA
ATOM     12  N   UNL     1      -2.745  12.527  21.553  0.00  0.00    +0.000 N 
ATOM     13  H   UNL     1      -2.662  11.528  21.403  0.00  0.00    +0.000 HD
BRANCH  12  14
ATOM     14  C   UNL     1      -3.592  12.980  22.636  0.00  0.00    +0.000 C 
ATOM     15  C   UNL     1      -5.068  12.776  22.325  0.00  0.00    +0.000 C 
ATOM     16  C   UNL     1      -5.744  12.842  23.685  0.00  0.00    +0.000 C 
ATOM     17  C   UNL     1      -4.710  12.344  24.692  0.00  0.00    +0.000 C 
ATOM     18  C   UNL     1      -3.401  12.182  23.925  0.00  0.00    +0.000 C 
ENDBRANCH  12  14
ENDBRANCH   1  10
BRANCH   1  21
ATOM     19  C   UNL     1      -2.891  10.816  18.485  0.00  0.00    +0.000 C 
ATOM     20  O   UNL     1      -2.989   9.683  18.022  0.00  0.00    +0.000 OA
ATOM     21  N   UNL     1      -1.747  11.303  19.144  0.00  0.00    +0.000 N 
BRANCH  21  22
ATOM     22  C   UNL     1      -0.646  10.386  19.342  0.00  0.00    +0.000 A 
ATOM     23  C   UNL     1      -0.368   9.846  20.604  0.00  0.00    +0.000 A 
ATOM     24  C   UNL     1       0.798   9.106  20.823  0.00  0.00    +0.000 A 
ATOM     25  C   UNL     1       1.616   8.767  19.749  0.00  0.00    +0.000 A 
ATOM     26  C   UNL     1       1.315   9.223  18.465  0.00  0.00    +0.000 A 
ATOM     27  C   UNL     1       0.215  10.068  18.274  0.00  0.00    +0.000 A 
BRANCH  24  28
ATOM     28  O   UNL     1       1.044   8.763  22.125  0.00  0.00    +0.000 OA
ATOM     29  C   UNL     1       0.215   9.418  23.085  0.00  0.00    +0.000 C 
ENDBRANCH  24  28
BRANCH  26  30
ATOM     30  O   UNL     1       2.178   8.782  17.500  0.00  0.00    +0.000 OA
ATOM     31  C   UNL     1       3.049   7.711  17.842  0.00  0.00    +0.000 C 
ENDBRANCH  26  30
ENDBRANCH  21  22
BRANCH  19  33
ATOM     32  C   UNL     1      -4.944  12.416  18.012  0.00  0.00    +0.000 C 
ATOM     33  C   UNL     1      -4.004  11.702  18.225  0.00  0.00    +0.000 C 
ENDBRANCH  19  33
ENDBRANCH   1  21
TORSDOF 9
ENDMDL
MODEL 6
REMARK VINA RESULT:      -6.6      2.075      5.367
REMARK  Name = 
REMARK  12 active torsions:
REMARK  status: ('A' for Active; 'I' for Inactive)
REMARK    1  A    between atoms: C_2  and  C_3
REMARK    2  A    between atoms: N_5  and  C_6
REMARK    3  A    between atoms: N_5  and  C_16
REMARK    4  A    between atoms: C_8  and  O_9
REMARK    5  A    between atoms: O_9  and  C_10
REMARK    6  A    between atoms: C_12  and  O_13
REMARK    7  A    between atoms: O_13  and  C_14
REMARK    8  A    between atoms: C_16  and  C_17
REMARK    9  A    between atoms: C_16  and  C_25
REMARK   10  A    between atoms: N_19  and  C_20
REMARK   11  A    between atoms: C_28  and  O_29
REMARK   12  A    between atoms: O_29  and  C_30
REMARK                            x       y       z     vdW  Elec       q    Type
REMARK                         _______ _______ _______ _____ _____    ______ ____
ROOT
ATOM      1  C   UNL     1      -0.305  10.968  19.591  0.00  0.00    +0.000 C 
ENDROOT
BRANCH   1   2
ATOM      2  C   UNL     1      -1.370  10.908  18.480  0.00  0.00    +0.000 A 
ATOM      3  C   UNL     1      -1.270   9.958  17.448  0.00  0.00    +0.000 A 
ATOM      4  C   UNL     1      -2.294   9.826  16.499  0.00  0.00    +0.000 A 
ATOM      5  C   UNL     1      -3.434  10.627  16.555  0.00  0.00    +0.000 A 
ATOM      6  C   UNL     1      -3.520  11.616  17.528  0.00  0.00    +0.000 A 
ATOM      7  C   UNL     1      -2.504  11.745  18.481  0.00  0.00    +0.000 A 
BRANCH   5   8
ATOM      8  O   UNL     1      -4.390  10.390  15.601  0.00  0.00    +0.000 OA
ATOM      9  C   UNL     1      -3.888  10.154  14.287  0.00  0.00    +0.000 C 
ENDBRANCH   5   8
ENDBRANCH   1   2
BRANCH   1  10
ATOM     10  C   UNL     1      -0.902  11.143  21.022  0.00  0.00    +0.000 C 
ATOM     11  O   UNL     1      -0.514  10.471  21.979  0.00  0.00    +0.000 OA
ATOM     12  N   UNL     1      -1.913  12.073  21.161  0.00  0.00    +0.000 N 
ATOM     13  H   UNL     1      -2.015  12.775  20.436  0.00  0.00    +0.000 HD
BRANCH  12  14
ATOM     14  C   UNL     1      -2.517  12.338  22.449  0.00  0.00    +0.000 C 
ATOM     15  C   UNL     1      -1.871  13.526  23.146  0.00  0.00    +0.000 C 
ATOM     16  C   UNL     1      -2.894  13.942  24.191  0.00  0.00    +0.000 C 
ATOM     17  C   UNL     1      -4.257  13.557  23.621  0.00  0.00    +0.000 C 
ATOM     18  C   UNL     1      -3.985  12.757  22.350  0.00  0.00    +0.000 C 
ENDBRANCH  12  14
ENDBRANCH   1  10
BRANCH   1  21
ATOM     19  C   UNL     1       1.952  11.439  18.506  0.00  0.00    +0.000 C 
ATOM     20  O   UNL     1       2.782  12.209  18.029  0.00  0.00    +0.000 OA
ATOM     21  N   UNL     1       0.872  11.844  19.311  0.00  0.00    +0.000 N 
BRANCH  21  22
ATOM     22  C   UNL     1       0.776  13.247  19.648  0.00  0.00    +0.000 A 
ATOM     23  C   UNL     1       1.264  13.737  20.866  0.00  0.00    +0.000 A 
ATOM     24  C   UNL     1       1.008  15.054  21.260  0.00  0.00    +0.000 A 
ATOM     25  C   UNL     1       0.400  15.938  20.373  0.00  0.00    +0.000 A 
ATOM     26  C   UNL     1      -0.022  15.494  19.118  0.00  0.00    +0.000 A 
ATOM     27  C   UNL     1       0.125  14.144  18.779  0.00  0.00    +0.000 A 
BRANCH  24  28
ATOM     28  O   UNL     1       1.396  15.377  22.533  0.00  0.00    +0.000 OA
ATOM     29  C   UNL     1       0.655  16.438  23.135  0.00  0.00    +0.000 C 
ENDBRANCH  24  28
BRANCH  26  30
ATOM     30  O   UNL     1      -0.566  16.474  18.335  0.00  0.00    +0.000 OA
ATOM     31  C   UNL     1      -1.289  17.508  18.990  0.00  0.00    +0.000 C 
ENDBRANCH  26  30
ENDBRANCH  21  22
BRANCH  19  33
ATOM     32  C   UNL     1       2.157   8.899  17.793  0.00  0.00    +0.000 C 
ATOM     33  C   UNL     1       2.073  10.054  18.105  0.00  0.00    +0.000 C 
ENDBRANCH  19  33
ENDBRANCH   1  21
TORSDOF 9
ENDMDL
MODEL 7
REMARK VINA RESULT:      -6.5      1.873      5.568
REMARK  Name = 
REMARK  12 active torsions:
REMARK  status: ('A' for Active; 'I' for Inactive)
REMARK    1  A    between atoms: C_2  and  C_3
REMARK    2  A    between atoms: N_5  and  C_6
REMARK    3  A    between atoms: N_5  and  C_16
REMARK    4  A    between atoms: C_8  and  O_9
REMARK    5  A    between atoms: O_9  and  C_10
REMARK    6  A    between atoms: C_12  and  O_13
REMARK    7  A    between atoms: O_13  and  C_14
REMARK    8  A    between atoms: C_16  and  C_17
REMARK    9  A    between atoms: C_16  and  C_25
REMARK   10  A    between atoms: N_19  and  C_20
REMARK   11  A    between atoms: C_28  and  O_29
REMARK   12  A    between atoms: O_29  and  C_30
REMARK                            x       y       z     vdW  Elec       q    Type
REMARK                         _______ _______ _______ _____ _____    ______ ____
ROOT
ATOM      1  C   UNL     1      -0.114  11.078  19.999  0.00  0.00    +0.000 C 
ENDROOT
BRANCH   1   2
ATOM      2  C   UNL     1      -1.380  11.035  19.121  0.00  0.00    +0.000 A 
ATOM      3  C   UNL     1      -2.418  11.962  19.323  0.00  0.00    +0.000 A 
ATOM      4  C   UNL     1      -3.519  11.999  18.456  0.00  0.00    +0.000 A 
ATOM      5  C   UNL     1      -3.613  11.123  17.375  0.00  0.00    +0.000 A 
ATOM      6  C   UNL     1      -2.629  10.157  17.199  0.00  0.00    +0.000 A 
ATOM      7  C   UNL     1      -1.525  10.122  18.057  0.00  0.00    +0.000 A 
BRANCH   5   8
ATOM      8  O   UNL     1      -4.712  11.268  16.569  0.00  0.00    +0.000 OA
ATOM      9  C   UNL     1      -5.738  12.111  17.091  0.00  0.00    +0.000 C 
ENDBRANCH   5   8
ENDBRANCH   1   2
BRANCH   1  10
ATOM     10  C   UNL     1      -0.407  11.365  21.505  0.00  0.00    +0.000 C 
ATOM     11  O   UNL     1       0.140  10.732  22.410  0.00  0.00    +0.000 OA
ATOM     12  N   UNL     1      -1.335  12.350  21.778  0.00  0.00    +0.000 N 
ATOM     13  H   UNL     1      -1.555  13.013  21.042  0.00  0.00    +0.000 HD
BRANCH  12  14
ATOM     14  C   UNL     1      -1.661  12.719  23.139  0.00  0.00    +0.000 C 
ATOM     15  C   UNL     1      -1.348  14.181  23.421  0.00  0.00    +0.000 C 
ATOM     16  C   UNL     1      -2.164  14.500  24.664  0.00  0.00    +0.000 C 
ATOM     17  C   UNL     1      -3.384  13.582  24.611  0.00  0.00    +0.000 C 
ATOM     18  C   UNL     1      -3.156  12.623  23.448  0.00  0.00    +0.000 C 
ENDBRANCH  12  14
ENDBRANCH   1  10
BRANCH   1  21
ATOM     19  C   UNL     1       1.910  11.338  18.475  0.00  0.00    +0.000 C 
ATOM     20  O   UNL     1       2.672  12.024  17.798  0.00  0.00    +0.000 OA
ATOM     21  N   UNL     1       1.032  11.857  19.443  0.00  0.00    +0.000 N 
BRANCH  21  22
ATOM     22  C   UNL     1       1.081  13.279  19.700  0.00  0.00    +0.000 A 
ATOM     23  C   UNL     1       0.300  14.178  18.963  0.00  0.00    +0.000 A 
ATOM     24  C   UNL     1       0.484  15.558  19.095  0.00  0.00    +0.000 A 
ATOM     25  C   UNL     1       1.337  16.054  20.076  0.00  0.00    +0.000 A 
ATOM     26  C   UNL     1       2.065  15.178  20.882  0.00  0.00    +0.000 A 
ATOM     27  C   UNL     1       1.971  13.798  20.661  0.00  0.00    +0.000 A 
BRANCH  24  28
ATOM     28  O   UNL     1      -0.221  16.335  18.214  0.00  0.00    +0.000 OA
ATOM     29  C   UNL     1      -1.117  17.266  18.820  0.00  0.00    +0.000 C 
ENDBRANCH  24  28
BRANCH  26  30
ATOM     30  O   UNL     1       2.832  15.798  21.829  0.00  0.00    +0.000 OA
ATOM     31  C   UNL     1       2.212  16.810  22.612  0.00  0.00    +0.000 C 
ENDBRANCH  26  30
ENDBRANCH  21  22
BRANCH  19  33
ATOM     32  C   UNL     1       1.828   8.757  17.901  0.00  0.00    +0.000 C 
ATOM     33  C   UNL     1       1.874   9.929  18.149  0.00  0.00    +0.000 C 
ENDBRANCH  19  33
ENDBRANCH   1  21
TORSDOF 9
ENDMDL
MODEL 8
REMARK VINA RESULT:      -6.5      2.001      6.560
REMARK  Name = 
REMARK  12 active torsions:
REMARK  status: ('A' for Active; 'I' for Inactive)
REMARK    1  A    between atoms: C_2  and  C_3
REMARK    2  A    between atoms: N_5  and  C_6
REMARK    3  A    between atoms: N_5  and  C_16
REMARK    4  A    between atoms: C_8  and  O_9
REMARK    5  A    between atoms: O_9  and  C_10
REMARK    6  A    between atoms: C_12  and  O_13
REMARK    7  A    between atoms: O_13  and  C_14
REMARK    8  A    between atoms: C_16  and  C_17
REMARK    9  A    between atoms: C_16  and  C_25
REMARK   10  A    between atoms: N_19  and  C_20
REMARK   11  A    between atoms: C_28  and  O_29
REMARK   12  A    between atoms: O_29  and  C_30
REMARK                            x       y       z     vdW  Elec       q    Type
REMARK                         _______ _______ _______ _____ _____    ______ ____
ROOT
ATOM      1  C   UNL     1       0.118  11.472  20.168  0.00  0.00    +0.000 C 
ENDROOT
BRANCH   1   2
ATOM      2  C   UNL     1       0.611  12.897  19.853  0.00  0.00    +0.000 A 
ATOM      3  C   UNL     1       1.931  13.277  20.159  0.00  0.00    +0.000 A 
ATOM      4  C   UNL     1       2.417  14.534  19.773  0.00  0.00    +0.000 A 
ATOM      5  C   UNL     1       1.612  15.435  19.078  0.00  0.00    +0.000 A 
ATOM      6  C   UNL     1       0.286  15.103  18.824  0.00  0.00    +0.000 A 
ATOM      7  C   UNL     1      -0.201  13.846  19.201  0.00  0.00    +0.000 A 
BRANCH   5   8
ATOM      8  O   UNL     1       2.198  16.620  18.716  0.00  0.00    +0.000 OA
ATOM      9  C   UNL     1       3.613  16.673  18.889  0.00  0.00    +0.000 C 
ENDBRANCH   5   8
ENDBRANCH   1   2
BRANCH   1  10
ATOM     10  C   UNL     1      -0.754  10.847  19.034  0.00  0.00    +0.000 C 
ATOM     11  O   UNL     1      -0.319   9.974  18.280  0.00  0.00    +0.000 OA
ATOM     12  N   UNL     1      -2.036  11.340  18.896  0.00  0.00    +0.000 N 
ATOM     13  H   UNL     1      -2.437  11.845  19.679  0.00  0.00    +0.000 HD
BRANCH  12  14
ATOM     14  C   UNL     1      -2.940  10.812  17.898  0.00  0.00    +0.000 C 
ATOM     15  C   UNL     1      -4.291  11.512  17.928  0.00  0.00    +0.000 C 
ATOM     16  C   UNL     1      -4.903  11.195  16.573  0.00  0.00    +0.000 C 
ATOM     17  C   UNL     1      -3.728  11.022  15.613  0.00  0.00    +0.000 C 
ATOM     18  C   UNL     1      -2.463  11.054  16.465  0.00  0.00    +0.000 C 
ENDBRANCH  12  14
ENDBRANCH   1  10
BRANCH   1  21
ATOM     19  C   UNL     1      -0.030  10.208  22.375  0.00  0.00    +0.000 C 
ATOM     20  O   UNL     1      -0.237  10.167  23.585  0.00  0.00    +0.000 OA
ATOM     21  N   UNL     1      -0.432  11.266  21.541  0.00  0.00    +0.000 N 
BRANCH  21  22
ATOM     22  C   UNL     1      -1.193  12.340  22.140  0.00  0.00    +0.000 A 
ATOM     23  C   UNL     1      -0.566  13.353  22.878  0.00  0.00    +0.000 A 
ATOM     24  C   UNL     1      -1.321  14.283  23.599  0.00  0.00    +0.000 A 
ATOM     25  C   UNL     1      -2.706  14.307  23.464  0.00  0.00    +0.000 A 
ATOM     26  C   UNL     1      -3.350  13.360  22.667  0.00  0.00    +0.000 A 
ATOM     27  C   UNL     1      -2.598  12.354  22.047  0.00  0.00    +0.000 A 
BRANCH  24  28
ATOM     28  O   UNL     1      -0.605  15.126  24.407  0.00  0.00    +0.000 OA
ATOM     29  C   UNL     1      -0.375  16.425  23.863  0.00  0.00    +0.000 C 
ENDBRANCH  24  28
BRANCH  26  30
ATOM     30  O   UNL     1      -4.706  13.524  22.591  0.00  0.00    +0.000 OA
ATOM     31  C   UNL     1      -5.463  13.253  23.765  0.00  0.00    +0.000 C 
ENDBRANCH  26  30
ENDBRANCH  21  22
BRANCH  19  33
ATOM     32  C   UNL     1       1.432   8.223  21.413  0.00  0.00    +0.000 C 
ATOM     33  C   UNL     1       0.769   9.129  21.835  0.00  0.00    +0.000 C 
ENDBRANCH  19  33
ENDBRANCH   1  21
TORSDOF 9
ENDMDL
MODEL 9
REMARK VINA RESULT:      -6.5      2.047      5.378
REMARK  Name = 
REMARK  12 active torsions:
REMARK  status: ('A' for Active; 'I' for Inactive)
REMARK    1  A    between atoms: C_2  and  C_3
REMARK    2  A    between atoms: N_5  and  C_6
REMARK    3  A    between atoms: N_5  and  C_16
REMARK    4  A    between atoms: C_8  and  O_9
REMARK    5  A    between atoms: O_9  and  C_10
REMARK    6  A    between atoms: C_12  and  O_13
REMARK    7  A    between atoms: O_13  and  C_14
REMARK    8  A    between atoms: C_16  and  C_17
REMARK    9  A    between atoms: C_16  and  C_25
REMARK   10  A    between atoms: N_19  and  C_20
REMARK   11  A    between atoms: C_28  and  O_29
REMARK   12  A    between atoms: O_29  and  C_30
REMARK                            x       y       z     vdW  Elec       q    Type
REMARK                         _______ _______ _______ _____ _____    ______ ____
ROOT
ATOM      1  C   UNL     1      -0.333  10.943  19.664  0.00  0.00    +0.000 C 
ENDROOT
BRANCH   1   2
ATOM      2  C   UNL     1      -1.398  10.938  18.551  0.00  0.00    +0.000 A 
ATOM      3  C   UNL     1      -1.268  10.079  17.445  0.00  0.00    +0.000 A 
ATOM      4  C   UNL     1      -2.289   9.989  16.488  0.00  0.00    +0.000 A 
ATOM      5  C   UNL     1      -3.455  10.744  16.608  0.00  0.00    +0.000 A 
ATOM      6  C   UNL     1      -3.573  11.647  17.659  0.00  0.00    +0.000 A 
ATOM      7  C   UNL     1      -2.560  11.733  18.620  0.00  0.00    +0.000 A 
BRANCH   5   8
ATOM      8  O   UNL     1      -4.404  10.553  15.638  0.00  0.00    +0.000 OA
ATOM      9  C   UNL     1      -3.910  10.052  14.397  0.00  0.00    +0.000 C 
ENDBRANCH   5   8
ENDBRANCH   1   2
BRANCH   1  10
ATOM     10  C   UNL     1      -0.929  11.071  21.100  0.00  0.00    +0.000 C 
ATOM     11  O   UNL     1      -0.625  10.293  22.007  0.00  0.00    +0.000 OA
ATOM     12  N   UNL     1      -1.842  12.087  21.303  0.00  0.00    +0.000 N 
ATOM     13  H   UNL     1      -1.863  12.847  20.633  0.00  0.00    +0.000 HD
BRANCH  12  14
ATOM     14  C   UNL     1      -2.435  12.315  22.604  0.00  0.00    +0.000 C 
ATOM     15  C   UNL     1      -1.848  13.541  23.288  0.00  0.00    +0.000 C 
ATOM     16  C   UNL     1      -2.873  13.895  24.354  0.00  0.00    +0.000 C 
ATOM     17  C   UNL     1      -4.221  13.425  23.812  0.00  0.00    +0.000 C 
ATOM     18  C   UNL     1      -3.927  12.642  22.536  0.00  0.00    +0.000 C 
ENDBRANCH  12  14
ENDBRANCH   1  10
BRANCH   1  21
ATOM     19  C   UNL     1       1.929  11.429  18.599  0.00  0.00    +0.000 C 
ATOM     20  O   UNL     1       2.769  12.206  18.151  0.00  0.00    +0.000 OA
ATOM     21  N   UNL     1       0.854  11.815  19.418  0.00  0.00    +0.000 N 
BRANCH  21  22
ATOM     22  C   UNL     1       0.774  13.205  19.809  0.00  0.00    +0.000 A 
ATOM     23  C   UNL     1       0.137  14.152  18.997  0.00  0.00    +0.000 A 
ATOM     24  C   UNL     1       0.218  15.517  19.293  0.00  0.00    +0.000 A 
ATOM     25  C   UNL     1       0.801  15.934  20.486  0.00  0.00    +0.000 A 
ATOM     26  C   UNL     1       1.369  15.001  21.354  0.00  0.00    +0.000 A 
ATOM     27  C   UNL     1       1.396  13.649  20.992  0.00  0.00    +0.000 A 
BRANCH  24  28
ATOM     28  O   UNL     1      -0.306  16.359  18.348  0.00  0.00    +0.000 OA
ATOM     29  C   UNL     1      -1.125  17.406  18.867  0.00  0.00    +0.000 C 
ENDBRANCH  24  28
BRANCH  26  30
ATOM     30  O   UNL     1       1.870  15.543  22.506  0.00  0.00    +0.000 OA
ATOM     31  C   UNL     1       1.709  16.944  22.692  0.00  0.00    +0.000 C 
ENDBRANCH  26  30
ENDBRANCH  21  22
BRANCH  19  33
ATOM     32  C   UNL     1       2.132   8.917  17.793  0.00  0.00    +0.000 C 
ATOM     33  C   UNL     1       2.035  10.059  18.145  0.00  0.00    +0.000 C 
ENDBRANCH  19  33
ENDBRANCH   1  21
TORSDOF 9
ENDMDL
