MODEL 1
REMARK VINA RESULT:      -7.0      0.000      0.000
REMARK  Name = 
REMARK  5 active torsions:
REMARK  status: ('A' for Active; 'I' for Inactive)
REMARK    1  A    between atoms: C_1  and  C_2
REMARK    2  A    between atoms: C_2  and  O_3
REMARK    3  A    between atoms: C_2  and  C_4
REMARK    4  A    between atoms: C_2  and  C_16
REMARK    5  A    between atoms: C_6  and  C_7
REMARK                            x       y       z     vdW  Elec       q    Type
REMARK                         _______ _______ _______ _____ _____    ______ ____
ROOT
ATOM      1  C   UNL     1       5.937   4.797  17.644  0.00  0.00    +0.000 A 
ATOM      2  N   UNL     1       4.620   4.723  17.658  0.00  0.00    +0.000 NA
ATOM      3  C   UNL     1       4.371   4.127  18.881  0.00  0.00    +0.000 A 
ATOM      4  N   UNL     1       5.483   3.793  19.556  0.00  0.00    +0.000 NA
ATOM      5  O   UNL     1       6.514   4.245  18.751  0.00  0.00    +0.000 OA
ENDROOT
BRANCH   3   6
ATOM      6  C   UNL     1       3.029   3.780  19.317  0.00  0.00    +0.000 A 
ATOM      7  C   UNL     1       2.657   2.426  19.267  0.00  0.00    +0.000 A 
ATOM      8  C   UNL     1       1.405   2.053  19.725  0.00  0.00    +0.000 A 
ATOM      9  N   UNL     1       0.504   2.927  20.216  0.00  0.00    +0.000 NA
ATOM     10  C   UNL     1       0.873   4.230  20.241  0.00  0.00    +0.000 A 
ATOM     11  C   UNL     1       2.103   4.706  19.812  0.00  0.00    +0.000 A 
ATOM     12 BR   UNL     1       2.386   6.581  19.881  0.00  0.00    +0.000 Br
ENDBRANCH   3   6
BRANCH   1  14
ATOM     13  C   UNL     1       7.317   6.709  16.900  0.00  0.00    +0.000 C 
ATOM     14  C   UNL     1       6.862   5.282  16.561  0.00  0.00    +0.000 C 
BRANCH  14  15
ATOM     15  C   UNL     1       6.265   5.250  15.162  0.00  0.00    +0.000 C 
ATOM     16  C   UNL     1       7.115   4.882  13.967  0.00  0.00    +0.000 C 
ATOM     17  C   UNL     1       5.998   3.971  14.395  0.00  0.00    +0.000 C 
ENDBRANCH  14  15
BRANCH  14  18
ATOM     18  O   UNL     1       8.037   4.454  16.599  0.00  0.00    +0.000 OA
ATOM     19  H   UNL     1       8.695   4.929  17.139  0.00  0.00    +0.000 HD
ENDBRANCH  14  18
ENDBRANCH   1  14
TORSDOF 4
ENDMDL
MODEL 2
REMARK VINA RESULT:      -6.8      1.364      1.745
REMARK  Name = 
REMARK  5 active torsions:
REMARK  status: ('A' for Active; 'I' for Inactive)
REMARK    1  A    between atoms: C_1  and  C_2
REMARK    2  A    between atoms: C_2  and  O_3
REMARK    3  A    between atoms: C_2  and  C_4
REMARK    4  A    between atoms: C_2  and  C_16
REMARK    5  A    between atoms: C_6  and  C_7
REMARK                            x       y       z     vdW  Elec       q    Type
REMARK                         _______ _______ _______ _____ _____    ______ ____
ROOT
ATOM      1  C   UNL     1       6.038   4.969  17.695  0.00  0.00    +0.000 A 
ATOM      2  N   UNL     1       4.723   4.904  17.761  0.00  0.00    +0.000 NA
ATOM      3  C   UNL     1       4.517   4.353  19.013  0.00  0.00    +0.000 A 
ATOM      4  N   UNL     1       5.651   4.036  19.657  0.00  0.00    +0.000 NA
ATOM      5  O   UNL     1       6.654   4.453  18.798  0.00  0.00    +0.000 OA
ENDROOT
BRANCH   3   6
ATOM      6  C   UNL     1       3.190   4.030  19.511  0.00  0.00    +0.000 A 
ATOM      7  C   UNL     1       2.509   5.018  20.240  0.00  0.00    +0.000 A 
ATOM      8  C   UNL     1       1.223   4.763  20.683  0.00  0.00    +0.000 A 
ATOM      9  N   UNL     1       0.578   3.601  20.459  0.00  0.00    +0.000 NA
ATOM     10  C   UNL     1       1.256   2.652  19.769  0.00  0.00    +0.000 A 
ATOM     11  C   UNL     1       2.544   2.810  19.279  0.00  0.00    +0.000 A 
ATOM     12 BR   UNL     1       3.327   1.327  18.390  0.00  0.00    +0.000 Br
ENDBRANCH   3   6
BRANCH   1  14
ATOM     13  C   UNL     1       7.450   6.821  16.863  0.00  0.00    +0.000 C 
ATOM     14  C   UNL     1       6.925   5.410  16.562  0.00  0.00    +0.000 C 
BRANCH  14  15
ATOM     15  C   UNL     1       6.257   5.389  15.195  0.00  0.00    +0.000 C 
ATOM     16  C   UNL     1       6.969   4.806  13.995  0.00  0.00    +0.000 C 
ATOM     17  C   UNL     1       5.740   4.127  14.536  0.00  0.00    +0.000 C 
ENDBRANCH  14  15
BRANCH  14  18
ATOM     18  O   UNL     1       8.068   4.537  16.549  0.00  0.00    +0.000 OA
ATOM     19  H   UNL     1       8.434   4.546  17.452  0.00  0.00    +0.000 HD
ENDBRANCH  14  18
ENDBRANCH   1  14
TORSDOF 4
ENDMDL
MODEL 3
REMARK VINA RESULT:      -6.8      1.598      2.048
REMARK  Name = 
REMARK  5 active torsions:
REMARK  status: ('A' for Active; 'I' for Inactive)
REMARK    1  A    between atoms: C_1  and  C_2
REMARK    2  A    between atoms: C_2  and  O_3
REMARK    3  A    between atoms: C_2  and  C_4
REMARK    4  A    between atoms: C_2  and  C_16
REMARK    5  A    between atoms: C_6  and  C_7
REMARK                            x       y       z     vdW  Elec       q    Type
REMARK                         _______ _______ _______ _____ _____    ______ ____
ROOT
ATOM      1  C   UNL     1       5.802   5.126  17.342  0.00  0.00    +0.000 A 
ATOM      2  N   UNL     1       4.528   4.961  17.641  0.00  0.00    +0.000 NA
ATOM      3  C   UNL     1       4.593   4.356  18.883  0.00  0.00    +0.000 A 
ATOM      4  N   UNL     1       5.845   4.104  19.296  0.00  0.00    +0.000 NA
ATOM      5  O   UNL     1       6.643   4.623  18.291  0.00  0.00    +0.000 OA
ENDROOT
BRANCH   3   6
ATOM      6  C   UNL     1       3.405   3.918  19.597  0.00  0.00    +0.000 A 
ATOM      7  C   UNL     1       2.759   4.853  20.423  0.00  0.00    +0.000 A 
ATOM      8  C   UNL     1       1.595   4.486  21.075  0.00  0.00    +0.000 A 
ATOM      9  N   UNL     1       1.041   3.262  20.971  0.00  0.00    +0.000 NA
ATOM     10  C   UNL     1       1.686   2.367  20.184  0.00  0.00    +0.000 A 
ATOM     11  C   UNL     1       2.853   2.637  19.485  0.00  0.00    +0.000 A 
ATOM     12 BR   UNL     1       3.622   1.216  18.489  0.00  0.00    +0.000 Br
ENDBRANCH   3   6
BRANCH   1  14
ATOM     13  C   UNL     1       5.406   6.544  15.354  0.00  0.00    +0.000 C 
ATOM     14  C   UNL     1       6.433   5.669  16.088  0.00  0.00    +0.000 C 
BRANCH  14  15
ATOM     15  C   UNL     1       6.974   4.606  15.144  0.00  0.00    +0.000 C 
ATOM     16  C   UNL     1       6.072   3.943  14.128  0.00  0.00    +0.000 C 
ATOM     17  C   UNL     1       7.190   4.834  13.663  0.00  0.00    +0.000 C 
ENDBRANCH  14  15
BRANCH  14  18
ATOM     18  O   UNL     1       7.504   6.540  16.492  0.00  0.00    +0.000 OA
ATOM     19  H   UNL     1       7.664   7.148  15.746  0.00  0.00    +0.000 HD
ENDBRANCH  14  18
ENDBRANCH   1  14
TORSDOF 4
ENDMDL
MODEL 4
REMARK VINA RESULT:      -6.7      0.904      1.113
REMARK  Name = 
REMARK  5 active torsions:
REMARK  status: ('A' for Active; 'I' for Inactive)
REMARK    1  A    between atoms: C_1  and  C_2
REMARK    2  A    between atoms: C_2  and  O_3
REMARK    3  A    between atoms: C_2  and  C_4
REMARK    4  A    between atoms: C_2  and  C_16
REMARK    5  A    between atoms: C_6  and  C_7
REMARK                            x       y       z     vdW  Elec       q    Type
REMARK                         _______ _______ _______ _____ _____    ______ ____
ROOT
ATOM      1  C   UNL     1       5.712   4.943  17.254  0.00  0.00    +0.000 A 
ATOM      2  N   UNL     1       4.444   4.843  17.601  0.00  0.00    +0.000 NA
ATOM      3  C   UNL     1       4.527   4.297  18.869  0.00  0.00    +0.000 A 
ATOM      4  N   UNL     1       5.782   4.016  19.255  0.00  0.00    +0.000 NA
ATOM      5  O   UNL     1       6.565   4.453  18.200  0.00  0.00    +0.000 OA
ENDROOT
BRANCH   3   6
ATOM      6  C   UNL     1       3.348   3.941  19.641  0.00  0.00    +0.000 A 
ATOM      7  C   UNL     1       3.190   2.594  20.007  0.00  0.00    +0.000 A 
ATOM      8  C   UNL     1       2.107   2.230  20.787  0.00  0.00    +0.000 A 
ATOM      9  N   UNL     1       1.175   3.104  21.217  0.00  0.00    +0.000 NA
ATOM     10  C   UNL     1       1.333   4.396  20.841  0.00  0.00    +0.000 A 
ATOM     11  C   UNL     1       2.384   4.863  20.066  0.00  0.00    +0.000 A 
ATOM     12 BR   UNL     1       2.377   6.704  19.606  0.00  0.00    +0.000 Br
ENDBRANCH   3   6
BRANCH   1  14
ATOM     13  C   UNL     1       5.385   6.427  15.303  0.00  0.00    +0.000 C 
ATOM     14  C   UNL     1       6.321   5.400  15.956  0.00  0.00    +0.000 C 
BRANCH  14  15
ATOM     15  C   UNL     1       6.623   4.278  14.973  0.00  0.00    +0.000 C 
ATOM     16  C   UNL     1       5.641   3.924  13.879  0.00  0.00    +0.000 C 
ATOM     17  C   UNL     1       6.978   4.512  13.519  0.00  0.00    +0.000 C 
ENDBRANCH  14  15
BRANCH  14  18
ATOM     18  O   UNL     1       7.539   6.095  16.276  0.00  0.00    +0.000 OA
ATOM     19  H   UNL     1       8.270   5.542  15.945  0.00  0.00    +0.000 HD
ENDBRANCH  14  18
ENDBRANCH   1  14
TORSDOF 4
ENDMDL
MODEL 5
REMARK VINA RESULT:      -6.7      2.575      6.358
REMARK  Name = 
REMARK  5 active torsions:
REMARK  status: ('A' for Active; 'I' for Inactive)
REMARK    1  A    between atoms: C_1  and  C_2
REMARK    2  A    between atoms: C_2  and  O_3
REMARK    3  A    between atoms: C_2  and  C_4
REMARK    4  A    between atoms: C_2  and  C_16
REMARK    5  A    between atoms: C_6  and  C_7
REMARK                            x       y       z     vdW  Elec       q    Type
REMARK                         _______ _______ _______ _____ _____    ______ ____
ROOT
ATOM      1  C   UNL     1       2.955   3.485  18.501  0.00  0.00    +0.000 A 
ATOM      2  N   UNL     1       4.072   3.247  17.841  0.00  0.00    +0.000 NA
ATOM      3  C   UNL     1       4.331   4.470  17.249  0.00  0.00    +0.000 A 
ATOM      4  N   UNL     1       3.386   5.394  17.483  0.00  0.00    +0.000 NA
ATOM      5  O   UNL     1       2.486   4.753  18.317  0.00  0.00    +0.000 OA
ENDROOT
BRANCH   3   6
ATOM      6  C   UNL     1       5.456   4.676  16.352  0.00  0.00    +0.000 A 
ATOM      7  C   UNL     1       5.303   4.280  15.013  0.00  0.00    +0.000 A 
ATOM      8  C   UNL     1       6.334   4.511  14.120  0.00  0.00    +0.000 A 
ATOM      9  N   UNL     1       7.499   5.094  14.465  0.00  0.00    +0.000 NA
ATOM     10  C   UNL     1       7.637   5.454  15.764  0.00  0.00    +0.000 A 
ATOM     11  C   UNL     1       6.663   5.272  16.735  0.00  0.00    +0.000 A 
ATOM     12 BR   UNL     1       7.091   5.797  18.508  0.00  0.00    +0.000 Br
ENDBRANCH   3   6
BRANCH   1  14
ATOM     13  C   UNL     1       0.622   2.941  19.115  0.00  0.00    +0.000 C 
ATOM     14  C   UNL     1       2.094   2.548  19.305  0.00  0.00    +0.000 C 
BRANCH  14  15
ATOM     15  C   UNL     1       2.429   2.503  20.788  0.00  0.00    +0.000 C 
ATOM     16  C   UNL     1       2.222   3.718  21.665  0.00  0.00    +0.000 C 
ATOM     17  C   UNL     1       1.382   2.489  21.883  0.00  0.00    +0.000 C 
ENDBRANCH  14  15
BRANCH  14  18
ATOM     18  O   UNL     1       2.248   1.235  18.740  0.00  0.00    +0.000 OA
ATOM     19  H   UNL     1       2.483   0.641  19.477  0.00  0.00    +0.000 HD
ENDBRANCH  14  18
ENDBRANCH   1  14
TORSDOF 4
ENDMDL
MODEL 6
REMARK VINA RESULT:      -6.6      1.590      2.119
REMARK  Name = 
REMARK  5 active torsions:
REMARK  status: ('A' for Active; 'I' for Inactive)
REMARK    1  A    between atoms: C_1  and  C_2
REMARK    2  A    between atoms: C_2  and  O_3
REMARK    3  A    between atoms: C_2  and  C_4
REMARK    4  A    between atoms: C_2  and  C_16
REMARK    5  A    between atoms: C_6  and  C_7
REMARK                            x       y       z     vdW  Elec       q    Type
REMARK                         _______ _______ _______ _____ _____    ______ ____
ROOT
ATOM      1  C   UNL     1       6.147   4.582  18.086  0.00  0.00    +0.000 A 
ATOM      2  N   UNL     1       5.331   4.512  19.119  0.00  0.00    +0.000 NA
ATOM      3  C   UNL     1       4.201   3.936  18.564  0.00  0.00    +0.000 A 
ATOM      4  N   UNL     1       4.298   3.725  17.242  0.00  0.00    +0.000 NA
ATOM      5  O   UNL     1       5.582   4.136  16.927  0.00  0.00    +0.000 OA
ENDROOT
BRANCH   3   6
ATOM      6  C   UNL     1       2.985   3.716  19.329  0.00  0.00    +0.000 A 
ATOM      7  C   UNL     1       2.628   2.388  19.616  0.00  0.00    +0.000 A 
ATOM      8  C   UNL     1       1.506   2.144  20.388  0.00  0.00    +0.000 A 
ATOM      9  N   UNL     1       0.718   3.119  20.881  0.00  0.00    +0.000 NA
ATOM     10  C   UNL     1       1.067   4.394  20.581  0.00  0.00    +0.000 A 
ATOM     11  C   UNL     1       2.173   4.744  19.821  0.00  0.00    +0.000 A 
ATOM     12 BR   UNL     1       2.442   6.590  19.472  0.00  0.00    +0.000 Br
ENDBRANCH   3   6
BRANCH   1  14
ATOM     13  C   UNL     1       8.047   5.455  19.406  0.00  0.00    +0.000 C 
ATOM     14  C   UNL     1       7.527   5.176  17.989  0.00  0.00    +0.000 C 
BRANCH  14  15
ATOM     15  C   UNL     1       7.609   6.442  17.150  0.00  0.00    +0.000 C 
ATOM     16  C   UNL     1       6.474   7.441  17.142  0.00  0.00    +0.000 C 
ATOM     17  C   UNL     1       7.800   7.825  17.738  0.00  0.00    +0.000 C 
ENDBRANCH  14  15
BRANCH  14  18
ATOM     18  O   UNL     1       8.385   4.171  17.423  0.00  0.00    +0.000 OA
ATOM     19  H   UNL     1       9.197   4.163  17.963  0.00  0.00    +0.000 HD
ENDBRANCH  14  18
ENDBRANCH   1  14
TORSDOF 4
ENDMDL
MODEL 7
REMARK VINA RESULT:      -6.5      1.358      1.508
REMARK  Name = 
REMARK  5 active torsions:
REMARK  status: ('A' for Active; 'I' for Inactive)
REMARK    1  A    between atoms: C_1  and  C_2
REMARK    2  A    between atoms: C_2  and  O_3
REMARK    3  A    between atoms: C_2  and  C_4
REMARK    4  A    between atoms: C_2  and  C_16
REMARK    5  A    between atoms: C_6  and  C_7
REMARK                            x       y       z     vdW  Elec       q    Type
REMARK                         _______ _______ _______ _____ _____    ______ ____
ROOT
ATOM      1  C   UNL     1       5.539   4.518  16.916  0.00  0.00    +0.000 A 
ATOM      2  N   UNL     1       5.315   4.522  18.215  0.00  0.00    +0.000 NA
ATOM      3  C   UNL     1       4.072   3.921  18.302  0.00  0.00    +0.000 A 
ATOM      4  N   UNL     1       3.533   3.622  17.109  0.00  0.00    +0.000 NA
ATOM      5  O   UNL     1       4.502   4.002  16.196  0.00  0.00    +0.000 OA
ENDROOT
BRANCH   3   6
ATOM      6  C   UNL     1       3.372   3.760  19.566  0.00  0.00    +0.000 A 
ATOM      7  C   UNL     1       3.421   2.499  20.182  0.00  0.00    +0.000 A 
ATOM      8  C   UNL     1       2.811   2.326  21.412  0.00  0.00    +0.000 A 
ATOM      9  N   UNL     1       2.155   3.309  22.060  0.00  0.00    +0.000 NA
ATOM     10  C   UNL     1       2.104   4.515  21.444  0.00  0.00    +0.000 A 
ATOM     11  C   UNL     1       2.685   4.792  20.216  0.00  0.00    +0.000 A 
ATOM     12 BR   UNL     1       2.439   6.536  19.508  0.00  0.00    +0.000 Br
ENDBRANCH   3   6
BRANCH   1  14
ATOM     13  C   UNL     1       7.041   6.473  16.713  0.00  0.00    +0.000 C 
ATOM     14  C   UNL     1       6.692   5.093  16.137  0.00  0.00    +0.000 C 
BRANCH  14  15
ATOM     15  C   UNL     1       6.446   5.206  14.640  0.00  0.00    +0.000 C 
ATOM     16  C   UNL     1       7.583   5.054  13.656  0.00  0.00    +0.000 C 
ATOM     17  C   UNL     1       6.487   4.024  13.693  0.00  0.00    +0.000 C 
ENDBRANCH  14  15
BRANCH  14  18
ATOM     18  O   UNL     1       7.831   4.246  16.372  0.00  0.00    +0.000 OA
ATOM     19  H   UNL     1       8.262   4.115  15.508  0.00  0.00    +0.000 HD
ENDBRANCH  14  18
ENDBRANCH   1  14
TORSDOF 4
ENDMDL
MODEL 8
REMARK VINA RESULT:      -6.4      1.739      2.772
REMARK  Name = 
REMARK  5 active torsions:
REMARK  status: ('A' for Active; 'I' for Inactive)
REMARK    1  A    between atoms: C_1  and  C_2
REMARK    2  A    between atoms: C_2  and  O_3
REMARK    3  A    between atoms: C_2  and  C_4
REMARK    4  A    between atoms: C_2  and  C_16
REMARK    5  A    between atoms: C_6  and  C_7
REMARK                            x       y       z     vdW  Elec       q    Type
REMARK                         _______ _______ _______ _____ _____    ______ ____
ROOT
ATOM      1  C   UNL     1       5.904   5.352  17.634  0.00  0.00    +0.000 A 
ATOM      2  N   UNL     1       4.605   5.315  17.859  0.00  0.00    +0.000 NA
ATOM      3  C   UNL     1       4.516   4.449  18.935  0.00  0.00    +0.000 A 
ATOM      4  N   UNL     1       5.697   3.931  19.309  0.00  0.00    +0.000 NA
ATOM      5  O   UNL     1       6.613   4.533  18.464  0.00  0.00    +0.000 OA
ENDROOT
BRANCH   3   6
ATOM      6  C   UNL     1       3.241   4.046  19.505  0.00  0.00    +0.000 A 
ATOM      7  C   UNL     1       2.544   4.990  20.275  0.00  0.00    +0.000 A 
ATOM      8  C   UNL     1       1.303   4.657  20.788  0.00  0.00    +0.000 A 
ATOM      9  N   UNL     1       0.717   3.459  20.596  0.00  0.00    +0.000 NA
ATOM     10  C   UNL     1       1.411   2.554  19.865  0.00  0.00    +0.000 A 
ATOM     11  C   UNL     1       2.658   2.790  19.304  0.00  0.00    +0.000 A 
ATOM     12 BR   UNL     1       3.478   1.358  18.366  0.00  0.00    +0.000 Br
ENDBRANCH   3   6
BRANCH   1  14
ATOM     13  C   UNL     1       7.203   5.013  15.557  0.00  0.00    +0.000 C 
ATOM     14  C   UNL     1       6.673   6.058  16.550  0.00  0.00    +0.000 C 
BRANCH  14  15
ATOM     15  C   UNL     1       7.820   6.921  17.052  0.00  0.00    +0.000 C 
ATOM     16  C   UNL     1       7.565   8.311  17.588  0.00  0.00    +0.000 C 
ATOM     17  C   UNL     1       8.056   7.233  18.515  0.00  0.00    +0.000 C 
ENDBRANCH  14  15
BRANCH  14  18
ATOM     18  O   UNL     1       5.738   6.877  15.827  0.00  0.00    +0.000 OA
ATOM     19  H   UNL     1       5.497   6.382  15.023  0.00  0.00    +0.000 HD
ENDBRANCH  14  18
ENDBRANCH   1  14
TORSDOF 4
ENDMDL
MODEL 9
REMARK VINA RESULT:      -6.4      2.618      6.250
REMARK  Name = 
REMARK  5 active torsions:
REMARK  status: ('A' for Active; 'I' for Inactive)
REMARK    1  A    between atoms: C_1  and  C_2
REMARK    2  A    between atoms: C_2  and  O_3
REMARK    3  A    between atoms: C_2  and  C_4
REMARK    4  A    between atoms: C_2  and  C_16
REMARK    5  A    between atoms: C_6  and  C_7
REMARK                            x       y       z     vdW  Elec       q    Type
REMARK                         _______ _______ _______ _____ _____    ______ ____
ROOT
ATOM      1  C   UNL     1       2.517   4.270  19.052  0.00  0.00    +0.000 A 
ATOM      2  N   UNL     1       3.588   4.931  18.660  0.00  0.00    +0.000 NA
ATOM      3  C   UNL     1       3.956   4.244  17.516  0.00  0.00    +0.000 A 
ATOM      4  N   UNL     1       3.185   3.176  17.257  0.00  0.00    +0.000 NA
ATOM      5  O   UNL     1       2.229   3.199  18.258  0.00  0.00    +0.000 OA
ENDROOT
BRANCH   3   6
ATOM      6  C   UNL     1       5.148   4.581  16.756  0.00  0.00    +0.000 A 
ATOM      7  C   UNL     1       5.113   4.382  15.366  0.00  0.00    +0.000 A 
ATOM      8  C   UNL     1       6.211   4.743  14.606  0.00  0.00    +0.000 A 
ATOM      9  N   UNL     1       7.334   5.274  15.129  0.00  0.00    +0.000 NA
ATOM     10  C   UNL     1       7.358   5.443  16.474  0.00  0.00    +0.000 A 
ATOM     11  C   UNL     1       6.310   5.119  17.322  0.00  0.00    +0.000 A 
ATOM     12 BR   UNL     1       6.580   5.383  19.182  0.00  0.00    +0.000 Br
ENDBRANCH   3   6
BRANCH   1  14
ATOM     13  C   UNL     1       1.546   5.962  20.573  0.00  0.00    +0.000 C 
ATOM     14  C   UNL     1       1.666   4.459  20.280  0.00  0.00    +0.000 C 
BRANCH  14  15
ATOM     15  C   UNL     1       2.173   3.731  21.515  0.00  0.00    +0.000 C 
ATOM     16  C   UNL     1       1.529   2.441  21.971  0.00  0.00    +0.000 C 
ATOM     17  C   UNL     1       2.944   2.428  21.461  0.00  0.00    +0.000 C 
ENDBRANCH  14  15
BRANCH  14  18
ATOM     18  O   UNL     1       0.344   3.994  19.959  0.00  0.00    +0.000 OA
ATOM     19  H   UNL     1       0.138   4.333  19.068  0.00  0.00    +0.000 HD
ENDBRANCH  14  18
ENDBRANCH   1  14
TORSDOF 4
ENDMDL
