MODEL 1
REMARK VINA RESULT:      -8.0      0.000      0.000
REMARK  Name = 
REMARK  3 active torsions:
REMARK  status: ('A' for Active; 'I' for Inactive)
REMARK    1  A    between atoms: C_12  and  N_13
REMARK    2  A    between atoms: N_13  and  C_14
REMARK    3  A    between atoms: C_18  and  C_19
REMARK                            x       y       z     vdW  Elec       q    Type
REMARK                         _______ _______ _______ _____ _____    ______ ____
ROOT
ATOM      1  O   UNL     1       1.105   9.684  23.230  0.00  0.00    +0.000 OA
ATOM      2  C   UNL     1       1.073   9.580  22.005  0.00  0.00    +0.000 A 
ATOM      3  N   UNL     1       1.559   8.468  21.401  0.00  0.00    +0.000 N 
ATOM      4  C   UNL     1       1.564   8.282  20.052  0.00  0.00    +0.000 A 
ATOM      5  N   UNL     1       2.162   7.127  19.598  0.00  0.00    +0.000 N 
ATOM      6  C   UNL     1       1.994   5.813  20.242  0.00  0.00    +0.000 C 
ATOM      7  C   UNL     1       3.317   5.041  20.157  0.00  0.00    +0.000 C 
ATOM      8  O   UNL     1       3.734   4.884  18.791  0.00  0.00    +0.000 OA
ATOM      9  C   UNL     1       3.897   6.168  18.161  0.00  0.00    +0.000 C 
ATOM     10  C   UNL     1       2.595   6.988  18.196  0.00  0.00    +0.000 C 
ATOM     11  N   UNL     1       1.057   9.175  19.260  0.00  0.00    +0.000 NA
ATOM     12  C   UNL     1       0.458  10.309  19.778  0.00  0.00    +0.000 A 
ATOM     13  C   UNL     1       0.449  10.573  21.111  0.00  0.00    +0.000 A 
ATOM     14  H   UNL     1       2.016   7.811  22.005  0.00  0.00    +0.000 HD
ENDROOT
BRANCH  13  15
ATOM     15  C   UNL     1      -0.257  11.695  21.734  0.00  0.00    +0.000 A 
ATOM     16  C   UNL     1       0.290  12.972  21.727  0.00  0.00    +0.000 A 
ATOM     17  C   UNL     1      -0.357  13.970  22.448  0.00  0.00    +0.000 A 
ATOM     18  C   UNL     1      -1.527  13.667  23.154  0.00  0.00    +0.000 A 
ATOM     19  C   UNL     1      -2.145  14.599  24.005  0.00  0.00    +0.000 A 
ATOM     20  C   UNL     1      -3.304  14.257  24.698  0.00  0.00    +0.000 A 
ATOM     21  C   UNL     1      -3.876  13.005  24.506  0.00  0.00    +0.000 A 
ATOM     22  C   UNL     1      -3.257  12.080  23.662  0.00  0.00    +0.000 A 
ATOM     23  C   UNL     1      -2.066  12.372  23.013  0.00  0.00    +0.000 A 
ATOM     24  N   UNL     1      -1.447  11.408  22.317  0.00  0.00    +0.000 NA
ENDBRANCH  13  15
BRANCH  12  25
ATOM     25  N   UNL     1      -0.291  11.045  18.854  0.00  0.00    +0.000 N 
ATOM     26  H   UNL     1      -0.282  11.986  19.253  0.00  0.00    +0.000 HD
BRANCH  25  27
ATOM     27  C   UNL     1      -1.664  10.810  18.432  0.00  0.00    +0.000 C 
ATOM     28  C   UNL     1      -2.608  11.935  18.901  0.00  0.00    +0.000 C 
ATOM     29  N   UNL     1      -3.286  11.897  17.593  0.00  0.00    +0.000 NA
ATOM     30  C   UNL     1      -2.138  11.159  17.014  0.00  0.00    +0.000 C 
ATOM     31  H   UNL     1      -3.411  12.825  17.183  0.00  0.00    +0.000 HD
ENDBRANCH  25  27
ENDBRANCH  12  25
TORSDOF 3
ENDMDL
MODEL 2
REMARK VINA RESULT:      -7.9      0.808      1.658
REMARK  Name = 
REMARK  3 active torsions:
REMARK  status: ('A' for Active; 'I' for Inactive)
REMARK    1  A    between atoms: C_12  and  N_13
REMARK    2  A    between atoms: N_13  and  C_14
REMARK    3  A    between atoms: C_18  and  C_19
REMARK                            x       y       z     vdW  Elec       q    Type
REMARK                         _______ _______ _______ _____ _____    ______ ____
ROOT
ATOM      1  O   UNL     1       1.228   9.338  23.271  0.00  0.00    +0.000 OA
ATOM      2  C   UNL     1       1.197   9.336  22.041  0.00  0.00    +0.000 A 
ATOM      3  N   UNL     1       1.712   8.290  21.347  0.00  0.00    +0.000 N 
ATOM      4  C   UNL     1       1.720   8.217  19.988  0.00  0.00    +0.000 A 
ATOM      5  N   UNL     1       2.347   7.120  19.440  0.00  0.00    +0.000 N 
ATOM      6  C   UNL     1       2.214   5.753  19.973  0.00  0.00    +0.000 C 
ATOM      7  C   UNL     1       3.556   5.025  19.825  0.00  0.00    +0.000 C 
ATOM      8  O   UNL     1       3.976   4.993  18.451  0.00  0.00    +0.000 OA
ATOM      9  C   UNL     1       4.105   6.329  17.930  0.00  0.00    +0.000 C 
ATOM     10  C   UNL     1       2.782   7.109  18.032  0.00  0.00    +0.000 C 
ATOM     11  N   UNL     1       1.189   9.159  19.272  0.00  0.00    +0.000 NA
ATOM     12  C   UNL     1       0.562  10.230  19.882  0.00  0.00    +0.000 A 
ATOM     13  C   UNL     1       0.547  10.383  21.232  0.00  0.00    +0.000 A 
ATOM     14  H   UNL     1       2.186   7.598  21.896  0.00  0.00    +0.000 HD
ENDROOT
BRANCH  13  15
ATOM     15  C   UNL     1      -0.187  11.431  21.946  0.00  0.00    +0.000 A 
ATOM     16  C   UNL     1      -1.324  11.126  22.684  0.00  0.00    +0.000 A 
ATOM     17  C   UNL     1      -2.056  12.176  23.230  0.00  0.00    +0.000 A 
ATOM     18  C   UNL     1      -1.634  13.495  23.024  0.00  0.00    +0.000 A 
ATOM     19  C   UNL     1      -2.406  14.594  23.436  0.00  0.00    +0.000 A 
ATOM     20  C   UNL     1      -1.957  15.893  23.205  0.00  0.00    +0.000 A 
ATOM     21  C   UNL     1      -0.718  16.097  22.610  0.00  0.00    +0.000 A 
ATOM     22  C   UNL     1       0.045  15.001  22.199  0.00  0.00    +0.000 A 
ATOM     23  C   UNL     1      -0.411  13.700  22.356  0.00  0.00    +0.000 A 
ATOM     24  N   UNL     1       0.300  12.691  21.830  0.00  0.00    +0.000 NA
ENDBRANCH  13  15
BRANCH  12  25
ATOM     25  N   UNL     1      -0.208  11.021  19.021  0.00  0.00    +0.000 N 
ATOM     26  H   UNL     1      -0.157  11.945  19.455  0.00  0.00    +0.000 HD
BRANCH  25  27
ATOM     27  C   UNL     1      -1.603  10.838  18.653  0.00  0.00    +0.000 C 
ATOM     28  C   UNL     1      -2.476  12.027  19.099  0.00  0.00    +0.000 C 
ATOM     29  N   UNL     1      -3.197  11.967  17.815  0.00  0.00    +0.000 NA
ATOM     30  C   UNL     1      -2.107  11.148  17.236  0.00  0.00    +0.000 C 
ATOM     31  H   UNL     1      -3.290  12.881  17.368  0.00  0.00    +0.000 HD
ENDBRANCH  25  27
ENDBRANCH  12  25
TORSDOF 3
ENDMDL
MODEL 3
REMARK VINA RESULT:      -7.4      1.287      2.021
REMARK  Name = 
REMARK  3 active torsions:
REMARK  status: ('A' for Active; 'I' for Inactive)
REMARK    1  A    between atoms: C_12  and  N_13
REMARK    2  A    between atoms: N_13  and  C_14
REMARK    3  A    between atoms: C_18  and  C_19
REMARK                            x       y       z     vdW  Elec       q    Type
REMARK                         _______ _______ _______ _____ _____    ______ ____
ROOT
ATOM      1  O   UNL     1       1.127   9.463  23.364  0.00  0.00    +0.000 OA
ATOM      2  C   UNL     1       1.034   9.484  22.138  0.00  0.00    +0.000 A 
ATOM      3  N   UNL     1       1.589   8.495  21.394  0.00  0.00    +0.000 N 
ATOM      4  C   UNL     1       1.534   8.451  20.034  0.00  0.00    +0.000 A 
ATOM      5  N   UNL     1       2.213   7.415  19.430  0.00  0.00    +0.000 N 
ATOM      6  C   UNL     1       2.208   6.032  19.936  0.00  0.00    +0.000 C 
ATOM      7  C   UNL     1       3.592   5.410  19.705  0.00  0.00    +0.000 C 
ATOM      8  O   UNL     1       3.943   5.438  18.312  0.00  0.00    +0.000 OA
ATOM      9  C   UNL     1       3.946   6.791  17.818  0.00  0.00    +0.000 C 
ATOM     10  C   UNL     1       2.576   7.467  18.002  0.00  0.00    +0.000 C 
ATOM     11  N   UNL     1       0.900   9.365  19.369  0.00  0.00    +0.000 NA
ATOM     12  C   UNL     1       0.226  10.373  20.034  0.00  0.00    +0.000 A 
ATOM     13  C   UNL     1       0.268  10.496  21.387  0.00  0.00    +0.000 A 
ATOM     14  H   UNL     1       2.140   7.829  21.902  0.00  0.00    +0.000 HD
ENDROOT
BRANCH  13  15
ATOM     15  C   UNL     1      -0.505  11.471  22.161  0.00  0.00    +0.000 A 
ATOM     16  C   UNL     1      -1.653  11.088  22.842  0.00  0.00    +0.000 A 
ATOM     17  C   UNL     1      -2.420  12.078  23.449  0.00  0.00    +0.000 A 
ATOM     18  C   UNL     1      -2.020  13.416  23.358  0.00  0.00    +0.000 A 
ATOM     19  C   UNL     1      -2.824  14.466  23.835  0.00  0.00    +0.000 A 
ATOM     20  C   UNL     1      -2.396  15.787  23.718  0.00  0.00    +0.000 A 
ATOM     21  C   UNL     1      -1.147  16.060  23.174  0.00  0.00    +0.000 A 
ATOM     22  C   UNL     1      -0.352  15.014  22.699  0.00  0.00    +0.000 A 
ATOM     23  C   UNL     1      -0.785  13.696  22.741  0.00  0.00    +0.000 A 
ATOM     24  N   UNL     1      -0.041  12.745  22.157  0.00  0.00    +0.000 NA
ENDBRANCH  13  15
BRANCH  12  25
ATOM     25  N   UNL     1      -0.642  11.122  19.231  0.00  0.00    +0.000 N 
ATOM     26  H   UNL     1      -0.989  10.429  18.565  0.00  0.00    +0.000 HD
BRANCH  25  27
ATOM     27  C   UNL     1      -0.327  12.303  18.442  0.00  0.00    +0.000 C 
ATOM     28  C   UNL     1      -0.985  13.571  19.020  0.00  0.00    +0.000 C 
ATOM     29  N   UNL     1       0.253  14.324  18.751  0.00  0.00    +0.000 NA
ATOM     30  C   UNL     1       1.001  13.052  18.614  0.00  0.00    +0.000 C 
ATOM     31  H   UNL     1       0.559  14.883  19.550  0.00  0.00    +0.000 HD
ENDBRANCH  25  27
ENDBRANCH  12  25
TORSDOF 3
ENDMDL
MODEL 4
REMARK VINA RESULT:      -7.3      2.863      5.479
REMARK  Name = 
REMARK  3 active torsions:
REMARK  status: ('A' for Active; 'I' for Inactive)
REMARK    1  A    between atoms: C_12  and  N_13
REMARK    2  A    between atoms: N_13  and  C_14
REMARK    3  A    between atoms: C_18  and  C_19
REMARK                            x       y       z     vdW  Elec       q    Type
REMARK                         _______ _______ _______ _____ _____    ______ ____
ROOT
ATOM      1  O   UNL     1       2.673   9.380  17.135  0.00  0.00    +0.000 OA
ATOM      2  C   UNL     1       2.880   8.293  17.671  0.00  0.00    +0.000 A 
ATOM      3  N   UNL     1       3.893   7.501  17.238  0.00  0.00    +0.000 N 
ATOM      4  C   UNL     1       4.182   6.283  17.775  0.00  0.00    +0.000 A 
ATOM      5  N   UNL     1       5.198   5.576  17.170  0.00  0.00    +0.000 N 
ATOM      6  C   UNL     1       6.457   6.187  16.711  0.00  0.00    +0.000 C 
ATOM      7  C   UNL     1       6.901   5.502  15.412  0.00  0.00    +0.000 C 
ATOM      8  O   UNL     1       7.067   4.088  15.607  0.00  0.00    +0.000 OA
ATOM      9  C   UNL     1       5.836   3.491  16.056  0.00  0.00    +0.000 C 
ATOM     10  C   UNL     1       5.345   4.123  17.371  0.00  0.00    +0.000 C 
ATOM     11  N   UNL     1       3.501   5.825  18.779  0.00  0.00    +0.000 NA
ATOM     12  C   UNL     1       2.501   6.590  19.351  0.00  0.00    +0.000 A 
ATOM     13  C   UNL     1       2.138   7.798  18.845  0.00  0.00    +0.000 A 
ATOM     14  H   UNL     1       4.372   7.821  16.418  0.00  0.00    +0.000 HD
ENDROOT
BRANCH  13  15
ATOM     15  C   UNL     1       1.166   8.704  19.461  0.00  0.00    +0.000 A 
ATOM     16  C   UNL     1       0.514   9.669  18.704  0.00  0.00    +0.000 A 
ATOM     17  C   UNL     1      -0.297  10.587  19.364  0.00  0.00    +0.000 A 
ATOM     18  C   UNL     1      -0.432  10.517  20.756  0.00  0.00    +0.000 A 
ATOM     19  C   UNL     1      -1.127  11.496  21.486  0.00  0.00    +0.000 A 
ATOM     20  C   UNL     1      -1.233  11.396  22.872  0.00  0.00    +0.000 A 
ATOM     21  C   UNL     1      -0.691  10.296  23.525  0.00  0.00    +0.000 A 
ATOM     22  C   UNL     1       0.002   9.326  22.797  0.00  0.00    +0.000 A 
ATOM     23  C   UNL     1       0.179   9.438  21.425  0.00  0.00    +0.000 A 
ATOM     24  N   UNL     1       0.959   8.548  20.792  0.00  0.00    +0.000 NA
ENDBRANCH  13  15
BRANCH  12  25
ATOM     25  N   UNL     1       2.038   6.115  20.584  0.00  0.00    +0.000 N 
ATOM     26  H   UNL     1       2.878   6.139  21.166  0.00  0.00    +0.000 HD
BRANCH  25  27
ATOM     27  C   UNL     1       1.404   4.836  20.863  0.00  0.00    +0.000 C 
ATOM     28  C   UNL     1       1.186   4.011  19.579  0.00  0.00    +0.000 C 
ATOM     29  N   UNL     1       1.604   2.796  20.300  0.00  0.00    +0.000 NA
ATOM     30  C   UNL     1       2.214   3.631  21.362  0.00  0.00    +0.000 C 
ATOM     31  H   UNL     1       2.291   2.244  19.784  0.00  0.00    +0.000 HD
ENDBRANCH  25  27
ENDBRANCH  12  25
TORSDOF 3
ENDMDL
MODEL 5
REMARK VINA RESULT:      -7.3      2.352      7.572
REMARK  Name = 
REMARK  3 active torsions:
REMARK  status: ('A' for Active; 'I' for Inactive)
REMARK    1  A    between atoms: C_12  and  N_13
REMARK    2  A    between atoms: N_13  and  C_14
REMARK    3  A    between atoms: C_18  and  C_19
REMARK                            x       y       z     vdW  Elec       q    Type
REMARK                         _______ _______ _______ _____ _____    ______ ____
ROOT
ATOM      1  O   UNL     1       1.256  11.523  21.579  0.00  0.00    +0.000 OA
ATOM      2  C   UNL     1       0.192  11.612  20.969  0.00  0.00    +0.000 A 
ATOM      3  N   UNL     1      -0.674  12.618  21.248  0.00  0.00    +0.000 N 
ATOM      4  C   UNL     1      -1.871  12.781  20.621  0.00  0.00    +0.000 A 
ATOM      5  N   UNL     1      -2.663  13.813  21.075  0.00  0.00    +0.000 N 
ATOM      6  C   UNL     1      -2.144  15.145  21.427  0.00  0.00    +0.000 C 
ATOM      7  C   UNL     1      -2.924  15.684  22.632  0.00  0.00    +0.000 C 
ATOM      8  O   UNL     1      -4.331  15.749  22.348  0.00  0.00    +0.000 OA
ATOM      9  C   UNL     1      -4.838  14.446  22.004  0.00  0.00    +0.000 C 
ATOM     10  C   UNL     1      -4.107  13.856  20.784  0.00  0.00    +0.000 C 
ATOM     11  N   UNL     1      -2.236  11.974  19.673  0.00  0.00    +0.000 NA
ATOM     12  C   UNL     1      -1.390  10.963  19.253  0.00  0.00    +0.000 A 
ATOM     13  C   UNL     1      -0.197  10.724  19.857  0.00  0.00    +0.000 A 
ATOM     14  H   UNL     1      -0.426  13.198  22.027  0.00  0.00    +0.000 HD
ENDROOT
BRANCH  13  15
ATOM     15  C   UNL     1       0.791   9.745  19.397  0.00  0.00    +0.000 A 
ATOM     16  C   UNL     1       1.481   9.937  18.207  0.00  0.00    +0.000 A 
ATOM     17  C   UNL     1       2.307   8.914  17.752  0.00  0.00    +0.000 A 
ATOM     18  C   UNL     1       2.420   7.733  18.495  0.00  0.00    +0.000 A 
ATOM     19  C   UNL     1       3.131   6.619  18.017  0.00  0.00    +0.000 A 
ATOM     20  C   UNL     1       3.212   5.457  18.782  0.00  0.00    +0.000 A 
ATOM     21  C   UNL     1       2.630   5.421  20.043  0.00  0.00    +0.000 A 
ATOM     22  C   UNL     1       1.921   6.529  20.513  0.00  0.00    +0.000 A 
ATOM     23  C   UNL     1       1.768   7.673  19.743  0.00  0.00    +0.000 A 
ATOM     24  N   UNL     1       0.972   8.658  20.186  0.00  0.00    +0.000 NA
ENDBRANCH  13  15
BRANCH  12  25
ATOM     25  N   UNL     1      -1.769  10.348  18.054  0.00  0.00    +0.000 N 
ATOM     26  H   UNL     1      -0.898   9.923  17.731  0.00  0.00    +0.000 HD
BRANCH  25  27
ATOM     27  C   UNL     1      -2.357  10.975  16.880  0.00  0.00    +0.000 C 
ATOM     28  C   UNL     1      -2.579   9.962  15.739  0.00  0.00    +0.000 C 
ATOM     29  N   UNL     1      -3.885  10.583  15.455  0.00  0.00    +0.000 NA
ATOM     30  C   UNL     1      -3.867  11.240  16.783  0.00  0.00    +0.000 C 
ATOM     31  H   UNL     1      -4.638   9.899  15.359  0.00  0.00    +0.000 HD
ENDBRANCH  25  27
ENDBRANCH  12  25
TORSDOF 3
ENDMDL
MODEL 6
REMARK VINA RESULT:      -7.2      2.673      9.280
REMARK  Name = 
REMARK  3 active torsions:
REMARK  status: ('A' for Active; 'I' for Inactive)
REMARK    1  A    between atoms: C_12  and  N_13
REMARK    2  A    between atoms: N_13  and  C_14
REMARK    3  A    between atoms: C_18  and  C_19
REMARK                            x       y       z     vdW  Elec       q    Type
REMARK                         _______ _______ _______ _____ _____    ______ ____
ROOT
ATOM      1  O   UNL     1       2.210   8.812  17.030  0.00  0.00    +0.000 OA
ATOM      2  C   UNL     1       1.976   8.483  18.192  0.00  0.00    +0.000 A 
ATOM      3  N   UNL     1       1.112   9.207  18.946  0.00  0.00    +0.000 N 
ATOM      4  C   UNL     1       0.807   8.910  20.239  0.00  0.00    +0.000 A 
ATOM      5  N   UNL     1      -0.033   9.791  20.885  0.00  0.00    +0.000 N 
ATOM      6  C   UNL     1      -1.222  10.393  20.258  0.00  0.00    +0.000 C 
ATOM      7  C   UNL     1      -1.375  11.835  20.759  0.00  0.00    +0.000 C 
ATOM      8  O   UNL     1      -1.485  11.874  22.191  0.00  0.00    +0.000 OA
ATOM      9  C   UNL     1      -0.322  11.284  22.803  0.00  0.00    +0.000 C 
ATOM     10  C   UNL     1      -0.123   9.825  22.356  0.00  0.00    +0.000 C 
ATOM     11  N   UNL     1       1.318   7.868  20.816  0.00  0.00    +0.000 NA
ATOM     12  C   UNL     1       2.146   7.013  20.110  0.00  0.00    +0.000 A 
ATOM     13  C   UNL     1       2.519   7.268  18.829  0.00  0.00    +0.000 A 
ATOM     14  H   UNL     1       0.774  10.051  18.525  0.00  0.00    +0.000 HD
ENDROOT
BRANCH  13  15
ATOM     15  C   UNL     1       3.302   6.357  17.990  0.00  0.00    +0.000 A 
ATOM     16  C   UNL     1       2.801   5.112  17.633  0.00  0.00    +0.000 A 
ATOM     17  C   UNL     1       3.638   4.236  16.949  0.00  0.00    +0.000 A 
ATOM     18  C   UNL     1       4.947   4.627  16.642  0.00  0.00    +0.000 A 
ATOM     19  C   UNL     1       5.875   3.738  16.075  0.00  0.00    +0.000 A 
ATOM     20  C   UNL     1       7.172   4.162  15.791  0.00  0.00    +0.000 A 
ATOM     21  C   UNL     1       7.530   5.484  16.026  0.00  0.00    +0.000 A 
ATOM     22  C   UNL     1       6.606   6.364  16.593  0.00  0.00    +0.000 A 
ATOM     23  C   UNL     1       5.330   5.949  16.947  0.00  0.00    +0.000 A 
ATOM     24  N   UNL     1       4.525   6.797  17.604  0.00  0.00    +0.000 NA
ENDBRANCH  13  15
BRANCH  12  25
ATOM     25  N   UNL     1       2.402   5.793  20.745  0.00  0.00    +0.000 N 
ATOM     26  H   UNL     1       3.031   5.324  20.092  0.00  0.00    +0.000 HD
BRANCH  25  27
ATOM     27  C   UNL     1       1.437   4.783  21.153  0.00  0.00    +0.000 C 
ATOM     28  C   UNL     1       0.833   4.044  19.943  0.00  0.00    +0.000 C 
ATOM     29  N   UNL     1       0.931   2.773  20.682  0.00  0.00    +0.000 NA
ATOM     30  C   UNL     1       1.883   3.394  21.632  0.00  0.00    +0.000 C 
ATOM     31  H   UNL     1       1.351   2.024  20.129  0.00  0.00    +0.000 HD
ENDBRANCH  25  27
ENDBRANCH  12  25
TORSDOF 3
ENDMDL
MODEL 7
REMARK VINA RESULT:      -7.2      2.755      4.534
REMARK  Name = 
REMARK  3 active torsions:
REMARK  status: ('A' for Active; 'I' for Inactive)
REMARK    1  A    between atoms: C_12  and  N_13
REMARK    2  A    between atoms: N_13  and  C_14
REMARK    3  A    between atoms: C_18  and  C_19
REMARK                            x       y       z     vdW  Elec       q    Type
REMARK                         _______ _______ _______ _____ _____    ______ ____
ROOT
ATOM      1  O   UNL     1       2.114   9.229  17.012  0.00  0.00    +0.000 OA
ATOM      2  C   UNL     1       2.019   8.668  18.103  0.00  0.00    +0.000 A 
ATOM      3  N   UNL     1       2.600   7.459  18.302  0.00  0.00    +0.000 N 
ATOM      4  C   UNL     1       2.534   6.774  19.477  0.00  0.00    +0.000 A 
ATOM      5  N   UNL     1       3.117   5.526  19.488  0.00  0.00    +0.000 N 
ATOM      6  C   UNL     1       4.410   5.223  18.851  0.00  0.00    +0.000 C 
ATOM      7  C   UNL     1       4.354   3.812  18.252  0.00  0.00    +0.000 C 
ATOM      8  O   UNL     1       4.047   2.836  19.261  0.00  0.00    +0.000 OA
ATOM      9  C   UNL     1       2.784   3.133  19.884  0.00  0.00    +0.000 C 
ATOM     10  C   UNL     1       2.781   4.533  20.524  0.00  0.00    +0.000 C 
ATOM     11  N   UNL     1       1.922   7.279  20.503  0.00  0.00    +0.000 NA
ATOM     12  C   UNL     1       1.367   8.544  20.432  0.00  0.00    +0.000 A 
ATOM     13  C   UNL     1       1.366   9.267  19.282  0.00  0.00    +0.000 A 
ATOM     14  H   UNL     1       3.010   7.037  17.491  0.00  0.00    +0.000 HD
ENDROOT
BRANCH  13  15
ATOM     15  C   UNL     1       0.895  10.649  19.165  0.00  0.00    +0.000 A 
ATOM     16  C   UNL     1      -0.338  10.934  18.592  0.00  0.00    +0.000 A 
ATOM     17  C   UNL     1      -0.676  12.267  18.385  0.00  0.00    +0.000 A 
ATOM     18  C   UNL     1       0.223  13.275  18.754  0.00  0.00    +0.000 A 
ATOM     19  C   UNL     1      -0.008  14.626  18.446  0.00  0.00    +0.000 A 
ATOM     20  C   UNL     1       0.915  15.600  18.823  0.00  0.00    +0.000 A 
ATOM     21  C   UNL     1       2.042  15.236  19.549  0.00  0.00    +0.000 A 
ATOM     22  C   UNL     1       2.269  13.891  19.850  0.00  0.00    +0.000 A 
ATOM     23  C   UNL     1       1.400  12.895  19.428  0.00  0.00    +0.000 A 
ATOM     24  N   UNL     1       1.729  11.610  19.632  0.00  0.00    +0.000 NA
ENDBRANCH  13  15
BRANCH  12  25
ATOM     25  N   UNL     1       0.991   9.084  21.668  0.00  0.00    +0.000 N 
ATOM     26  H   UNL     1       1.281   8.361  22.329  0.00  0.00    +0.000 HD
BRANCH  25  27
ATOM     27  C   UNL     1      -0.340   9.492  22.092  0.00  0.00    +0.000 C 
ATOM     28  C   UNL     1      -0.440   9.620  23.624  0.00  0.00    +0.000 C 
ATOM     29  N   UNL     1      -1.235  10.849  23.460  0.00  0.00    +0.000 NA
ATOM     30  C   UNL     1      -0.778  10.963  22.055  0.00  0.00    +0.000 C 
ATOM     31  H   UNL     1      -0.907  11.617  24.049  0.00  0.00    +0.000 HD
ENDBRANCH  25  27
ENDBRANCH  12  25
TORSDOF 3
ENDMDL
MODEL 8
REMARK VINA RESULT:      -7.2      1.818      7.526
REMARK  Name = 
REMARK  3 active torsions:
REMARK  status: ('A' for Active; 'I' for Inactive)
REMARK    1  A    between atoms: C_12  and  N_13
REMARK    2  A    between atoms: N_13  and  C_14
REMARK    3  A    between atoms: C_18  and  C_19
REMARK                            x       y       z     vdW  Elec       q    Type
REMARK                         _______ _______ _______ _____ _____    ______ ____
ROOT
ATOM      1  O   UNL     1       1.072   9.552  23.061  0.00  0.00    +0.000 OA
ATOM      2  C   UNL     1       0.318  10.113  22.268  0.00  0.00    +0.000 A 
ATOM      3  N   UNL     1      -0.298  11.271  22.614  0.00  0.00    +0.000 N 
ATOM      4  C   UNL     1      -1.150  11.948  21.795  0.00  0.00    +0.000 A 
ATOM      5  N   UNL     1      -1.747  13.069  22.329  0.00  0.00    +0.000 N 
ATOM      6  C   UNL     1      -1.038  14.050  23.167  0.00  0.00    +0.000 C 
ATOM      7  C   UNL     1      -1.991  14.561  24.255  0.00  0.00    +0.000 C 
ATOM      8  O   UNL     1      -3.167  15.147  23.676  0.00  0.00    +0.000 OA
ATOM      9  C   UNL     1      -3.860  14.187  22.856  0.00  0.00    +0.000 C 
ATOM     10  C   UNL     1      -2.961  13.649  21.728  0.00  0.00    +0.000 C 
ATOM     11  N   UNL     1      -1.393  11.519  20.596  0.00  0.00    +0.000 NA
ATOM     12  C   UNL     1      -0.751  10.393  20.113  0.00  0.00    +0.000 A 
ATOM     13  C   UNL     1       0.083   9.652  20.887  0.00  0.00    +0.000 A 
ATOM     14  H   UNL     1      -0.168  11.563  23.564  0.00  0.00    +0.000 HD
ENDROOT
BRANCH  13  15
ATOM     15  C   UNL     1       0.875   8.516  20.410  0.00  0.00    +0.000 A 
ATOM     16  C   UNL     1       0.924   7.330  21.132  0.00  0.00    +0.000 A 
ATOM     17  C   UNL     1       1.795   6.333  20.704  0.00  0.00    +0.000 A 
ATOM     18  C   UNL     1       2.591   6.548  19.573  0.00  0.00    +0.000 A 
ATOM     19  C   UNL     1       3.581   5.633  19.176  0.00  0.00    +0.000 A 
ATOM     20  C   UNL     1       4.360   5.887  18.048  0.00  0.00    +0.000 A 
ATOM     21  C   UNL     1       4.119   7.024  17.287  0.00  0.00    +0.000 A 
ATOM     22  C   UNL     1       3.135   7.932  17.686  0.00  0.00    +0.000 A 
ATOM     23  C   UNL     1       2.393   7.737  18.842  0.00  0.00    +0.000 A 
ATOM     24  N   UNL     1       1.552   8.699  19.250  0.00  0.00    +0.000 NA
ENDBRANCH  13  15
BRANCH  12  25
ATOM     25  N   UNL     1      -0.878  10.198  18.732  0.00  0.00    +0.000 N 
ATOM     26  H   UNL     1      -0.144  10.797  18.350  0.00  0.00    +0.000 HD
BRANCH  25  27
ATOM     27  C   UNL     1      -2.050  10.438  17.904  0.00  0.00    +0.000 C 
ATOM     28  C   UNL     1      -2.010  11.829  17.241  0.00  0.00    +0.000 C 
ATOM     29  N   UNL     1      -2.519  11.237  15.992  0.00  0.00    +0.000 NA
ATOM     30  C   UNL     1      -2.149   9.886  16.475  0.00  0.00    +0.000 C 
ATOM     31  H   UNL     1      -1.987  11.526  15.169  0.00  0.00    +0.000 HD
ENDBRANCH  25  27
ENDBRANCH  12  25
TORSDOF 3
ENDMDL
MODEL 9
REMARK VINA RESULT:      -7.2      3.365      7.562
REMARK  Name = 
REMARK  3 active torsions:
REMARK  status: ('A' for Active; 'I' for Inactive)
REMARK    1  A    between atoms: C_12  and  N_13
REMARK    2  A    between atoms: N_13  and  C_14
REMARK    3  A    between atoms: C_18  and  C_19
REMARK                            x       y       z     vdW  Elec       q    Type
REMARK                         _______ _______ _______ _____ _____    ______ ____
ROOT
ATOM      1  O   UNL     1       2.299  12.310  21.255  0.00  0.00    +0.000 OA
ATOM      2  C   UNL     1       1.492  12.654  20.392  0.00  0.00    +0.000 A 
ATOM      3  N   UNL     1       1.387  13.959  20.038  0.00  0.00    +0.000 N 
ATOM      4  C   UNL     1       0.516  14.418  19.098  0.00  0.00    +0.000 A 
ATOM      5  N   UNL     1       0.485  15.782  18.910  0.00  0.00    +0.000 N 
ATOM      6  C   UNL     1       1.690  16.628  18.873  0.00  0.00    +0.000 C 
ATOM      7  C   UNL     1       1.377  17.975  19.538  0.00  0.00    +0.000 C 
ATOM      8  O   UNL     1       0.279  18.630  18.882  0.00  0.00    +0.000 OA
ATOM      9  C   UNL     1      -0.899  17.802  18.918  0.00  0.00    +0.000 C 
ATOM     10  C   UNL     1      -0.656  16.439  18.246  0.00  0.00    +0.000 C 
ATOM     11  N   UNL     1      -0.254  13.597  18.453  0.00  0.00    +0.000 NA
ATOM     12  C   UNL     1      -0.166  12.235  18.678  0.00  0.00    +0.000 A 
ATOM     13  C   UNL     1       0.656  11.712  19.625  0.00  0.00    +0.000 A 
ATOM     14  H   UNL     1       1.928  14.601  20.585  0.00  0.00    +0.000 HD
ENDROOT
BRANCH  13  15
ATOM     15  C   UNL     1       0.877  10.281  19.841  0.00  0.00    +0.000 A 
ATOM     16  C   UNL     1       0.460   9.666  21.015  0.00  0.00    +0.000 A 
ATOM     17  C   UNL     1       0.813   8.337  21.224  0.00  0.00    +0.000 A 
ATOM     18  C   UNL     1       1.571   7.662  20.260  0.00  0.00    +0.000 A 
ATOM     19  C   UNL     1       2.069   6.366  20.478  0.00  0.00    +0.000 A 
ATOM     20  C   UNL     1       2.827   5.730  19.497  0.00  0.00    +0.000 A 
ATOM     21  C   UNL     1       3.047   6.363  18.280  0.00  0.00    +0.000 A 
ATOM     22  C   UNL     1       2.553   7.652  18.067  0.00  0.00    +0.000 A 
ATOM     23  C   UNL     1       1.853   8.333  19.053  0.00  0.00    +0.000 A 
ATOM     24  N   UNL     1       1.512   9.614  18.846  0.00  0.00    +0.000 NA
ENDBRANCH  13  15
BRANCH  12  25
ATOM     25  N   UNL     1      -0.834  11.446  17.734  0.00  0.00    +0.000 N 
ATOM     26  H   UNL     1      -0.326  11.645  16.871  0.00  0.00    +0.000 HD
BRANCH  25  27
ATOM     27  C   UNL     1      -2.244  11.488  17.378  0.00  0.00    +0.000 C 
ATOM     28  C   UNL     1      -2.801  10.083  17.072  0.00  0.00    +0.000 C 
ATOM     29  N   UNL     1      -4.033  10.422  17.805  0.00  0.00    +0.000 NA
ATOM     30  C   UNL     1      -3.341  11.563  18.450  0.00  0.00    +0.000 C 
ATOM     31  H   UNL     1      -4.312   9.698  18.469  0.00  0.00    +0.000 HD
ENDBRANCH  25  27
ENDBRANCH  12  25
TORSDOF 3
ENDMDL
