MODEL 1
REMARK VINA RESULT:      -8.3      0.000      0.000
REMARK  Name = 
REMARK  8 active torsions:
REMARK  status: ('A' for Active; 'I' for Inactive)
REMARK    1  A    between atoms: C_1  and  C_2
REMARK    2  A    between atoms: C_5  and  O_6
REMARK    3  A    between atoms: C_8  and  N_9
REMARK    4  A    between atoms: C_10  and  C_12
REMARK    5  A    between atoms: C_12  and  S_13
REMARK    6  A    between atoms: S_13  and  C_14
REMARK    7  A    between atoms: N_16  and  C_17
REMARK    8  A    between atoms: C_28  and  C_29
REMARK                            x       y       z     vdW  Elec       q    Type
REMARK                         _______ _______ _______ _____ _____    ______ ____
ROOT
ATOM      1  N   UNL     1       2.533   5.713  20.656  0.00  0.00    +0.000 N 
ATOM      2  C   UNL     1       1.832   4.520  20.623  0.00  0.00    +0.000 C 
ATOM      3  O   UNL     1       0.617   4.427  20.439  0.00  0.00    +0.000 OA
ATOM      4  H   UNL     1       3.540   5.695  20.790  0.00  0.00    +0.000 HD
ENDROOT
BRANCH   1  11
ATOM      5  C   UNL     1       0.201  11.401  19.492  0.00  0.00    +0.000 C 
ATOM      6  C   UNL     1       0.954  10.163  19.144  0.00  0.00    +0.000 A 
ATOM      7  N   UNL     1       1.564  10.034  17.911  0.00  0.00    +0.000 NA
ATOM      8  N   UNL     1       2.329   8.828  17.475  0.00  0.00    +0.000 NA
ATOM      9  C   UNL     1       2.464   7.723  18.236  0.00  0.00    +0.000 A 
ATOM     10  C   UNL     1       1.884   7.849  19.483  0.00  0.00    +0.000 A 
ATOM     11  C   UNL     1       1.933   6.956  20.531  0.00  0.00    +0.000 A 
ATOM     12  O   UNL     1       1.253   7.507  21.580  0.00  0.00    +0.000 OA
ATOM     13  C   UNL     1       0.777   8.740  21.205  0.00  0.00    +0.000 A 
ATOM     14  C   UNL     1      -0.012   9.457  22.235  0.00  0.00    +0.000 C 
ATOM     15  C   UNL     1       1.169   9.011  19.923  0.00  0.00    +0.000 A 
BRANCH   9  16
ATOM     16  O   UNL     1       3.198   6.645  17.822  0.00  0.00    +0.000 OA
ATOM     17  H   UNL     1       3.375   6.172  18.651  0.00  0.00    +0.000 HD
ENDBRANCH   9  16
ENDBRANCH   1  11
BRANCH   2  18
ATOM     18  C   UNL     1       2.630   3.216  20.815  0.00  0.00    +0.000 C 
BRANCH  18  19
ATOM     19  S   UNL     1       2.844   2.228  19.328  0.00  0.00    +0.000 S 
BRANCH  19  20
ATOM     20  C   UNL     1       4.000   3.112  18.374  0.00  0.00    +0.000 A 
ATOM     21  N   UNL     1       4.878   3.990  18.760  0.00  0.00    +0.000 NA
ATOM     22  N   UNL     1       5.591   4.465  17.638  0.00  0.00    +0.000 N 
ATOM     23  C   UNL     1       5.149   3.984  16.398  0.00  0.00    +0.000 A 
ATOM     24  S   UNL     1       5.512   4.449  14.834  0.00  0.00    +0.000 S 
ATOM     25  S   UNL     1       3.914   2.773  16.674  0.00  0.00    +0.000 S 
BRANCH  22  26
ATOM     26  C   UNL     1       6.558   5.502  17.854  0.00  0.00    +0.000 A 
ATOM     27  C   UNL     1       6.588   6.673  17.070  0.00  0.00    +0.000 A 
ATOM     28  C   UNL     1       7.400   7.763  17.402  0.00  0.00    +0.000 A 
ATOM     29  C   UNL     1       8.221   7.679  18.516  0.00  0.00    +0.000 A 
ATOM     30  F   UNL     1       8.950   8.741  18.878  0.00  0.00    +0.000 F 
ATOM     31  C   UNL     1       8.288   6.506  19.254  0.00  0.00    +0.000 A 
ATOM     32  C   UNL     1       7.472   5.414  18.917  0.00  0.00    +0.000 A 
ENDBRANCH  22  26
ENDBRANCH  19  20
ENDBRANCH  18  19
ENDBRANCH   2  18
TORSDOF 6
ENDMDL
MODEL 2
REMARK VINA RESULT:      -7.8      2.373      3.077
REMARK  Name = 
REMARK  8 active torsions:
REMARK  status: ('A' for Active; 'I' for Inactive)
REMARK    1  A    between atoms: C_1  and  C_2
REMARK    2  A    between atoms: C_5  and  O_6
REMARK    3  A    between atoms: C_8  and  N_9
REMARK    4  A    between atoms: C_10  and  C_12
REMARK    5  A    between atoms: C_12  and  S_13
REMARK    6  A    between atoms: S_13  and  C_14
REMARK    7  A    between atoms: N_16  and  C_17
REMARK    8  A    between atoms: C_28  and  C_29
REMARK                            x       y       z     vdW  Elec       q    Type
REMARK                         _______ _______ _______ _____ _____    ______ ____
ROOT
ATOM      1  N   UNL     1       2.452   6.030  20.532  0.00  0.00    +0.000 N 
ATOM      2  C   UNL     1       1.784   4.818  20.537  0.00  0.00    +0.000 C 
ATOM      3  O   UNL     1       0.559   4.695  20.485  0.00  0.00    +0.000 OA
ATOM      4  H   UNL     1       3.468   6.039  20.554  0.00  0.00    +0.000 HD
ENDROOT
BRANCH   1  11
ATOM      5  C   UNL     1      -0.082  11.711  19.862  0.00  0.00    +0.000 C 
ATOM      6  C   UNL     1       0.711  10.534  19.407  0.00  0.00    +0.000 A 
ATOM      7  N   UNL     1       1.315  10.531  18.165  0.00  0.00    +0.000 NA
ATOM      8  N   UNL     1       2.119   9.393  17.626  0.00  0.00    +0.000 NA
ATOM      9  C   UNL     1       2.297   8.234  18.290  0.00  0.00    +0.000 A 
ATOM     10  C   UNL     1       1.722   8.234  19.546  0.00  0.00    +0.000 A 
ATOM     11  C   UNL     1       1.809   7.258  20.515  0.00  0.00    +0.000 A 
ATOM     12  O   UNL     1       1.118   7.695  21.609  0.00  0.00    +0.000 OA
ATOM     13  C   UNL     1       0.597   8.938  21.342  0.00  0.00    +0.000 A 
ATOM     14  C   UNL     1      -0.208   9.538  22.432  0.00  0.00    +0.000 C 
ATOM     15  C   UNL     1       0.971   9.329  20.085  0.00  0.00    +0.000 A 
BRANCH   9  16
ATOM     16  O   UNL     1       3.065   7.221  17.784  0.00  0.00    +0.000 OA
ATOM     17  H   UNL     1       3.946   7.625  17.725  0.00  0.00    +0.000 HD
ENDBRANCH   9  16
ENDBRANCH   1  11
BRANCH   2  18
ATOM     18  C   UNL     1       2.634   3.534  20.597  0.00  0.00    +0.000 C 
BRANCH  18  19
ATOM     19  S   UNL     1       2.777   2.643  19.042  0.00  0.00    +0.000 S 
BRANCH  19  20
ATOM     20  C   UNL     1       4.048   3.460  18.180  0.00  0.00    +0.000 A 
ATOM     21  N   UNL     1       4.266   3.511  16.900  0.00  0.00    +0.000 NA
ATOM     22  N   UNL     1       5.427   4.274  16.651  0.00  0.00    +0.000 N 
ATOM     23  C   UNL     1       6.118   4.704  17.792  0.00  0.00    +0.000 A 
ATOM     24  S   UNL     1       7.630   5.392  17.980  0.00  0.00    +0.000 S 
ATOM     25  S   UNL     1       5.183   4.277  19.209  0.00  0.00    +0.000 S 
BRANCH  22  26
ATOM     26  C   UNL     1       5.875   4.382  15.292  0.00  0.00    +0.000 A 
ATOM     27  C   UNL     1       7.045   5.085  14.943  0.00  0.00    +0.000 A 
ATOM     28  C   UNL     1       7.583   5.028  13.652  0.00  0.00    +0.000 A 
ATOM     29  C   UNL     1       6.930   4.284  12.681  0.00  0.00    +0.000 A 
ATOM     30  F   UNL     1       7.473   4.170  11.464  0.00  0.00    +0.000 F 
ATOM     31  C   UNL     1       5.725   3.659  12.965  0.00  0.00    +0.000 A 
ATOM     32  C   UNL     1       5.188   3.719  14.262  0.00  0.00    +0.000 A 
ENDBRANCH  22  26
ENDBRANCH  19  20
ENDBRANCH  18  19
ENDBRANCH   2  18
TORSDOF 6
ENDMDL
MODEL 3
REMARK VINA RESULT:      -7.6      5.104      7.957
REMARK  Name = 
REMARK  8 active torsions:
REMARK  status: ('A' for Active; 'I' for Inactive)
REMARK    1  A    between atoms: C_1  and  C_2
REMARK    2  A    between atoms: C_5  and  O_6
REMARK    3  A    between atoms: C_8  and  N_9
REMARK    4  A    between atoms: C_10  and  C_12
REMARK    5  A    between atoms: C_12  and  S_13
REMARK    6  A    between atoms: S_13  and  C_14
REMARK    7  A    between atoms: N_16  and  C_17
REMARK    8  A    between atoms: C_28  and  C_29
REMARK                            x       y       z     vdW  Elec       q    Type
REMARK                         _______ _______ _______ _____ _____    ______ ____
ROOT
ATOM      1  N   UNL     1       9.297   9.253  19.094  0.00  0.00    +0.000 N 
ATOM      2  C   UNL     1       8.294   8.723  18.300  0.00  0.00    +0.000 C 
ATOM      3  O   UNL     1       7.669   9.356  17.448  0.00  0.00    +0.000 OA
ATOM      4  H   UNL     1       9.778   8.651  19.756  0.00  0.00    +0.000 HD
ENDROOT
BRANCH   1  11
ATOM      5  C   UNL     1      10.760  15.319  19.554  0.00  0.00    +0.000 C 
ATOM      6  C   UNL     1      10.302  14.006  20.089  0.00  0.00    +0.000 A 
ATOM      7  N   UNL     1       9.935  13.875  21.414  0.00  0.00    +0.000 NA
ATOM      8  N   UNL     1       9.474  12.597  22.035  0.00  0.00    +0.000 NA
ATOM      9  C   UNL     1       9.411  11.430  21.364  0.00  0.00    +0.000 A 
ATOM     10  C   UNL     1       9.747  11.552  20.030  0.00  0.00    +0.000 A 
ATOM     11  C   UNL     1       9.682  10.584  19.052  0.00  0.00    +0.000 A 
ATOM     12  O   UNL     1      10.074  11.156  17.875  0.00  0.00    +0.000 OA
ATOM     13  C   UNL     1      10.383  12.476  18.100  0.00  0.00    +0.000 A 
ATOM     14  C   UNL     1      10.854  13.229  16.914  0.00  0.00    +0.000 C 
ATOM     15  C   UNL     1      10.166  12.777  19.416  0.00  0.00    +0.000 A 
BRANCH   9  16
ATOM     16  O   UNL     1       8.954  10.282  21.952  0.00  0.00    +0.000 OA
ATOM     17  H   UNL     1       8.153  10.081  21.442  0.00  0.00    +0.000 HD
ENDBRANCH   9  16
ENDBRANCH   1  11
BRANCH   2  18
ATOM     18  C   UNL     1       7.948   7.233  18.486  0.00  0.00    +0.000 C 
BRANCH  18  19
ATOM     19  S   UNL     1       7.225   6.434  17.047  0.00  0.00    +0.000 S 
BRANCH  19  20
ATOM     20  C   UNL     1       5.521   6.363  17.392  0.00  0.00    +0.000 A 
ATOM     21  N   UNL     1       4.739   7.298  17.844  0.00  0.00    +0.000 NA
ATOM     22  N   UNL     1       3.432   6.785  17.992  0.00  0.00    +0.000 N 
ATOM     23  C   UNL     1       3.291   5.416  17.730  0.00  0.00    +0.000 A 
ATOM     24  S   UNL     1       2.029   4.356  18.011  0.00  0.00    +0.000 S 
ATOM     25  S   UNL     1       4.813   4.803  17.118  0.00  0.00    +0.000 S 
BRANCH  22  26
ATOM     26  C   UNL     1       2.436   7.652  18.554  0.00  0.00    +0.000 A 
ATOM     27  C   UNL     1       2.060   7.580  19.910  0.00  0.00    +0.000 A 
ATOM     28  C   UNL     1       1.237   8.547  20.500  0.00  0.00    +0.000 A 
ATOM     29  C   UNL     1       0.752   9.586  19.722  0.00  0.00    +0.000 A 
ATOM     30  F   UNL     1       0.020  10.549  20.293  0.00  0.00    +0.000 F 
ATOM     31  C   UNL     1       1.023   9.634  18.363  0.00  0.00    +0.000 A 
ATOM     32  C   UNL     1       1.849   8.663  17.774  0.00  0.00    +0.000 A 
ENDBRANCH  22  26
ENDBRANCH  19  20
ENDBRANCH  18  19
ENDBRANCH   2  18
TORSDOF 6
ENDMDL
MODEL 4
REMARK VINA RESULT:      -7.5      0.679      1.095
REMARK  Name = 
REMARK  8 active torsions:
REMARK  status: ('A' for Active; 'I' for Inactive)
REMARK    1  A    between atoms: C_1  and  C_2
REMARK    2  A    between atoms: C_5  and  O_6
REMARK    3  A    between atoms: C_8  and  N_9
REMARK    4  A    between atoms: C_10  and  C_12
REMARK    5  A    between atoms: C_12  and  S_13
REMARK    6  A    between atoms: S_13  and  C_14
REMARK    7  A    between atoms: N_16  and  C_17
REMARK    8  A    between atoms: C_28  and  C_29
REMARK                            x       y       z     vdW  Elec       q    Type
REMARK                         _______ _______ _______ _____ _____    ______ ____
ROOT
ATOM      1  N   UNL     1       2.144   6.291  21.185  0.00  0.00    +0.000 N 
ATOM      2  C   UNL     1       1.591   5.089  20.778  0.00  0.00    +0.000 C 
ATOM      3  O   UNL     1       0.605   4.985  20.047  0.00  0.00    +0.000 OA
ATOM      4  H   UNL     1       2.975   6.284  21.770  0.00  0.00    +0.000 HD
ENDROOT
BRANCH   1  11
ATOM      5  C   UNL     1       0.127  11.823  19.068  0.00  0.00    +0.000 C 
ATOM      6  C   UNL     1       0.798  10.498  18.933  0.00  0.00    +0.000 A 
ATOM      7  N   UNL     1       1.371  10.119  17.735  0.00  0.00    +0.000 NA
ATOM      8  N   UNL     1       2.054   8.810  17.509  0.00  0.00    +0.000 NA
ATOM      9  C   UNL     1       2.140   7.849  18.450  0.00  0.00    +0.000 A 
ATOM     10  C   UNL     1       1.596   8.226  19.662  0.00  0.00    +0.000 A 
ATOM     11  C   UNL     1       1.617   7.528  20.850  0.00  0.00    +0.000 A 
ATOM     12  O   UNL     1       0.994   8.295  21.794  0.00  0.00    +0.000 OA
ATOM     13  C   UNL     1       0.583   9.471  21.214  0.00  0.00    +0.000 A 
ATOM     14  C   UNL     1      -0.138  10.404  22.111  0.00  0.00    +0.000 C 
ATOM     15  C   UNL     1       0.962   9.489  19.900  0.00  0.00    +0.000 A 
BRANCH   9  16
ATOM     16  O   UNL     1       2.800   6.671  18.223  0.00  0.00    +0.000 OA
ATOM     17  H   UNL     1       2.175   6.176  17.669  0.00  0.00    +0.000 HD
ENDBRANCH   9  16
ENDBRANCH   1  11
BRANCH   2  18
ATOM     18  C   UNL     1       2.267   3.791  21.261  0.00  0.00    +0.000 C 
BRANCH  18  19
ATOM     19  S   UNL     1       2.608   2.585  19.972  0.00  0.00    +0.000 S 
BRANCH  19  20
ATOM     20  C   UNL     1       3.795   3.349  18.955  0.00  0.00    +0.000 A 
ATOM     21  N   UNL     1       4.533   4.391  19.201  0.00  0.00    +0.000 NA
ATOM     22  N   UNL     1       5.341   4.668  18.077  0.00  0.00    +0.000 N 
ATOM     23  C   UNL     1       5.108   3.860  16.956  0.00  0.00    +0.000 A 
ATOM     24  S   UNL     1       5.629   3.983  15.372  0.00  0.00    +0.000 S 
ATOM     25  S   UNL     1       3.961   2.612  17.393  0.00  0.00    +0.000 S 
BRANCH  22  26
ATOM     26  C   UNL     1       6.176   5.834  18.129  0.00  0.00    +0.000 A 
ATOM     27  C   UNL     1       7.361   5.873  18.891  0.00  0.00    +0.000 A 
ATOM     28  C   UNL     1       8.268   6.933  18.789  0.00  0.00    +0.000 A 
ATOM     29  C   UNL     1       7.980   7.990  17.940  0.00  0.00    +0.000 A 
ATOM     30  F   UNL     1       8.873   8.974  17.787  0.00  0.00    +0.000 F 
ATOM     31  C   UNL     1       6.778   8.030  17.249  0.00  0.00    +0.000 A 
ATOM     32  C   UNL     1       5.869   6.964  17.354  0.00  0.00    +0.000 A 
ENDBRANCH  22  26
ENDBRANCH  19  20
ENDBRANCH  18  19
ENDBRANCH   2  18
TORSDOF 6
ENDMDL
MODEL 5
REMARK VINA RESULT:      -7.2      5.496      7.899
REMARK  Name = 
REMARK  8 active torsions:
REMARK  status: ('A' for Active; 'I' for Inactive)
REMARK    1  A    between atoms: C_1  and  C_2
REMARK    2  A    between atoms: C_5  and  O_6
REMARK    3  A    between atoms: C_8  and  N_9
REMARK    4  A    between atoms: C_10  and  C_12
REMARK    5  A    between atoms: C_12  and  S_13
REMARK    6  A    between atoms: S_13  and  C_14
REMARK    7  A    between atoms: N_16  and  C_17
REMARK    8  A    between atoms: C_28  and  C_29
REMARK                            x       y       z     vdW  Elec       q    Type
REMARK                         _______ _______ _______ _____ _____    ______ ____
ROOT
ATOM      1  N   UNL     1       9.200   9.571  19.204  0.00  0.00    +0.000 N 
ATOM      2  C   UNL     1       8.272   9.410  18.190  0.00  0.00    +0.000 C 
ATOM      3  O   UNL     1       7.586  10.319  17.720  0.00  0.00    +0.000 OA
ATOM      4  H   UNL     1       9.741   8.769  19.516  0.00  0.00    +0.000 HD
ENDROOT
BRANCH   1  11
ATOM      5  C   UNL     1      10.737  15.141  21.604  0.00  0.00    +0.000 C 
ATOM      6  C   UNL     1      10.754  14.081  20.556  0.00  0.00    +0.000 A 
ATOM      7  N   UNL     1      11.488  14.249  19.398  0.00  0.00    +0.000 NA
ATOM      8  N   UNL     1      11.554  13.244  18.293  0.00  0.00    +0.000 NA
ATOM      9  C   UNL     1      10.863  12.087  18.305  0.00  0.00    +0.000 A 
ATOM     10  C   UNL     1      10.148  11.893  19.471  0.00  0.00    +0.000 A 
ATOM     11  C   UNL     1       9.431  10.778  19.845  0.00  0.00    +0.000 A 
ATOM     12  O   UNL     1       8.918  11.012  21.090  0.00  0.00    +0.000 OA
ATOM     13  C   UNL     1       9.307  12.263  21.505  0.00  0.00    +0.000 A 
ATOM     14  C   UNL     1       8.803  12.675  22.836  0.00  0.00    +0.000 C 
ATOM     15  C   UNL     1      10.097  12.836  20.548  0.00  0.00    +0.000 A 
BRANCH   9  16
ATOM     16  O   UNL     1      10.969  11.172  17.293  0.00  0.00    +0.000 OA
ATOM     17  H   UNL     1      10.452  10.420  17.626  0.00  0.00    +0.000 HD
ENDBRANCH   9  16
ENDBRANCH   1  11
BRANCH   2  18
ATOM     18  C   UNL     1       8.098   7.998  17.598  0.00  0.00    +0.000 C 
BRANCH  18  19
ATOM     19  S   UNL     1       8.188   6.656  18.790  0.00  0.00    +0.000 S 
BRANCH  19  20
ATOM     20  C   UNL     1       6.666   5.827  18.637  0.00  0.00    +0.000 A 
ATOM     21  N   UNL     1       5.826   5.482  19.567  0.00  0.00    +0.000 NA
ATOM     22  N   UNL     1       4.730   4.809  18.984  0.00  0.00    +0.000 N 
ATOM     23  C   UNL     1       4.832   4.579  17.605  0.00  0.00    +0.000 A 
ATOM     24  S   UNL     1       3.928   3.628  16.569  0.00  0.00    +0.000 S 
ATOM     25  S   UNL     1       6.268   5.384  17.007  0.00  0.00    +0.000 S 
BRANCH  22  26
ATOM     26  C   UNL     1       3.728   4.281  19.865  0.00  0.00    +0.000 A 
ATOM     27  C   UNL     1       2.508   4.947  20.095  0.00  0.00    +0.000 A 
ATOM     28  C   UNL     1       1.458   4.343  20.796  0.00  0.00    +0.000 A 
ATOM     29  C   UNL     1       1.633   3.066  21.306  0.00  0.00    +0.000 A 
ATOM     30  F   UNL     1       0.613   2.457  21.920  0.00  0.00    +0.000 F 
ATOM     31  C   UNL     1       2.854   2.420  21.182  0.00  0.00    +0.000 A 
ATOM     32  C   UNL     1       3.906   3.030  20.478  0.00  0.00    +0.000 A 
ENDBRANCH  22  26
ENDBRANCH  19  20
ENDBRANCH  18  19
ENDBRANCH   2  18
TORSDOF 6
ENDMDL
MODEL 6
REMARK VINA RESULT:      -7.2      4.697      8.394
REMARK  Name = 
REMARK  8 active torsions:
REMARK  status: ('A' for Active; 'I' for Inactive)
REMARK    1  A    between atoms: C_1  and  C_2
REMARK    2  A    between atoms: C_5  and  O_6
REMARK    3  A    between atoms: C_8  and  N_9
REMARK    4  A    between atoms: C_10  and  C_12
REMARK    5  A    between atoms: C_12  and  S_13
REMARK    6  A    between atoms: S_13  and  C_14
REMARK    7  A    between atoms: N_16  and  C_17
REMARK    8  A    between atoms: C_28  and  C_29
REMARK                            x       y       z     vdW  Elec       q    Type
REMARK                         _______ _______ _______ _____ _____    ______ ____
ROOT
ATOM      1  N   UNL     1       2.977   6.020  20.288  0.00  0.00    +0.000 N 
ATOM      2  C   UNL     1       2.179   7.142  20.140  0.00  0.00    +0.000 C 
ATOM      3  O   UNL     1       2.254   7.935  19.200  0.00  0.00    +0.000 OA
ATOM      4  H   UNL     1       2.831   5.406  21.084  0.00  0.00    +0.000 HD
ENDROOT
BRANCH   1  11
ATOM      5  C   UNL     1       7.100   4.072  16.003  0.00  0.00    +0.000 C 
ATOM      6  C   UNL     1       5.735   4.210  16.586  0.00  0.00    +0.000 A 
ATOM      7  N   UNL     1       4.645   3.623  15.972  0.00  0.00    +0.000 NA
ATOM      8  N   UNL     1       3.244   3.718  16.481  0.00  0.00    +0.000 NA
ATOM      9  C   UNL     1       2.901   4.427  17.575  0.00  0.00    +0.000 A 
ATOM     10  C   UNL     1       3.985   4.995  18.215  0.00  0.00    +0.000 A 
ATOM     11  C   UNL     1       3.994   5.684  19.408  0.00  0.00    +0.000 A 
ATOM     12  O   UNL     1       5.288   6.032  19.677  0.00  0.00    +0.000 OA
ATOM     13  C   UNL     1       6.095   5.567  18.667  0.00  0.00    +0.000 A 
ATOM     14  C   UNL     1       7.534   5.891  18.803  0.00  0.00    +0.000 C 
ATOM     15  C   UNL     1       5.336   4.890  17.752  0.00  0.00    +0.000 A 
BRANCH   9  16
ATOM     16  O   UNL     1       1.613   4.469  18.035  0.00  0.00    +0.000 OA
ATOM     17  H   UNL     1       1.098   4.612  17.224  0.00  0.00    +0.000 HD
ENDBRANCH   9  16
ENDBRANCH   1  11
BRANCH   2  18
ATOM     18  C   UNL     1       1.113   7.407  21.221  0.00  0.00    +0.000 C 
BRANCH  18  19
ATOM     19  S   UNL     1       1.162   9.048  21.952  0.00  0.00    +0.000 S 
BRANCH  19  20
ATOM     20  C   UNL     1       0.327  10.064  20.813  0.00  0.00    +0.000 A 
ATOM     21  N   UNL     1      -0.614   9.749  19.973  0.00  0.00    +0.000 NA
ATOM     22  N   UNL     1      -0.981  10.892  19.230  0.00  0.00    +0.000 N 
ATOM     23  C   UNL     1      -0.216  12.039  19.476  0.00  0.00    +0.000 A 
ATOM     24  S   UNL     1      -0.123  13.504  18.675  0.00  0.00    +0.000 S 
ATOM     25  S   UNL     1       0.881  11.709  20.800  0.00  0.00    +0.000 S 
BRANCH  22  26
ATOM     26  C   UNL     1      -1.960  10.725  18.194  0.00  0.00    +0.000 A 
ATOM     27  C   UNL     1      -3.172  11.443  18.187  0.00  0.00    +0.000 A 
ATOM     28  C   UNL     1      -4.034  11.426  17.084  0.00  0.00    +0.000 A 
ATOM     29  C   UNL     1      -3.702  10.656  15.980  0.00  0.00    +0.000 A 
ATOM     30  F   UNL     1      -4.486  10.686  14.897  0.00  0.00    +0.000 F 
ATOM     31  C   UNL     1      -2.565   9.861  15.992  0.00  0.00    +0.000 A 
ATOM     32  C   UNL     1      -1.703   9.882  17.101  0.00  0.00    +0.000 A 
ENDBRANCH  22  26
ENDBRANCH  19  20
ENDBRANCH  18  19
ENDBRANCH   2  18
TORSDOF 6
ENDMDL
MODEL 7
REMARK VINA RESULT:      -7.0      4.819      8.493
REMARK  Name = 
REMARK  8 active torsions:
REMARK  status: ('A' for Active; 'I' for Inactive)
REMARK    1  A    between atoms: C_1  and  C_2
REMARK    2  A    between atoms: C_5  and  O_6
REMARK    3  A    between atoms: C_8  and  N_9
REMARK    4  A    between atoms: C_10  and  C_12
REMARK    5  A    between atoms: C_12  and  S_13
REMARK    6  A    between atoms: S_13  and  C_14
REMARK    7  A    between atoms: N_16  and  C_17
REMARK    8  A    between atoms: C_28  and  C_29
REMARK                            x       y       z     vdW  Elec       q    Type
REMARK                         _______ _______ _______ _____ _____    ______ ____
ROOT
ATOM      1  N   UNL     1       1.895   6.387  20.703  0.00  0.00    +0.000 N 
ATOM      2  C   UNL     1       1.457   7.700  20.714  0.00  0.00    +0.000 C 
ATOM      3  O   UNL     1       1.659   8.512  19.810  0.00  0.00    +0.000 OA
ATOM      4  H   UNL     1       1.662   5.778  21.483  0.00  0.00    +0.000 HD
ENDROOT
BRANCH   1  11
ATOM      5  C   UNL     1       4.997   3.329  16.212  0.00  0.00    +0.000 C 
ATOM      6  C   UNL     1       3.909   3.492  17.218  0.00  0.00    +0.000 A 
ATOM      7  N   UNL     1       2.979   2.491  17.416  0.00  0.00    +0.000 NA
ATOM      8  N   UNL     1       1.853   2.575  18.395  0.00  0.00    +0.000 NA
ATOM      9  C   UNL     1       1.612   3.662  19.154  0.00  0.00    +0.000 A 
ATOM     10  C   UNL     1       2.552   4.660  18.986  0.00  0.00    +0.000 A 
ATOM     11  C   UNL     1       2.659   5.844  19.683  0.00  0.00    +0.000 A 
ATOM     12  O   UNL     1       3.757   6.506  19.211  0.00  0.00    +0.000 OA
ATOM     13  C   UNL     1       4.345   5.751  18.224  0.00  0.00    +0.000 A 
ATOM     14  C   UNL     1       5.541   6.353  17.590  0.00  0.00    +0.000 C 
ATOM     15  C   UNL     1       3.651   4.582  18.071  0.00  0.00    +0.000 A 
BRANCH   9  16
ATOM     16  O   UNL     1       0.591   3.697  20.064  0.00  0.00    +0.000 OA
ATOM     17  H   UNL     1       0.990   4.157  20.820  0.00  0.00    +0.000 HD
ENDBRANCH   9  16
ENDBRANCH   1  11
BRANCH   2  18
ATOM     18  C   UNL     1       0.646   8.173  21.936  0.00  0.00    +0.000 C 
BRANCH  18  19
ATOM     19  S   UNL     1       0.810   9.919  22.329  0.00  0.00    +0.000 S 
BRANCH  19  20
ATOM     20  C   UNL     1       0.045  10.744  21.001  0.00  0.00    +0.000 A 
ATOM     21  N   UNL     1      -0.835  10.293  20.157  0.00  0.00    +0.000 NA
ATOM     22  N   UNL     1      -1.162  11.308  19.232  0.00  0.00    +0.000 N 
ATOM     23  C   UNL     1      -0.424  12.493  19.357  0.00  0.00    +0.000 A 
ATOM     24  S   UNL     1      -0.292  13.828  18.359  0.00  0.00    +0.000 S 
ATOM     25  S   UNL     1       0.584  12.379  20.785  0.00  0.00    +0.000 S 
BRANCH  22  26
ATOM     26  C   UNL     1      -2.066  10.974  18.170  0.00  0.00    +0.000 A 
ATOM     27  C   UNL     1      -3.315  11.610  18.023  0.00  0.00    +0.000 A 
ATOM     28  C   UNL     1      -4.108  11.425  16.885  0.00  0.00    +0.000 A 
ATOM     29  C   UNL     1      -3.669  10.569  15.888  0.00  0.00    +0.000 A 
ATOM     30  F   UNL     1      -4.389  10.438  14.768  0.00  0.00    +0.000 F 
ATOM     31  C   UNL     1      -2.491   9.852  16.044  0.00  0.00    +0.000 A 
ATOM     32  C   UNL     1      -1.698  10.041  17.187  0.00  0.00    +0.000 A 
ENDBRANCH  22  26
ENDBRANCH  19  20
ENDBRANCH  18  19
ENDBRANCH   2  18
TORSDOF 6
ENDMDL
MODEL 8
REMARK VINA RESULT:      -6.9      5.610      9.094
REMARK  Name = 
REMARK  8 active torsions:
REMARK  status: ('A' for Active; 'I' for Inactive)
REMARK    1  A    between atoms: C_1  and  C_2
REMARK    2  A    between atoms: C_5  and  O_6
REMARK    3  A    between atoms: C_8  and  N_9
REMARK    4  A    between atoms: C_10  and  C_12
REMARK    5  A    between atoms: C_12  and  S_13
REMARK    6  A    between atoms: S_13  and  C_14
REMARK    7  A    between atoms: N_16  and  C_17
REMARK    8  A    between atoms: C_28  and  C_29
REMARK                            x       y       z     vdW  Elec       q    Type
REMARK                         _______ _______ _______ _____ _____    ______ ____
ROOT
ATOM      1  N   UNL     1       0.019   8.547  21.460  0.00  0.00    +0.000 N 
ATOM      2  C   UNL     1       0.328   9.631  22.263  0.00  0.00    +0.000 C 
ATOM      3  O   UNL     1       1.442  10.153  22.334  0.00  0.00    +0.000 OA
ATOM      4  H   UNL     1      -0.934   8.195  21.444  0.00  0.00    +0.000 HD
ENDROOT
BRANCH   1  11
ATOM      5  C   UNL     1       4.099   6.078  17.409  0.00  0.00    +0.000 C 
ATOM      6  C   UNL     1       3.188   7.145  17.913  0.00  0.00    +0.000 A 
ATOM      7  N   UNL     1       3.007   8.312  17.197  0.00  0.00    +0.000 NA
ATOM      8  N   UNL     1       2.122   9.435  17.631  0.00  0.00    +0.000 NA
ATOM      9  C   UNL     1       1.441   9.431  18.795  0.00  0.00    +0.000 A 
ATOM     10  C   UNL     1       1.589   8.257  19.507  0.00  0.00    +0.000 A 
ATOM     11  C   UNL     1       0.949   7.890  20.671  0.00  0.00    +0.000 A 
ATOM     12  O   UNL     1       1.372   6.633  20.998  0.00  0.00    +0.000 OA
ATOM     13  C   UNL     1       2.271   6.202  20.052  0.00  0.00    +0.000 A 
ATOM     14  C   UNL     1       2.844   4.856  20.285  0.00  0.00    +0.000 C 
ATOM     15  C   UNL     1       2.414   7.163  19.089  0.00  0.00    +0.000 A 
BRANCH   9  16
ATOM     16  O   UNL     1       0.613  10.461  19.150  0.00  0.00    +0.000 OA
ATOM     17  H   UNL     1       1.176  11.243  19.034  0.00  0.00    +0.000 HD
ENDBRANCH   9  16
ENDBRANCH   1  11
BRANCH   2  18
ATOM     18  C   UNL     1      -0.804  10.236  23.115  0.00  0.00    +0.000 C 
BRANCH  18  19
ATOM     19  S   UNL     1      -1.053  12.004  22.906  0.00  0.00    +0.000 S 
BRANCH  19  20
ATOM     20  C   UNL     1      -2.222  12.137  21.624  0.00  0.00    +0.000 A 
ATOM     21  N   UNL     1      -2.132  11.733  20.391  0.00  0.00    +0.000 NA
ATOM     22  N   UNL     1      -3.316  12.070  19.700  0.00  0.00    +0.000 N 
ATOM     23  C   UNL     1      -4.244  12.823  20.431  0.00  0.00    +0.000 A 
ATOM     24  S   UNL     1      -5.626  13.640  19.962  0.00  0.00    +0.000 S 
ATOM     25  S   UNL     1      -3.679  12.960  22.083  0.00  0.00    +0.000 S 
BRANCH  22  26
ATOM     26  C   UNL     1      -3.375  11.772  18.298  0.00  0.00    +0.000 A 
ATOM     27  C   UNL     1      -2.217  11.512  17.538  0.00  0.00    +0.000 A 
ATOM     28  C   UNL     1      -2.289  11.034  16.224  0.00  0.00    +0.000 A 
ATOM     29  C   UNL     1      -3.532  10.840  15.643  0.00  0.00    +0.000 A 
ATOM     30  F   UNL     1      -3.610  10.321  14.412  0.00  0.00    +0.000 F 
ATOM     31  C   UNL     1      -4.690  11.178  16.328  0.00  0.00    +0.000 A 
ATOM     32  C   UNL     1      -4.614  11.657  17.646  0.00  0.00    +0.000 A 
ENDBRANCH  22  26
ENDBRANCH  19  20
ENDBRANCH  18  19
ENDBRANCH   2  18
TORSDOF 6
ENDMDL
MODEL 9
REMARK VINA RESULT:      -6.9      3.544      5.300
REMARK  Name = 
REMARK  8 active torsions:
REMARK  status: ('A' for Active; 'I' for Inactive)
REMARK    1  A    between atoms: C_1  and  C_2
REMARK    2  A    between atoms: C_5  and  O_6
REMARK    3  A    between atoms: C_8  and  N_9
REMARK    4  A    between atoms: C_10  and  C_12
REMARK    5  A    between atoms: C_12  and  S_13
REMARK    6  A    between atoms: S_13  and  C_14
REMARK    7  A    between atoms: N_16  and  C_17
REMARK    8  A    between atoms: C_28  and  C_29
REMARK                            x       y       z     vdW  Elec       q    Type
REMARK                         _______ _______ _______ _____ _____    ______ ____
ROOT
ATOM      1  N   UNL     1       0.948  10.915  20.355  0.00  0.00    +0.000 N 
ATOM      2  C   UNL     1       0.625   9.983  19.384  0.00  0.00    +0.000 C 
ATOM      3  O   UNL     1      -0.366  10.047  18.655  0.00  0.00    +0.000 OA
ATOM      4  H   UNL     1       1.800  10.797  20.895  0.00  0.00    +0.000 HD
ENDROOT
BRANCH   1  11
ATOM      5  C   UNL     1      -2.995  15.442  22.119  0.00  0.00    +0.000 C 
ATOM      6  C   UNL     1      -2.385  14.085  22.208  0.00  0.00    +0.000 A 
ATOM      7  N   UNL     1      -2.835  13.171  23.140  0.00  0.00    +0.000 NA
ATOM      8  N   UNL     1      -2.276  11.795  23.304  0.00  0.00    +0.000 NA
ATOM      9  C   UNL     1      -1.242  11.326  22.578  0.00  0.00    +0.000 A 
ATOM     10  C   UNL     1      -0.801  12.220  21.622  0.00  0.00    +0.000 A 
ATOM     11  C   UNL     1       0.157  12.014  20.653  0.00  0.00    +0.000 A 
ATOM     12  O   UNL     1       0.244  13.154  19.905  0.00  0.00    +0.000 OA
ATOM     13  C   UNL     1      -0.651  14.077  20.391  0.00  0.00    +0.000 A 
ATOM     14  C   UNL     1      -0.657  15.385  19.696  0.00  0.00    +0.000 C 
ATOM     15  C   UNL     1      -1.345  13.532  21.437  0.00  0.00    +0.000 A 
BRANCH   9  16
ATOM     16  O   UNL     1      -0.772  10.049  22.729  0.00  0.00    +0.000 OA
ATOM     17  H   UNL     1      -1.326   9.541  22.114  0.00  0.00    +0.000 HD
ENDBRANCH   9  16
ENDBRANCH   1  11
BRANCH   2  18
ATOM     18  C   UNL     1       1.583   8.791  19.191  0.00  0.00    +0.000 C 
BRANCH  18  19
ATOM     19  S   UNL     1       1.619   7.616  20.550  0.00  0.00    +0.000 S 
BRANCH  19  20
ATOM     20  C   UNL     1       2.532   6.265  19.942  0.00  0.00    +0.000 A 
ATOM     21  N   UNL     1       3.449   6.247  19.021  0.00  0.00    +0.000 NA
ATOM     22  N   UNL     1       3.905   4.924  18.838  0.00  0.00    +0.000 N 
ATOM     23  C   UNL     1       3.227   3.948  19.582  0.00  0.00    +0.000 A 
ATOM     24  S   UNL     1       3.249   2.278  19.501  0.00  0.00    +0.000 S 
ATOM     25  S   UNL     1       2.105   4.746  20.663  0.00  0.00    +0.000 S 
BRANCH  22  26
ATOM     26  C   UNL     1       4.870   4.689  17.803  0.00  0.00    +0.000 A 
ATOM     27  C   UNL     1       4.496   4.502  16.458  0.00  0.00    +0.000 A 
ATOM     28  C   UNL     1       5.441   4.467  15.427  0.00  0.00    +0.000 A 
ATOM     29  C   UNL     1       6.786   4.588  15.739  0.00  0.00    +0.000 A 
ATOM     30  F   UNL     1       7.690   4.622  14.754  0.00  0.00    +0.000 F 
ATOM     31  C   UNL     1       7.196   4.676  17.061  0.00  0.00    +0.000 A 
ATOM     32  C   UNL     1       6.245   4.711  18.093  0.00  0.00    +0.000 A 
ENDBRANCH  22  26
ENDBRANCH  19  20
ENDBRANCH  18  19
ENDBRANCH   2  18
TORSDOF 6
ENDMDL
