MODEL 1
REMARK VINA RESULT:      -8.0      0.000      0.000
REMARK  Name = 
REMARK  3 active torsions:
REMARK  status: ('A' for Active; 'I' for Inactive)
REMARK    1  A    between atoms: C_2  and  C_10
REMARK    2  A    between atoms: C_15  and  S_16
REMARK    3  A    between atoms: S_16  and  N_19
REMARK                            x       y       z     vdW  Elec       q    Type
REMARK                         _______ _______ _______ _____ _____    ______ ____
ROOT
ATOM      1  C   UNL     1       2.488   7.019  19.163  0.00  0.00    +0.000 A 
ATOM      2  C   UNL     1       1.979   6.419  20.318  0.00  0.00    +0.000 A 
ATOM      3  C   UNL     1       1.138   7.156  21.160  0.00  0.00    +0.000 A 
ATOM      4  C   UNL     1       0.783   8.483  20.853  0.00  0.00    +0.000 A 
ATOM      5 CL   UNL     1      -0.322   9.217  21.953  0.00  0.00    +0.000 Cl
ATOM      6  C   UNL     1       1.298   9.081  19.698  0.00  0.00    +0.000 A 
ATOM      7  C   UNL     1       2.175   8.347  18.869  0.00  0.00    +0.000 A 
ENDROOT
BRANCH   1   9
ATOM      8  O   UNL     1       2.622   5.247  17.685  0.00  0.00    +0.000 OA
ATOM      9  C   UNL     1       3.222   6.182  18.197  0.00  0.00    +0.000 C 
ATOM     10  N   UNL     1       4.547   6.515  17.993  0.00  0.00    +0.000 N 
ATOM     11  C   UNL     1       5.355   5.762  17.134  0.00  0.00    +0.000 A 
ATOM     12  C   UNL     1       4.889   5.339  15.892  0.00  0.00    +0.000 A 
ATOM     13  C   UNL     1       5.694   4.505  15.124  0.00  0.00    +0.000 A 
ATOM     14  C   UNL     1       6.922   4.107  15.629  0.00  0.00    +0.000 A 
ATOM     15  C   UNL     1       7.319   4.611  16.858  0.00  0.00    +0.000 A 
ATOM     16  N   UNL     1       6.580   5.465  17.603  0.00  0.00    +0.000 NA
ATOM     17  H   UNL     1       5.058   6.947  18.752  0.00  0.00    +0.000 HD
ENDBRANCH   1   9
BRANCH   6  18
ATOM     18  S   UNL     1       1.000  10.776  19.220  0.00  0.00    +0.000 S 
ATOM     19  O   UNL     1       1.132  11.637  20.371  0.00  0.00    +0.000 OA
ATOM     20  O   UNL     1       1.820  11.012  18.048  0.00  0.00    +0.000 OA
BRANCH  18  21
ATOM     21  N   UNL     1      -0.640  10.784  18.711  0.00  0.00    +0.000 NA
ATOM     22  C   UNL     1      -1.369  12.063  18.812  0.00  0.00    +0.000 C 
ATOM     23  C   UNL     1      -2.842  11.899  19.176  0.00  0.00    +0.000 C 
ATOM     24  C   UNL     1      -3.736  11.599  17.981  0.00  0.00    +0.000 C 
ATOM     25  C   UNL     1      -3.511  10.207  17.417  0.00  0.00    +0.000 C 
ATOM     26  C   UNL     1      -2.149  10.069  16.754  0.00  0.00    +0.000 C 
ATOM     27  C   UNL     1      -1.003   9.763  17.704  0.00  0.00    +0.000 C 
ENDBRANCH  18  21
ENDBRANCH   6  18
TORSDOF 3
ENDMDL
MODEL 2
REMARK VINA RESULT:      -7.7      2.704      3.492
REMARK  Name = 
REMARK  3 active torsions:
REMARK  status: ('A' for Active; 'I' for Inactive)
REMARK    1  A    between atoms: C_2  and  C_10
REMARK    2  A    between atoms: C_15  and  S_16
REMARK    3  A    between atoms: S_16  and  N_19
REMARK                            x       y       z     vdW  Elec       q    Type
REMARK                         _______ _______ _______ _____ _____    ______ ____
ROOT
ATOM      1  C   UNL     1       0.970   9.024  20.822  0.00  0.00    +0.000 A 
ATOM      2  C   UNL     1       0.685   8.851  22.178  0.00  0.00    +0.000 A 
ATOM      3  C   UNL     1      -0.132   9.780  22.832  0.00  0.00    +0.000 A 
ATOM      4  C   UNL     1      -0.685  10.875  22.141  0.00  0.00    +0.000 A 
ATOM      5 CL   UNL     1      -1.731  11.876  23.076  0.00  0.00    +0.000 Cl
ATOM      6  C   UNL     1      -0.394  11.046  20.783  0.00  0.00    +0.000 A 
ATOM      7  C   UNL     1       0.460  10.127  20.135  0.00  0.00    +0.000 A 
ENDROOT
BRANCH   1   9
ATOM      8  O   UNL     1       2.106   8.197  18.987  0.00  0.00    +0.000 OA
ATOM      9  C   UNL     1       1.679   7.948  20.105  0.00  0.00    +0.000 C 
ATOM     10  N   UNL     1       1.756   6.734  20.760  0.00  0.00    +0.000 N 
ATOM     11  C   UNL     1       2.364   5.628  20.157  0.00  0.00    +0.000 A 
ATOM     12  C   UNL     1       3.570   5.751  19.474  0.00  0.00    +0.000 A 
ATOM     13  C   UNL     1       4.076   4.643  18.803  0.00  0.00    +0.000 A 
ATOM     14  C   UNL     1       3.353   3.460  18.821  0.00  0.00    +0.000 A 
ATOM     15  C   UNL     1       2.181   3.420  19.562  0.00  0.00    +0.000 A 
ATOM     16  N   UNL     1       1.692   4.467  20.266  0.00  0.00    +0.000 NA
ATOM     17  H   UNL     1       1.016   6.486  21.405  0.00  0.00    +0.000 HD
ENDBRANCH   1   9
BRANCH   6  18
ATOM     18  S   UNL     1      -0.959  12.425  19.797  0.00  0.00    +0.000 S 
ATOM     19  O   UNL     1      -0.756  13.657  20.521  0.00  0.00    +0.000 OA
ATOM     20  O   UNL     1      -0.359  12.252  18.488  0.00  0.00    +0.000 OA
BRANCH  18  21
ATOM     21  N   UNL     1      -2.646  12.154  19.629  0.00  0.00    +0.000 NA
ATOM     22  C   UNL     1      -3.549  13.108  20.302  0.00  0.00    +0.000 C 
ATOM     23  C   UNL     1      -4.821  12.463  20.846  0.00  0.00    +0.000 C 
ATOM     24  C   UNL     1      -5.921  12.310  19.806  0.00  0.00    +0.000 C 
ATOM     25  C   UNL     1      -5.595  11.259  18.759  0.00  0.00    +0.000 C 
ATOM     26  C   UNL     1      -4.449  11.686  17.854  0.00  0.00    +0.000 C 
ATOM     27  C   UNL     1      -3.060  11.422  18.412  0.00  0.00    +0.000 C 
ENDBRANCH  18  21
ENDBRANCH   6  18
TORSDOF 3
ENDMDL
MODEL 3
REMARK VINA RESULT:      -7.7      0.252      1.223
REMARK  Name = 
REMARK  3 active torsions:
REMARK  status: ('A' for Active; 'I' for Inactive)
REMARK    1  A    between atoms: C_2  and  C_10
REMARK    2  A    between atoms: C_15  and  S_16
REMARK    3  A    between atoms: S_16  and  N_19
REMARK                            x       y       z     vdW  Elec       q    Type
REMARK                         _______ _______ _______ _____ _____    ______ ____
ROOT
ATOM      1  C   UNL     1       2.474   7.216  19.138  0.00  0.00    +0.000 A 
ATOM      2  C   UNL     1       1.924   6.684  20.307  0.00  0.00    +0.000 A 
ATOM      3  C   UNL     1       1.084   7.480  21.094  0.00  0.00    +0.000 A 
ATOM      4  C   UNL     1       0.771   8.800  20.718  0.00  0.00    +0.000 A 
ATOM      5 CL   UNL     1      -0.339   9.612  21.756  0.00  0.00    +0.000 Cl
ATOM      6  C   UNL     1       1.327   9.330  19.548  0.00  0.00    +0.000 A 
ATOM      7  C   UNL     1       2.202   8.536  18.775  0.00  0.00    +0.000 A 
ENDROOT
BRANCH   1   9
ATOM      8  O   UNL     1       2.624   5.320  17.824  0.00  0.00    +0.000 OA
ATOM      9  C   UNL     1       3.207   6.316  18.229  0.00  0.00    +0.000 C 
ATOM     10  N   UNL     1       4.514   6.669  17.953  0.00  0.00    +0.000 N 
ATOM     11  C   UNL     1       5.320   5.866  17.141  0.00  0.00    +0.000 A 
ATOM     12  C   UNL     1       4.833   5.316  15.958  0.00  0.00    +0.000 A 
ATOM     13  C   UNL     1       5.643   4.439  15.244  0.00  0.00    +0.000 A 
ATOM     14  C   UNL     1       6.898   4.128  15.743  0.00  0.00    +0.000 A 
ATOM     15  C   UNL     1       7.314   4.755  16.908  0.00  0.00    +0.000 A 
ATOM     16  N   UNL     1       6.569   5.651  17.595  0.00  0.00    +0.000 NA
ATOM     17  H   UNL     1       5.032   7.185  18.653  0.00  0.00    +0.000 HD
ENDBRANCH   1   9
BRANCH   6  18
ATOM     18  S   UNL     1       1.083  11.008  18.985  0.00  0.00    +0.000 S 
ATOM     19  O   UNL     1       1.205  11.918  20.099  0.00  0.00    +0.000 OA
ATOM     20  O   UNL     1       1.940  11.169  17.827  0.00  0.00    +0.000 OA
BRANCH  18  21
ATOM     21  N   UNL     1      -0.542  11.030  18.430  0.00  0.00    +0.000 NA
ATOM     22  C   UNL     1      -1.071   9.780  17.852  0.00  0.00    +0.000 C 
ATOM     23  C   UNL     1      -2.046  10.005  16.700  0.00  0.00    +0.000 C 
ATOM     24  C   UNL     1      -3.472  10.281  17.153  0.00  0.00    +0.000 C 
ATOM     25  C   UNL     1      -3.624  11.641  17.813  0.00  0.00    +0.000 C 
ATOM     26  C   UNL     1      -2.914  11.709  19.158  0.00  0.00    +0.000 C 
ATOM     27  C   UNL     1      -1.428  12.018  19.082  0.00  0.00    +0.000 C 
ENDBRANCH  18  21
ENDBRANCH   6  18
TORSDOF 3
ENDMDL
MODEL 4
REMARK VINA RESULT:      -7.7      2.308      3.052
REMARK  Name = 
REMARK  3 active torsions:
REMARK  status: ('A' for Active; 'I' for Inactive)
REMARK    1  A    between atoms: C_2  and  C_10
REMARK    2  A    between atoms: C_15  and  S_16
REMARK    3  A    between atoms: S_16  and  N_19
REMARK                            x       y       z     vdW  Elec       q    Type
REMARK                         _______ _______ _______ _____ _____    ______ ____
ROOT
ATOM      1  C   UNL     1       1.345   8.423  20.583  0.00  0.00    +0.000 A 
ATOM      2  C   UNL     1       0.780   8.206  21.842  0.00  0.00    +0.000 A 
ATOM      3  C   UNL     1      -0.075   9.171  22.386  0.00  0.00    +0.000 A 
ATOM      4  C   UNL     1      -0.388  10.347  21.679  0.00  0.00    +0.000 A 
ATOM      5 CL   UNL     1      -1.516  11.391  22.458  0.00  0.00    +0.000 Cl
ATOM      6  C   UNL     1       0.183  10.563  20.419  0.00  0.00    +0.000 A 
ATOM      7  C   UNL     1       1.073   9.604  19.888  0.00  0.00    +0.000 A 
ENDROOT
BRANCH   1   9
ATOM      8  O   UNL     1       2.469   7.489  18.793  0.00  0.00    +0.000 OA
ATOM      9  C   UNL     1       2.095   7.325  19.945  0.00  0.00    +0.000 C 
ATOM     10  N   UNL     1       2.267   6.187  20.710  0.00  0.00    +0.000 N 
ATOM     11  C   UNL     1       2.922   5.065  20.192  0.00  0.00    +0.000 A 
ATOM     12  C   UNL     1       4.095   5.190  19.455  0.00  0.00    +0.000 A 
ATOM     13  C   UNL     1       4.646   4.053  18.874  0.00  0.00    +0.000 A 
ATOM     14  C   UNL     1       3.998   2.838  19.032  0.00  0.00    +0.000 A 
ATOM     15  C   UNL     1       2.855   2.803  19.817  0.00  0.00    +0.000 A 
ATOM     16  N   UNL     1       2.326   3.883  20.437  0.00  0.00    +0.000 NA
ATOM     17  H   UNL     1       1.565   5.962  21.403  0.00  0.00    +0.000 HD
ENDBRANCH   1   9
BRANCH   6  18
ATOM     18  S   UNL     1      -0.059  12.037  19.440  0.00  0.00    +0.000 S 
ATOM     19  O   UNL     1      -0.283  13.168  20.309  0.00  0.00    +0.000 OA
ATOM     20  O   UNL     1       1.033  12.068  18.487  0.00  0.00    +0.000 OA
BRANCH  18  21
ATOM     21  N   UNL     1      -1.500  11.723  18.561  0.00  0.00    +0.000 NA
ATOM     22  C   UNL     1      -1.560  10.461  17.798  0.00  0.00    +0.000 C 
ATOM     23  C   UNL     1      -2.332  10.577  16.487  0.00  0.00    +0.000 C 
ATOM     24  C   UNL     1      -3.838  10.432  16.651  0.00  0.00    +0.000 C 
ATOM     25  C   UNL     1      -4.466  11.619  17.360  0.00  0.00    +0.000 C 
ATOM     26  C   UNL     1      -4.059  11.695  18.824  0.00  0.00    +0.000 C 
ATOM     27  C   UNL     1      -2.723  12.371  19.083  0.00  0.00    +0.000 C 
ENDBRANCH  18  21
ENDBRANCH   6  18
TORSDOF 3
ENDMDL
MODEL 5
REMARK VINA RESULT:      -7.6      1.983      2.804
REMARK  Name = 
REMARK  3 active torsions:
REMARK  status: ('A' for Active; 'I' for Inactive)
REMARK    1  A    between atoms: C_2  and  C_10
REMARK    2  A    between atoms: C_15  and  S_16
REMARK    3  A    between atoms: S_16  and  N_19
REMARK                            x       y       z     vdW  Elec       q    Type
REMARK                         _______ _______ _______ _____ _____    ______ ____
ROOT
ATOM      1  C   UNL     1       1.058   8.720  20.878  0.00  0.00    +0.000 A 
ATOM      2  C   UNL     1       0.772   8.620  22.242  0.00  0.00    +0.000 A 
ATOM      3  C   UNL     1       0.035   9.634  22.865  0.00  0.00    +0.000 A 
ATOM      4  C   UNL     1      -0.438  10.742  22.136  0.00  0.00    +0.000 A 
ATOM      5 CL   UNL     1      -1.395  11.856  23.038  0.00  0.00    +0.000 Cl
ATOM      6  C   UNL     1      -0.147  10.839  20.771  0.00  0.00    +0.000 A 
ATOM      7  C   UNL     1       0.628   9.833  20.153  0.00  0.00    +0.000 A 
ENDROOT
BRANCH   1   9
ATOM      8  O   UNL     1       1.701   6.501  20.800  0.00  0.00    +0.000 OA
ATOM      9  C   UNL     1       1.675   7.566  20.199  0.00  0.00    +0.000 C 
ATOM     10  N   UNL     1       2.209   7.815  18.949  0.00  0.00    +0.000 N 
ATOM     11  C   UNL     1       2.862   6.808  18.232  0.00  0.00    +0.000 A 
ATOM     12  C   UNL     1       2.337   5.521  18.154  0.00  0.00    +0.000 A 
ATOM     13  C   UNL     1       3.079   4.532  17.518  0.00  0.00    +0.000 A 
ATOM     14  C   UNL     1       4.323   4.856  17.000  0.00  0.00    +0.000 A 
ATOM     15  C   UNL     1       4.747   6.173  17.088  0.00  0.00    +0.000 A 
ATOM     16  N   UNL     1       4.023   7.167  17.655  0.00  0.00    +0.000 NA
ATOM     17  H   UNL     1       2.559   8.744  18.751  0.00  0.00    +0.000 HD
ENDBRANCH   1   9
BRANCH   6  18
ATOM     18  S   UNL     1      -0.611  12.219  19.736  0.00  0.00    +0.000 S 
ATOM     19  O   UNL     1      -0.348  13.458  20.427  0.00  0.00    +0.000 OA
ATOM     20  O   UNL     1      -0.002  11.973  18.443  0.00  0.00    +0.000 OA
BRANCH  18  21
ATOM     21  N   UNL     1      -2.310  12.045  19.545  0.00  0.00    +0.000 NA
ATOM     22  C   UNL     1      -3.164  13.080  20.159  0.00  0.00    +0.000 C 
ATOM     23  C   UNL     1      -4.483  12.538  20.704  0.00  0.00    +0.000 C 
ATOM     24  C   UNL     1      -5.571  12.407  19.650  0.00  0.00    +0.000 C 
ATOM     25  C   UNL     1      -5.292  11.292  18.656  0.00  0.00    +0.000 C 
ATOM     26  C   UNL     1      -4.106  11.609  17.757  0.00  0.00    +0.000 C 
ATOM     27  C   UNL     1      -2.746  11.286  18.353  0.00  0.00    +0.000 C 
ENDBRANCH  18  21
ENDBRANCH   6  18
TORSDOF 3
ENDMDL
MODEL 6
REMARK VINA RESULT:      -7.6      1.920      2.462
REMARK  Name = 
REMARK  3 active torsions:
REMARK  status: ('A' for Active; 'I' for Inactive)
REMARK    1  A    between atoms: C_2  and  C_10
REMARK    2  A    between atoms: C_15  and  S_16
REMARK    3  A    between atoms: S_16  and  N_19
REMARK                            x       y       z     vdW  Elec       q    Type
REMARK                         _______ _______ _______ _____ _____    ______ ____
ROOT
ATOM      1  C   UNL     1       1.463   8.743  19.914  0.00  0.00    +0.000 A 
ATOM      2  C   UNL     1       1.162   8.157  21.145  0.00  0.00    +0.000 A 
ATOM      3  C   UNL     1       0.349   8.845  22.052  0.00  0.00    +0.000 A 
ATOM      4  C   UNL     1      -0.185  10.109  21.737  0.00  0.00    +0.000 A 
ATOM      5 CL   UNL     1      -1.229  10.781  22.932  0.00  0.00    +0.000 Cl
ATOM      6  C   UNL     1       0.122  10.694  20.503  0.00  0.00    +0.000 A 
ATOM      7  C   UNL     1       0.973  10.013  19.605  0.00  0.00    +0.000 A 
ENDROOT
BRANCH   1   9
ATOM      8  O   UNL     1       2.181   8.355  17.751  0.00  0.00    +0.000 OA
ATOM      9  C   UNL     1       2.168   7.937  18.900  0.00  0.00    +0.000 C 
ATOM     10  N   UNL     1       2.716   6.749  19.346  0.00  0.00    +0.000 N 
ATOM     11  C   UNL     1       3.366   5.881  18.464  0.00  0.00    +0.000 A 
ATOM     12  C   UNL     1       4.258   6.358  17.508  0.00  0.00    +0.000 A 
ATOM     13  C   UNL     1       4.796   5.464  16.588  0.00  0.00    +0.000 A 
ATOM     14  C   UNL     1       4.410   4.134  16.641  0.00  0.00    +0.000 A 
ATOM     15  C   UNL     1       3.547   3.742  17.654  0.00  0.00    +0.000 A 
ATOM     16  N   UNL     1       3.050   4.579  18.594  0.00  0.00    +0.000 NA
ATOM     17  H   UNL     1       2.275   6.278  20.126  0.00  0.00    +0.000 HD
ENDBRANCH   1   9
BRANCH   6  18
ATOM     18  S   UNL     1      -0.416  12.320  19.996  0.00  0.00    +0.000 S 
ATOM     19  O   UNL     1      -0.211  13.260  21.072  0.00  0.00    +0.000 OA
ATOM     20  O   UNL     1       0.198  12.560  18.705  0.00  0.00    +0.000 OA
BRANCH  18  21
ATOM     21  N   UNL     1      -2.104  12.139  19.737  0.00  0.00    +0.000 NA
ATOM     22  C   UNL     1      -2.985  13.184  20.293  0.00  0.00    +0.000 C 
ATOM     23  C   UNL     1      -4.325  12.652  20.793  0.00  0.00    +0.000 C 
ATOM     24  C   UNL     1      -5.368  12.497  19.695  0.00  0.00    +0.000 C 
ATOM     25  C   UNL     1      -5.045  11.363  18.737  0.00  0.00    +0.000 C 
ATOM     26  C   UNL     1      -3.823  11.664  17.882  0.00  0.00    +0.000 C 
ATOM     27  C   UNL     1      -2.489  11.356  18.543  0.00  0.00    +0.000 C 
ENDBRANCH  18  21
ENDBRANCH   6  18
TORSDOF 3
ENDMDL
MODEL 7
REMARK VINA RESULT:      -7.6      1.948      2.766
REMARK  Name = 
REMARK  3 active torsions:
REMARK  status: ('A' for Active; 'I' for Inactive)
REMARK    1  A    between atoms: C_2  and  C_10
REMARK    2  A    between atoms: C_15  and  S_16
REMARK    3  A    between atoms: S_16  and  N_19
REMARK                            x       y       z     vdW  Elec       q    Type
REMARK                         _______ _______ _______ _____ _____    ______ ____
ROOT
ATOM      1  C   UNL     1       1.416   8.805  20.037  0.00  0.00    +0.000 A 
ATOM      2  C   UNL     1       1.064   8.314  21.296  0.00  0.00    +0.000 A 
ATOM      3  C   UNL     1       0.290   9.107  22.151  0.00  0.00    +0.000 A 
ATOM      4  C   UNL     1      -0.154  10.383  21.755  0.00  0.00    +0.000 A 
ATOM      5 CL   UNL     1      -1.162  11.193  22.895  0.00  0.00    +0.000 Cl
ATOM      6  C   UNL     1       0.203  10.872  20.494  0.00  0.00    +0.000 A 
ATOM      7  C   UNL     1       1.014  10.084  19.648  0.00  0.00    +0.000 A 
ENDROOT
BRANCH   1   9
ATOM      8  O   UNL     1       1.968   8.150  17.891  0.00  0.00    +0.000 OA
ATOM      9  C   UNL     1       2.074   7.895  19.082  0.00  0.00    +0.000 C 
ATOM     10  N   UNL     1       2.719   6.804  19.632  0.00  0.00    +0.000 N 
ATOM     11  C   UNL     1       3.338   5.848  18.820  0.00  0.00    +0.000 A 
ATOM     12  C   UNL     1       4.120   6.224  17.731  0.00  0.00    +0.000 A 
ATOM     13  C   UNL     1       4.624   5.234  16.895  0.00  0.00    +0.000 A 
ATOM     14  C   UNL     1       4.314   3.909  17.162  0.00  0.00    +0.000 A 
ATOM     15  C   UNL     1       3.561   3.627  18.292  0.00  0.00    +0.000 A 
ATOM     16  N   UNL     1       3.102   4.566  19.152  0.00  0.00    +0.000 NA
ATOM     17  H   UNL     1       2.371   6.428  20.505  0.00  0.00    +0.000 HD
ENDBRANCH   1   9
BRANCH   6  18
ATOM     18  S   UNL     1      -0.220  12.498  19.885  0.00  0.00    +0.000 S 
ATOM     19  O   UNL     1      -0.052  13.471  20.937  0.00  0.00    +0.000 OA
ATOM     20  O   UNL     1       0.499  12.657  18.636  0.00  0.00    +0.000 OA
BRANCH  18  21
ATOM     21  N   UNL     1      -1.891  12.379  19.505  0.00  0.00    +0.000 NA
ATOM     22  C   UNL     1      -2.324  11.192  18.744  0.00  0.00    +0.000 C 
ATOM     23  C   UNL     1      -3.455  11.476  17.759  0.00  0.00    +0.000 C 
ATOM     24  C   UNL     1      -4.837  11.450  18.394  0.00  0.00    +0.000 C 
ATOM     25  C   UNL     1      -5.078  12.627  19.323  0.00  0.00    +0.000 C 
ATOM     26  C   UNL     1      -4.222  12.552  20.579  0.00  0.00    +0.000 C 
ATOM     27  C   UNL     1      -2.808  13.088  20.424  0.00  0.00    +0.000 C 
ENDBRANCH  18  21
ENDBRANCH   6  18
TORSDOF 3
ENDMDL
MODEL 8
REMARK VINA RESULT:      -7.6      1.620      2.539
REMARK  Name = 
REMARK  3 active torsions:
REMARK  status: ('A' for Active; 'I' for Inactive)
REMARK    1  A    between atoms: C_2  and  C_10
REMARK    2  A    between atoms: C_15  and  S_16
REMARK    3  A    between atoms: S_16  and  N_19
REMARK                            x       y       z     vdW  Elec       q    Type
REMARK                         _______ _______ _______ _____ _____    ______ ____
ROOT
ATOM      1  C   UNL     1       1.235   8.373  20.678  0.00  0.00    +0.000 A 
ATOM      2  C   UNL     1       0.769   8.255  21.989  0.00  0.00    +0.000 A 
ATOM      3  C   UNL     1       0.050   9.312  22.559  0.00  0.00    +0.000 A 
ATOM      4  C   UNL     1      -0.226  10.482  21.828  0.00  0.00    +0.000 A 
ATOM      5 CL   UNL     1      -1.190  11.650  22.651  0.00  0.00    +0.000 Cl
ATOM      6  C   UNL     1       0.246  10.597  20.515  0.00  0.00    +0.000 A 
ATOM      7  C   UNL     1       1.002   9.545  19.955  0.00  0.00    +0.000 A 
ENDROOT
BRANCH   1   9
ATOM      8  O   UNL     1       1.838   6.142  20.659  0.00  0.00    +0.000 OA
ATOM      9  C   UNL     1       1.831   7.190  20.030  0.00  0.00    +0.000 C 
ATOM     10  N   UNL     1       2.370   7.396  18.774  0.00  0.00    +0.000 N 
ATOM     11  C   UNL     1       3.003   6.357  18.084  0.00  0.00    +0.000 A 
ATOM     12  C   UNL     1       2.455   5.079  18.042  0.00  0.00    +0.000 A 
ATOM     13  C   UNL     1       3.179   4.060  17.432  0.00  0.00    +0.000 A 
ATOM     14  C   UNL     1       4.429   4.347  16.906  0.00  0.00    +0.000 A 
ATOM     15  C   UNL     1       4.876   5.658  16.959  0.00  0.00    +0.000 A 
ATOM     16  N   UNL     1       4.171   6.679  17.499  0.00  0.00    +0.000 NA
ATOM     17  H   UNL     1       2.736   8.312  18.551  0.00  0.00    +0.000 HD
ENDBRANCH   1   9
BRANCH   6  18
ATOM     18  S   UNL     1       0.041  12.048  19.493  0.00  0.00    +0.000 S 
ATOM     19  O   UNL     1      -0.085  13.219  20.328  0.00  0.00    +0.000 OA
ATOM     20  O   UNL     1       1.091  11.986  18.495  0.00  0.00    +0.000 OA
BRANCH  18  21
ATOM     21  N   UNL     1      -1.452  11.783  18.687  0.00  0.00    +0.000 NA
ATOM     22  C   UNL     1      -1.579  10.540  17.901  0.00  0.00    +0.000 C 
ATOM     23  C   UNL     1      -2.418  10.700  16.636  0.00  0.00    +0.000 C 
ATOM     24  C   UNL     1      -3.916  10.583  16.878  0.00  0.00    +0.000 C 
ATOM     25  C   UNL     1      -4.480  11.767  17.645  0.00  0.00    +0.000 C 
ATOM     26  C   UNL     1      -3.993  11.802  19.086  0.00  0.00    +0.000 C 
ATOM     27  C   UNL     1      -2.631  12.445  19.286  0.00  0.00    +0.000 C 
ENDBRANCH  18  21
ENDBRANCH   6  18
TORSDOF 3
ENDMDL
MODEL 9
REMARK VINA RESULT:      -7.5      3.237      8.176
REMARK  Name = 
REMARK  3 active torsions:
REMARK  status: ('A' for Active; 'I' for Inactive)
REMARK    1  A    between atoms: C_2  and  C_10
REMARK    2  A    between atoms: C_15  and  S_16
REMARK    3  A    between atoms: S_16  and  N_19
REMARK                            x       y       z     vdW  Elec       q    Type
REMARK                         _______ _______ _______ _____ _____    ______ ____
ROOT
ATOM      1  C   UNL     1       1.941   6.564  19.640  0.00  0.00    +0.000 A 
ATOM      2  C   UNL     1       1.737   6.180  20.967  0.00  0.00    +0.000 A 
ATOM      3  C   UNL     1       1.939   4.844  21.335  0.00  0.00    +0.000 A 
ATOM      4  C   UNL     1       2.361   3.887  20.393  0.00  0.00    +0.000 A 
ATOM      5 CL   UNL     1       2.638   2.309  21.027  0.00  0.00    +0.000 Cl
ATOM      6  C   UNL     1       2.560   4.275  19.063  0.00  0.00    +0.000 A 
ATOM      7  C   UNL     1       2.321   5.615  18.688  0.00  0.00    +0.000 A 
ENDROOT
BRANCH   1   9
ATOM      8  O   UNL     1       2.580   8.380  18.362  0.00  0.00    +0.000 OA
ATOM      9  C   UNL     1       1.900   7.998  19.305  0.00  0.00    +0.000 C 
ATOM     10  N   UNL     1       1.120   8.790  20.126  0.00  0.00    +0.000 N 
ATOM     11  C   UNL     1       1.044  10.173  19.932  0.00  0.00    +0.000 A 
ATOM     12  C   UNL     1       0.900  10.716  18.659  0.00  0.00    +0.000 A 
ATOM     13  C   UNL     1       0.936  12.098  18.513  0.00  0.00    +0.000 A 
ATOM     14  C   UNL     1       1.134  12.887  19.636  0.00  0.00    +0.000 A 
ATOM     15  C   UNL     1       1.226  12.259  20.869  0.00  0.00    +0.000 A 
ATOM     16  N   UNL     1       1.142  10.920  21.047  0.00  0.00    +0.000 NA
ATOM     17  H   UNL     1       0.998   8.509  21.091  0.00  0.00    +0.000 HD
ENDBRANCH   1   9
BRANCH   6  18
ATOM     18  S   UNL     1       3.019   3.160  17.744  0.00  0.00    +0.000 S 
ATOM     19  O   UNL     1       3.095   1.811  18.251  0.00  0.00    +0.000 OA
ATOM     20  O   UNL     1       2.133   3.464  16.638  0.00  0.00    +0.000 OA
BRANCH  18  21
ATOM     21  N   UNL     1       4.596   3.671  17.296  0.00  0.00    +0.000 NA
ATOM     22  C   UNL     1       4.757   4.252  15.949  0.00  0.00    +0.000 C 
ATOM     23  C   UNL     1       6.093   3.915  15.294  0.00  0.00    +0.000 C 
ATOM     24  C   UNL     1       7.229   4.834  15.717  0.00  0.00    +0.000 C 
ATOM     25  C   UNL     1       7.652   4.616  17.160  0.00  0.00    +0.000 C 
ATOM     26  C   UNL     1       6.583   5.066  18.145  0.00  0.00    +0.000 C 
ATOM     27  C   UNL     1       5.490   4.046  18.413  0.00  0.00    +0.000 C 
ENDBRANCH  18  21
ENDBRANCH   6  18
TORSDOF 3
ENDMDL
