MODEL 1
REMARK VINA RESULT:      -8.1      0.000      0.000
REMARK  Name = 
REMARK  6 active torsions:
REMARK  status: ('A' for Active; 'I' for Inactive)
REMARK    1  A    between atoms: C_2  and  C_3
REMARK    2  A    between atoms: C_3  and  C_13
REMARK    3  A    between atoms: N_4  and  N_5
REMARK    4  A    between atoms: N_5  and  C_6
REMARK    5  A    between atoms: C_13  and  C_15
REMARK    6  A    between atoms: C_17  and  C_18
REMARK                            x       y       z     vdW  Elec       q    Type
REMARK                         _______ _______ _______ _____ _____    ______ ____
ROOT
ATOM      1  C   UNL     1       5.218   4.325  17.957  0.00  0.00    +0.000 C 
ATOM      2  N   UNL     1       4.230   5.038  17.500  0.00  0.00    +0.000 NA
ENDROOT
BRANCH   1   4
ATOM      3  N   UNL     1       4.700   2.628  19.865  0.00  0.00    +0.000 NA
ATOM      4  C   UNL     1       4.961   3.395  19.034  0.00  0.00    +0.000 C 
ENDBRANCH   1   4
BRANCH   2   5
ATOM      5  N   UNL     1       2.992   4.975  18.049  0.00  0.00    +0.000 N 
ATOM      6  H   UNL     1       2.467   4.110  18.177  0.00  0.00    +0.000 HD
BRANCH   5   7
ATOM      7  C   UNL     1       2.492   6.102  18.730  0.00  0.00    +0.000 A 
ATOM      8  C   UNL     1       2.104   6.060  20.079  0.00  0.00    +0.000 A 
ATOM      9  C   UNL     1       1.676   7.212  20.745  0.00  0.00    +0.000 A 
ATOM     10  C   UNL     1       1.620   8.427  20.066  0.00  0.00    +0.000 A 
ATOM     11  C   UNL     1       1.987   8.478  18.723  0.00  0.00    +0.000 A 
ATOM     12 CL   UNL     1       1.899   9.970  17.870  0.00  0.00    +0.000 Cl
ATOM     13  C   UNL     1       2.424   7.329  18.060  0.00  0.00    +0.000 A 
ENDBRANCH   5   7
ENDBRANCH   2   5
BRANCH   1  14
ATOM     14  C   UNL     1       6.593   4.465  17.357  0.00  0.00    +0.000 C 
ATOM     15  O   UNL     1       7.544   4.472  18.137  0.00  0.00    +0.000 OA
BRANCH  14  16
ATOM     16  C   UNL     1       6.771   4.620  15.915  0.00  0.00    +0.000 A 
ATOM     17  C   UNL     1       6.191   3.846  14.871  0.00  0.00    +0.000 A 
ATOM     18  C   UNL     1       6.726   4.365  13.718  0.00  0.00    +0.000 A 
ATOM     19  O   UNL     1       7.542   5.401  14.036  0.00  0.00    +0.000 OA
ATOM     20  N   UNL     1       7.583   5.553  15.402  0.00  0.00    +0.000 NA
BRANCH  18  21
ATOM     21  C   UNL     1       6.485   3.870  12.307  0.00  0.00    +0.000 C 
ATOM     22  C   UNL     1       6.045   2.431  12.120  0.00  0.00    +0.000 C 
ATOM     23  C   UNL     1       5.060   3.529  11.916  0.00  0.00    +0.000 C 
ENDBRANCH  18  21
ENDBRANCH  14  16
ENDBRANCH   1  14
TORSDOF 6
ENDMDL
MODEL 2
REMARK VINA RESULT:      -8.0      1.192      1.597
REMARK  Name = 
REMARK  6 active torsions:
REMARK  status: ('A' for Active; 'I' for Inactive)
REMARK    1  A    between atoms: C_2  and  C_3
REMARK    2  A    between atoms: C_3  and  C_13
REMARK    3  A    between atoms: N_4  and  N_5
REMARK    4  A    between atoms: N_5  and  C_6
REMARK    5  A    between atoms: C_13  and  C_15
REMARK    6  A    between atoms: C_17  and  C_18
REMARK                            x       y       z     vdW  Elec       q    Type
REMARK                         _______ _______ _______ _____ _____    ______ ____
ROOT
ATOM      1  C   UNL     1       4.980   4.527  17.810  0.00  0.00    +0.000 C 
ATOM      2  N   UNL     1       4.411   5.659  18.108  0.00  0.00    +0.000 NA
ENDROOT
BRANCH   1   4
ATOM      3  N   UNL     1       3.603   2.341  18.148  0.00  0.00    +0.000 NA
ATOM      4  C   UNL     1       4.240   3.303  18.024  0.00  0.00    +0.000 C 
ENDBRANCH   1   4
BRANCH   2   5
ATOM      5  N   UNL     1       3.178   5.711  18.669  0.00  0.00    +0.000 N 
ATOM      6  H   UNL     1       2.730   4.924  19.139  0.00  0.00    +0.000 HD
BRANCH   5   7
ATOM      7  C   UNL     1       2.575   6.968  18.868  0.00  0.00    +0.000 A 
ATOM      8  C   UNL     1       2.430   7.909  17.836  0.00  0.00    +0.000 A 
ATOM      9  C   UNL     1       1.766   9.121  18.049  0.00  0.00    +0.000 A 
ATOM     10  C   UNL     1       1.244   9.414  19.307  0.00  0.00    +0.000 A 
ATOM     11  C   UNL     1       1.396   8.497  20.342  0.00  0.00    +0.000 A 
ATOM     12 CL   UNL     1       0.775   8.862  21.906  0.00  0.00    +0.000 Cl
ATOM     13  C   UNL     1       2.051   7.282  20.128  0.00  0.00    +0.000 A 
ENDBRANCH   5   7
ENDBRANCH   2   5
BRANCH   1  14
ATOM     14  C   UNL     1       6.374   4.508  17.240  0.00  0.00    +0.000 C 
ATOM     15  O   UNL     1       7.304   4.425  18.042  0.00  0.00    +0.000 OA
BRANCH  14  16
ATOM     16  C   UNL     1       6.599   4.618  15.801  0.00  0.00    +0.000 A 
ATOM     17  C   UNL     1       6.065   3.803  14.764  0.00  0.00    +0.000 A 
ATOM     18  C   UNL     1       6.632   4.293  13.612  0.00  0.00    +0.000 A 
ATOM     19  O   UNL     1       7.423   5.349  13.924  0.00  0.00    +0.000 OA
ATOM     20  N   UNL     1       7.416   5.546  15.284  0.00  0.00    +0.000 NA
BRANCH  18  21
ATOM     21  C   UNL     1       6.445   3.749  12.211  0.00  0.00    +0.000 C 
ATOM     22  C   UNL     1       5.943   2.327  12.058  0.00  0.00    +0.000 C 
ATOM     23  C   UNL     1       5.029   3.462  11.752  0.00  0.00    +0.000 C 
ENDBRANCH  18  21
ENDBRANCH  14  16
ENDBRANCH   1  14
TORSDOF 6
ENDMDL
MODEL 3
REMARK VINA RESULT:      -7.9      2.669      3.056
REMARK  Name = 
REMARK  6 active torsions:
REMARK  status: ('A' for Active; 'I' for Inactive)
REMARK    1  A    between atoms: C_2  and  C_3
REMARK    2  A    between atoms: C_3  and  C_13
REMARK    3  A    between atoms: N_4  and  N_5
REMARK    4  A    between atoms: N_5  and  C_6
REMARK    5  A    between atoms: C_13  and  C_15
REMARK    6  A    between atoms: C_17  and  C_18
REMARK                            x       y       z     vdW  Elec       q    Type
REMARK                         _______ _______ _______ _____ _____    ______ ____
ROOT
ATOM      1  C   UNL     1       6.154   5.921  17.894  0.00  0.00    +0.000 C 
ATOM      2  N   UNL     1       4.881   6.187  17.935  0.00  0.00    +0.000 NA
ENDROOT
BRANCH   1   4
ATOM      3  N   UNL     1       7.439   5.371  20.094  0.00  0.00    +0.000 NA
ATOM      4  C   UNL     1       6.835   5.606  19.131  0.00  0.00    +0.000 C 
ENDBRANCH   1   4
BRANCH   2   5
ATOM      5  N   UNL     1       4.200   6.238  19.106  0.00  0.00    +0.000 N 
ATOM      6  H   UNL     1       4.206   7.041  19.735  0.00  0.00    +0.000 HD
BRANCH   5   7
ATOM      7  C   UNL     1       3.216   5.264  19.363  0.00  0.00    +0.000 A 
ATOM      8  C   UNL     1       2.252   5.412  20.373  0.00  0.00    +0.000 A 
ATOM      9  C   UNL     1       1.246   4.458  20.558  0.00  0.00    +0.000 A 
ATOM     10  C   UNL     1       1.197   3.332  19.740  0.00  0.00    +0.000 A 
ATOM     11  C   UNL     1       2.158   3.167  18.746  0.00  0.00    +0.000 A 
ATOM     12 CL   UNL     1       2.119   1.767  17.745  0.00  0.00    +0.000 Cl
ATOM     13  C   UNL     1       3.157   4.124  18.553  0.00  0.00    +0.000 A 
ENDBRANCH   5   7
ENDBRANCH   2   5
BRANCH   1  14
ATOM     14  C   UNL     1       6.888   5.929  16.579  0.00  0.00    +0.000 C 
ATOM     15  O   UNL     1       7.730   6.811  16.415  0.00  0.00    +0.000 OA
BRANCH  14  16
ATOM     16  C   UNL     1       6.579   4.949  15.541  0.00  0.00    +0.000 A 
ATOM     17  C   UNL     1       6.750   5.076  14.134  0.00  0.00    +0.000 A 
ATOM     18  C   UNL     1       6.255   3.904  13.617  0.00  0.00    +0.000 A 
ATOM     19  O   UNL     1       5.846   3.109  14.638  0.00  0.00    +0.000 OA
ATOM     20  N   UNL     1       6.032   3.761  15.834  0.00  0.00    +0.000 NA
BRANCH  18  21
ATOM     21  C   UNL     1       6.144   3.537  12.153  0.00  0.00    +0.000 C 
ATOM     22  C   UNL     1       5.666   2.142  11.799  0.00  0.00    +0.000 C 
ATOM     23  C   UNL     1       4.756   3.302  11.590  0.00  0.00    +0.000 C 
ENDBRANCH  18  21
ENDBRANCH  14  16
ENDBRANCH   1  14
TORSDOF 6
ENDMDL
MODEL 4
REMARK VINA RESULT:      -7.9      2.525      3.098
REMARK  Name = 
REMARK  6 active torsions:
REMARK  status: ('A' for Active; 'I' for Inactive)
REMARK    1  A    between atoms: C_2  and  C_3
REMARK    2  A    between atoms: C_3  and  C_13
REMARK    3  A    between atoms: N_4  and  N_5
REMARK    4  A    between atoms: N_5  and  C_6
REMARK    5  A    between atoms: C_13  and  C_15
REMARK    6  A    between atoms: C_17  and  C_18
REMARK                            x       y       z     vdW  Elec       q    Type
REMARK                         _______ _______ _______ _____ _____    ______ ____
ROOT
ATOM      1  C   UNL     1       6.007   5.354  17.599  0.00  0.00    +0.000 C 
ATOM      2  N   UNL     1       5.811   5.006  18.837  0.00  0.00    +0.000 NA
ENDROOT
BRANCH   1   4
ATOM      3  N   UNL     1       4.486   7.241  16.641  0.00  0.00    +0.000 NA
ATOM      4  C   UNL     1       5.175   6.393  17.033  0.00  0.00    +0.000 C 
ENDBRANCH   1   4
BRANCH   2   5
ATOM      5  N   UNL     1       4.813   5.544  19.580  0.00  0.00    +0.000 N 
ATOM      6  H   UNL     1       4.802   6.509  19.911  0.00  0.00    +0.000 HD
BRANCH   5   7
ATOM      7  C   UNL     1       3.595   4.845  19.690  0.00  0.00    +0.000 A 
ATOM      8  C   UNL     1       2.561   5.257  20.546  0.00  0.00    +0.000 A 
ATOM      9  C   UNL     1       1.338   4.580  20.582  0.00  0.00    +0.000 A 
ATOM     10  C   UNL     1       1.134   3.471  19.765  0.00  0.00    +0.000 A 
ATOM     11  C   UNL     1       2.158   3.043  18.924  0.00  0.00    +0.000 A 
ATOM     12 CL   UNL     1       1.923   1.658  17.928  0.00  0.00    +0.000 Cl
ATOM     13  C   UNL     1       3.377   3.724  18.880  0.00  0.00    +0.000 A 
ENDBRANCH   5   7
ENDBRANCH   2   5
BRANCH   1  14
ATOM     14  C   UNL     1       7.090   4.693  16.789  0.00  0.00    +0.000 C 
ATOM     15  O   UNL     1       8.017   4.178  17.412  0.00  0.00    +0.000 OA
BRANCH  14  16
ATOM     16  C   UNL     1       7.046   4.700  15.329  0.00  0.00    +0.000 A 
ATOM     17  C   UNL     1       6.290   3.855  14.469  0.00  0.00    +0.000 A 
ATOM     18  C   UNL     1       6.654   4.239  13.200  0.00  0.00    +0.000 A 
ATOM     19  O   UNL     1       7.538   5.264  13.285  0.00  0.00    +0.000 OA
ATOM     20  N   UNL     1       7.795   5.544  14.606  0.00  0.00    +0.000 NA
BRANCH  18  21
ATOM     21  C   UNL     1       6.183   3.621  11.900  0.00  0.00    +0.000 C 
ATOM     22  C   UNL     1       5.691   2.187  11.927  0.00  0.00    +0.000 C 
ATOM     23  C   UNL     1       4.708   3.295  11.771  0.00  0.00    +0.000 C 
ENDBRANCH  18  21
ENDBRANCH  14  16
ENDBRANCH   1  14
TORSDOF 6
ENDMDL
MODEL 5
REMARK VINA RESULT:      -7.8      2.804      3.226
REMARK  Name = 
REMARK  6 active torsions:
REMARK  status: ('A' for Active; 'I' for Inactive)
REMARK    1  A    between atoms: C_2  and  C_3
REMARK    2  A    between atoms: C_3  and  C_13
REMARK    3  A    between atoms: N_4  and  N_5
REMARK    4  A    between atoms: N_5  and  C_6
REMARK    5  A    between atoms: C_13  and  C_15
REMARK    6  A    between atoms: C_17  and  C_18
REMARK                            x       y       z     vdW  Elec       q    Type
REMARK                         _______ _______ _______ _____ _____    ______ ____
ROOT
ATOM      1  C   UNL     1       6.109   5.788  17.863  0.00  0.00    +0.000 C 
ATOM      2  N   UNL     1       4.818   5.945  17.839  0.00  0.00    +0.000 NA
ENDROOT
BRANCH   1   4
ATOM      3  N   UNL     1       7.307   5.287  20.122  0.00  0.00    +0.000 NA
ATOM      4  C   UNL     1       6.752   5.535  19.134  0.00  0.00    +0.000 C 
ENDBRANCH   1   4
BRANCH   2   5
ATOM      5  N   UNL     1       4.078   5.941  18.975  0.00  0.00    +0.000 N 
ATOM      6  H   UNL     1       4.103   6.681  19.677  0.00  0.00    +0.000 HD
BRANCH   5   7
ATOM      7  C   UNL     1       3.017   5.022  19.092  0.00  0.00    +0.000 A 
ATOM      8  C   UNL     1       2.176   4.698  18.016  0.00  0.00    +0.000 A 
ATOM      9  C   UNL     1       1.174   3.731  18.146  0.00  0.00    +0.000 A 
ATOM     10  C   UNL     1       0.991   3.079  19.364  0.00  0.00    +0.000 A 
ATOM     11  C   UNL     1       1.808   3.405  20.443  0.00  0.00    +0.000 A 
ATOM     12 CL   UNL     1       1.575   2.621  21.958  0.00  0.00    +0.000 Cl
ATOM     13  C   UNL     1       2.816   4.363  20.311  0.00  0.00    +0.000 A 
ENDBRANCH   5   7
ENDBRANCH   2   5
BRANCH   1  14
ATOM     14  C   UNL     1       6.904   5.856  16.585  0.00  0.00    +0.000 C 
ATOM     15  O   UNL     1       7.746   6.748  16.498  0.00  0.00    +0.000 OA
BRANCH  14  16
ATOM     16  C   UNL     1       6.650   4.919  15.493  0.00  0.00    +0.000 A 
ATOM     17  C   UNL     1       6.925   5.091  14.108  0.00  0.00    +0.000 A 
ATOM     18  C   UNL     1       6.444   3.948  13.515  0.00  0.00    +0.000 A 
ATOM     19  O   UNL     1       5.947   3.128  14.475  0.00  0.00    +0.000 OA
ATOM     20  N   UNL     1       6.061   3.734  15.704  0.00  0.00    +0.000 NA
BRANCH  18  21
ATOM     21  C   UNL     1       6.432   3.634  12.034  0.00  0.00    +0.000 C 
ATOM     22  C   UNL     1       7.018   2.312  11.579  0.00  0.00    +0.000 C 
ATOM     23  C   UNL     1       5.540   2.502  11.564  0.00  0.00    +0.000 C 
ENDBRANCH  18  21
ENDBRANCH  14  16
ENDBRANCH   1  14
TORSDOF 6
ENDMDL
MODEL 6
REMARK VINA RESULT:      -7.7      3.640      5.256
REMARK  Name = 
REMARK  6 active torsions:
REMARK  status: ('A' for Active; 'I' for Inactive)
REMARK    1  A    between atoms: C_2  and  C_3
REMARK    2  A    between atoms: C_3  and  C_13
REMARK    3  A    between atoms: N_4  and  N_5
REMARK    4  A    between atoms: N_5  and  C_6
REMARK    5  A    between atoms: C_13  and  C_15
REMARK    6  A    between atoms: C_17  and  C_18
REMARK                            x       y       z     vdW  Elec       q    Type
REMARK                         _______ _______ _______ _____ _____    ______ ____
ROOT
ATOM      1  C   UNL     1       6.581   4.633  18.209  0.00  0.00    +0.000 C 
ATOM      2  N   UNL     1       5.782   4.107  19.091  0.00  0.00    +0.000 NA
ENDROOT
BRANCH   1   4
ATOM      3  N   UNL     1       6.065   4.171  15.697  0.00  0.00    +0.000 NA
ATOM      4  C   UNL     1       6.331   4.374  16.808  0.00  0.00    +0.000 C 
ENDBRANCH   1   4
BRANCH   2   5
ATOM      5  N   UNL     1       4.770   3.278  18.733  0.00  0.00    +0.000 N 
ATOM      6  H   UNL     1       4.906   2.371  18.287  0.00  0.00    +0.000 HD
BRANCH   5   7
ATOM      7  C   UNL     1       3.477   3.531  19.230  0.00  0.00    +0.000 A 
ATOM      8  C   UNL     1       2.497   2.531  19.330  0.00  0.00    +0.000 A 
ATOM      9  C   UNL     1       1.244   2.799  19.891  0.00  0.00    +0.000 A 
ATOM     10  C   UNL     1       0.949   4.079  20.351  0.00  0.00    +0.000 A 
ATOM     11  C   UNL     1       1.907   5.084  20.241  0.00  0.00    +0.000 A 
ATOM     12 CL   UNL     1       1.542   6.675  20.786  0.00  0.00    +0.000 Cl
ATOM     13  C   UNL     1       3.162   4.815  19.690  0.00  0.00    +0.000 A 
ENDBRANCH   5   7
ENDBRANCH   2   5
BRANCH   1  14
ATOM     14  C   UNL     1       7.729   5.502  18.650  0.00  0.00    +0.000 C 
ATOM     15  O   UNL     1       8.552   4.996  19.411  0.00  0.00    +0.000 OA
BRANCH  14  16
ATOM     16  C   UNL     1       7.827   6.893  18.215  0.00  0.00    +0.000 A 
ATOM     17  C   UNL     1       8.479   7.975  18.871  0.00  0.00    +0.000 A 
ATOM     18  C   UNL     1       8.224   9.066  18.076  0.00  0.00    +0.000 A 
ATOM     19  O   UNL     1       7.502   8.669  16.999  0.00  0.00    +0.000 OA
ATOM     20  N   UNL     1       7.241   7.322  17.089  0.00  0.00    +0.000 NA
BRANCH  18  21
ATOM     21  C   UNL     1       8.644  10.496  18.343  0.00  0.00    +0.000 C 
ATOM     22  C   UNL     1       9.769  10.738  19.330  0.00  0.00    +0.000 C 
ATOM     23  C   UNL     1      10.022  10.922  17.874  0.00  0.00    +0.000 C 
ENDBRANCH  18  21
ENDBRANCH  14  16
ENDBRANCH   1  14
TORSDOF 6
ENDMDL
MODEL 7
REMARK VINA RESULT:      -7.7      2.055      3.025
REMARK  Name = 
REMARK  6 active torsions:
REMARK  status: ('A' for Active; 'I' for Inactive)
REMARK    1  A    between atoms: C_2  and  C_3
REMARK    2  A    between atoms: C_3  and  C_13
REMARK    3  A    between atoms: N_4  and  N_5
REMARK    4  A    between atoms: N_5  and  C_6
REMARK    5  A    between atoms: C_13  and  C_15
REMARK    6  A    between atoms: C_17  and  C_18
REMARK                            x       y       z     vdW  Elec       q    Type
REMARK                         _______ _______ _______ _____ _____    ______ ____
ROOT
ATOM      1  C   UNL     1       3.353   4.184  20.207  0.00  0.00    +0.000 C 
ATOM      2  N   UNL     1       3.201   5.443  19.917  0.00  0.00    +0.000 NA
ENDROOT
BRANCH   1   4
ATOM      3  N   UNL     1       1.971   3.115  22.140  0.00  0.00    +0.000 NA
ATOM      4  C   UNL     1       2.575   3.625  21.290  0.00  0.00    +0.000 C 
ENDBRANCH   1   4
BRANCH   2   5
ATOM      5  N   UNL     1       2.386   6.249  20.642  0.00  0.00    +0.000 N 
ATOM      6  H   UNL     1       2.210   6.134  21.640  0.00  0.00    +0.000 HD
BRANCH   5   7
ATOM      7  C   UNL     1       1.963   7.470  20.080  0.00  0.00    +0.000 A 
ATOM      8  C   UNL     1       2.175   7.795  18.731  0.00  0.00    +0.000 A 
ATOM      9  C   UNL     1       1.683   8.986  18.189  0.00  0.00    +0.000 A 
ATOM     10  C   UNL     1       0.978   9.877  18.994  0.00  0.00    +0.000 A 
ATOM     11  C   UNL     1       0.777   9.573  20.338  0.00  0.00    +0.000 A 
ATOM     12 CL   UNL     1      -0.072  10.680  21.346  0.00  0.00    +0.000 Cl
ATOM     13  C   UNL     1       1.259   8.380  20.879  0.00  0.00    +0.000 A 
ENDBRANCH   5   7
ENDBRANCH   2   5
BRANCH   1  14
ATOM     14  C   UNL     1       4.311   3.335  19.413  0.00  0.00    +0.000 C 
ATOM     15  O   UNL     1       4.479   2.178  19.795  0.00  0.00    +0.000 OA
BRANCH  14  16
ATOM     16  C   UNL     1       5.026   3.884  18.264  0.00  0.00    +0.000 A 
ATOM     17  C   UNL     1       4.557   4.039  16.930  0.00  0.00    +0.000 A 
ATOM     18  C   UNL     1       5.634   4.544  16.241  0.00  0.00    +0.000 A 
ATOM     19  O   UNL     1       6.668   4.715  17.102  0.00  0.00    +0.000 OA
ATOM     20  N   UNL     1       6.299   4.293  18.357  0.00  0.00    +0.000 NA
BRANCH  18  21
ATOM     21  C   UNL     1       5.697   4.846  14.759  0.00  0.00    +0.000 C 
ATOM     22  C   UNL     1       7.062   5.016  14.122  0.00  0.00    +0.000 C 
ATOM     23  C   UNL     1       6.277   3.781  13.849  0.00  0.00    +0.000 C 
ENDBRANCH  18  21
ENDBRANCH  14  16
ENDBRANCH   1  14
TORSDOF 6
ENDMDL
MODEL 8
REMARK VINA RESULT:      -7.7      2.704      3.323
REMARK  Name = 
REMARK  6 active torsions:
REMARK  status: ('A' for Active; 'I' for Inactive)
REMARK    1  A    between atoms: C_2  and  C_3
REMARK    2  A    between atoms: C_3  and  C_13
REMARK    3  A    between atoms: N_4  and  N_5
REMARK    4  A    between atoms: N_5  and  C_6
REMARK    5  A    between atoms: C_13  and  C_15
REMARK    6  A    between atoms: C_17  and  C_18
REMARK                            x       y       z     vdW  Elec       q    Type
REMARK                         _______ _______ _______ _____ _____    ______ ____
ROOT
ATOM      1  C   UNL     1       5.673   5.748  17.473  0.00  0.00    +0.000 C 
ATOM      2  N   UNL     1       4.416   5.925  17.185  0.00  0.00    +0.000 NA
ENDROOT
BRANCH   1   4
ATOM      3  N   UNL     1       6.284   5.026  19.901  0.00  0.00    +0.000 NA
ATOM      4  C   UNL     1       6.028   5.380  18.826  0.00  0.00    +0.000 C 
ENDBRANCH   1   4
BRANCH   2   5
ATOM      5  N   UNL     1       3.449   5.836  18.131  0.00  0.00    +0.000 N 
ATOM      6  H   UNL     1       2.964   6.640  18.530  0.00  0.00    +0.000 HD
BRANCH   5   7
ATOM      7  C   UNL     1       2.874   4.578  18.399  0.00  0.00    +0.000 A 
ATOM      8  C   UNL     1       2.778   3.568  17.428  0.00  0.00    +0.000 A 
ATOM      9  C   UNL     1       2.263   2.307  17.745  0.00  0.00    +0.000 A 
ATOM     10  C   UNL     1       1.827   2.040  19.040  0.00  0.00    +0.000 A 
ATOM     11  C   UNL     1       1.902   3.040  20.007  0.00  0.00    +0.000 A 
ATOM     12 CL   UNL     1       1.342   2.726  21.604  0.00  0.00    +0.000 Cl
ATOM     13  C   UNL     1       2.424   4.296  19.695  0.00  0.00    +0.000 A 
ENDBRANCH   5   7
ENDBRANCH   2   5
BRANCH   1  14
ATOM     14  C   UNL     1       6.724   5.911  16.406  0.00  0.00    +0.000 C 
ATOM     15  O   UNL     1       7.633   6.708  16.636  0.00  0.00    +0.000 OA
BRANCH  14  16
ATOM     16  C   UNL     1       6.637   5.176  15.148  0.00  0.00    +0.000 A 
ATOM     17  C   UNL     1       5.598   4.309  14.708  0.00  0.00    +0.000 A 
ATOM     18  C   UNL     1       6.032   3.837  13.493  0.00  0.00    +0.000 A 
ATOM     19  O   UNL     1       7.230   4.403  13.201  0.00  0.00    +0.000 OA
ATOM     20  N   UNL     1       7.615   5.225  14.233  0.00  0.00    +0.000 NA
BRANCH  18  21
ATOM     21  C   UNL     1       5.327   2.828  12.610  0.00  0.00    +0.000 C 
ATOM     22  C   UNL     1       4.379   3.349  11.547  0.00  0.00    +0.000 C 
ATOM     23  C   UNL     1       5.702   2.798  11.141  0.00  0.00    +0.000 C 
ENDBRANCH  18  21
ENDBRANCH  14  16
ENDBRANCH   1  14
TORSDOF 6
ENDMDL
MODEL 9
REMARK VINA RESULT:      -7.6      2.202      2.859
REMARK  Name = 
REMARK  6 active torsions:
REMARK  status: ('A' for Active; 'I' for Inactive)
REMARK    1  A    between atoms: C_2  and  C_3
REMARK    2  A    between atoms: C_3  and  C_13
REMARK    3  A    between atoms: N_4  and  N_5
REMARK    4  A    between atoms: N_5  and  C_6
REMARK    5  A    between atoms: C_13  and  C_15
REMARK    6  A    between atoms: C_17  and  C_18
REMARK                            x       y       z     vdW  Elec       q    Type
REMARK                         _______ _______ _______ _____ _____    ______ ____
ROOT
ATOM      1  C   UNL     1       5.780   4.682  16.953  0.00  0.00    +0.000 C 
ATOM      2  N   UNL     1       4.756   3.887  17.061  0.00  0.00    +0.000 NA
ENDROOT
BRANCH   1   4
ATOM      3  N   UNL     1       7.555   4.784  18.859  0.00  0.00    +0.000 NA
ATOM      4  C   UNL     1       6.751   4.707  18.026  0.00  0.00    +0.000 C 
ENDBRANCH   1   4
BRANCH   2   5
ATOM      5  N   UNL     1       4.546   3.139  18.172  0.00  0.00    +0.000 N 
ATOM      6  H   UNL     1       5.258   2.556  18.611  0.00  0.00    +0.000 HD
BRANCH   5   7
ATOM      7  C   UNL     1       3.384   3.366  18.935  0.00  0.00    +0.000 A 
ATOM      8  C   UNL     1       2.513   2.331  19.311  0.00  0.00    +0.000 A 
ATOM      9  C   UNL     1       1.403   2.580  20.125  0.00  0.00    +0.000 A 
ATOM     10  C   UNL     1       1.143   3.874  20.568  0.00  0.00    +0.000 A 
ATOM     11  C   UNL     1       1.990   4.911  20.187  0.00  0.00    +0.000 A 
ATOM     12 CL   UNL     1       1.662   6.518  20.711  0.00  0.00    +0.000 Cl
ATOM     13  C   UNL     1       3.104   4.663  19.382  0.00  0.00    +0.000 A 
ENDBRANCH   5   7
ENDBRANCH   2   5
BRANCH   1  14
ATOM     14  C   UNL     1       5.948   5.539  15.727  0.00  0.00    +0.000 C 
ATOM     15  O   UNL     1       5.737   6.744  15.855  0.00  0.00    +0.000 OA
BRANCH  14  16
ATOM     16  C   UNL     1       6.313   4.948  14.442  0.00  0.00    +0.000 A 
ATOM     17  C   UNL     1       5.567   4.024  13.658  0.00  0.00    +0.000 A 
ATOM     18  C   UNL     1       6.379   3.748  12.584  0.00  0.00    +0.000 A 
ATOM     19  O   UNL     1       7.517   4.478  12.691  0.00  0.00    +0.000 OA
ATOM     20  N   UNL     1       7.486   5.215  13.851  0.00  0.00    +0.000 NA
BRANCH  18  21
ATOM     21  C   UNL     1       6.091   2.774  11.461  0.00  0.00    +0.000 C 
ATOM     22  C   UNL     1       7.238   1.934  10.932  0.00  0.00    +0.000 C 
ATOM     23  C   UNL     1       6.190   1.293  11.774  0.00  0.00    +0.000 C 
ENDBRANCH  18  21
ENDBRANCH  14  16
ENDBRANCH   1  14
TORSDOF 6
ENDMDL
