MODEL 1
REMARK VINA RESULT:      -8.7      0.000      0.000
REMARK  Name = 
REMARK  7 active torsions:
REMARK  status: ('A' for Active; 'I' for Inactive)
REMARK    1  A    between atoms: C_1  and  C_2
REMARK    2  A    between atoms: C_7  and  C_8
REMARK    3  A    between atoms: C_8  and  N_9
REMARK    4  A    between atoms: N_9  and  C_10
REMARK    5  A    between atoms: C_12  and  N_13
REMARK    6  A    between atoms: C_22  and  C_23
REMARK    7  A    between atoms: C_24  and  C_25
REMARK                            x       y       z     vdW  Elec       q    Type
REMARK                         _______ _______ _______ _____ _____    ______ ____
ROOT
ATOM      1  C   UNL     1       5.035   4.167  18.577  0.00  0.00    +0.000 A 
ATOM      2  C   UNL     1       5.564   4.001  17.342  0.00  0.00    +0.000 A 
ATOM      3  C   UNL     1       5.271   4.885  16.197  0.00  0.00    +0.000 A 
ATOM      4  C   UNL     1       4.423   5.908  16.441  0.00  0.00    +0.000 A 
ATOM      5  N   UNL     1       3.867   6.097  17.703  0.00  0.00    +0.000 N 
ATOM      6  C   UNL     1       3.004   7.075  18.163  0.00  0.00    +0.000 A 
ATOM      7  C   UNL     1       2.460   8.191  17.346  0.00  0.00    +0.000 C 
ATOM      8  C   UNL     1       2.803   6.781  19.501  0.00  0.00    +0.000 A 
ATOM      9  C   UNL     1       1.988   7.504  20.505  0.00  0.00    +0.000 C 
ATOM     10  N   UNL     1       3.496   5.653  19.868  0.00  0.00    +0.000 NA
ATOM     11  C   UNL     1       4.131   5.263  18.780  0.00  0.00    +0.000 A 
ENDROOT
BRANCH   3  12
ATOM     12  N   UNL     1       5.880   4.700  14.942  0.00  0.00    +0.000 N 
ATOM     13  C   UNL     1       5.182   3.951  13.996  0.00  0.00    +0.000 A 
ATOM     14  C   UNL     1       5.690   3.687  12.784  0.00  0.00    +0.000 A 
ATOM     15  C   UNL     1       6.985   4.184  12.416  0.00  0.00    +0.000 A 
ATOM     16  C   UNL     1       7.680   4.943  13.271  0.00  0.00    +0.000 A 
ATOM     17  C   UNL     1       7.141   5.257  14.624  0.00  0.00    +0.000 A 
ATOM     18  O   UNL     1       7.853   5.938  15.362  0.00  0.00    +0.000 OA
ENDBRANCH   3  12
BRANCH   1  19
ATOM     19  N   UNL     1       5.324   3.289  19.630  0.00  0.00    +0.000 N 
ATOM     20  H   UNL     1       6.303   3.007  19.513  0.00  0.00    +0.000 HD
BRANCH  19  21
ATOM     21  C   UNL     1       4.565   2.036  19.768  0.00  0.00    +0.000 C 
BRANCH  21  28
ATOM     22  C   UNL     1       2.513   2.034  17.479  0.00  0.00    +0.000 C 
ATOM     23  C   UNL     1       2.147   2.350  18.904  0.00  0.00    +0.000 A 
ATOM     24  C   UNL     1       0.808   2.689  19.185  0.00  0.00    +0.000 A 
ATOM     25  C   UNL     1       0.402   3.013  20.478  0.00  0.00    +0.000 A 
ATOM     26  C   UNL     1       1.328   3.010  21.513  0.00  0.00    +0.000 A 
ATOM     27  C   UNL     1       2.656   2.681  21.252  0.00  0.00    +0.000 A 
ATOM     28  C   UNL     1       3.089   2.344  19.954  0.00  0.00    +0.000 A 
ENDBRANCH  21  28
ENDBRANCH  19  21
ENDBRANCH   1  19
TORSDOF 4
ENDMDL
MODEL 2
REMARK VINA RESULT:      -8.4      2.214      5.576
REMARK  Name = 
REMARK  7 active torsions:
REMARK  status: ('A' for Active; 'I' for Inactive)
REMARK    1  A    between atoms: C_1  and  C_2
REMARK    2  A    between atoms: C_7  and  C_8
REMARK    3  A    between atoms: C_8  and  N_9
REMARK    4  A    between atoms: N_9  and  C_10
REMARK    5  A    between atoms: C_12  and  N_13
REMARK    6  A    between atoms: C_22  and  C_23
REMARK    7  A    between atoms: C_24  and  C_25
REMARK                            x       y       z     vdW  Elec       q    Type
REMARK                         _______ _______ _______ _____ _____    ______ ____
ROOT
ATOM      1  C   UNL     1       2.961   4.760  17.328  0.00  0.00    +0.000 A 
ATOM      2  C   UNL     1       2.260   5.676  18.037  0.00  0.00    +0.000 A 
ATOM      3  C   UNL     1       2.824   6.956  18.509  0.00  0.00    +0.000 A 
ATOM      4  C   UNL     1       4.116   7.186  18.191  0.00  0.00    +0.000 A 
ATOM      5  N   UNL     1       4.856   6.257  17.465  0.00  0.00    +0.000 N 
ATOM      6  C   UNL     1       6.167   6.304  17.026  0.00  0.00    +0.000 A 
ATOM      7  C   UNL     1       7.110   7.427  17.263  0.00  0.00    +0.000 C 
ATOM      8  C   UNL     1       6.360   5.119  16.336  0.00  0.00    +0.000 A 
ATOM      9  C   UNL     1       7.569   4.636  15.629  0.00  0.00    +0.000 C 
ATOM     10  N   UNL     1       5.224   4.347  16.354  0.00  0.00    +0.000 NA
ATOM     11  C   UNL     1       4.334   5.048  17.027  0.00  0.00    +0.000 A 
ENDROOT
BRANCH   3  12
ATOM     12  N   UNL     1       2.043   7.898  19.204  0.00  0.00    +0.000 N 
ATOM     13  C   UNL     1       1.729   7.614  20.532  0.00  0.00    +0.000 A 
ATOM     14  C   UNL     1       0.963   8.429  21.270  0.00  0.00    +0.000 A 
ATOM     15  C   UNL     1       0.443   9.643  20.707  0.00  0.00    +0.000 A 
ATOM     16  C   UNL     1       0.748   9.984  19.451  0.00  0.00    +0.000 A 
ATOM     17  C   UNL     1       1.600   9.101  18.606  0.00  0.00    +0.000 A 
ATOM     18  O   UNL     1       1.813   9.472  17.452  0.00  0.00    +0.000 OA
ENDBRANCH   3  12
BRANCH   1  19
ATOM     19  N   UNL     1       2.391   3.547  16.919  0.00  0.00    +0.000 N 
ATOM     20  H   UNL     1       1.374   3.674  16.963  0.00  0.00    +0.000 HD
BRANCH  19  21
ATOM     21  C   UNL     1       2.669   2.315  17.676  0.00  0.00    +0.000 C 
BRANCH  21  28
ATOM     22  C   UNL     1       4.738   2.244  19.948  0.00  0.00    +0.000 C 
ATOM     23  C   UNL     1       3.271   2.482  20.186  0.00  0.00    +0.000 A 
ATOM     24  C   UNL     1       2.833   2.646  21.515  0.00  0.00    +0.000 A 
ATOM     25  C   UNL     1       1.486   2.848  21.812  0.00  0.00    +0.000 A 
ATOM     26  C   UNL     1       0.552   2.885  20.786  0.00  0.00    +0.000 A 
ATOM     27  C   UNL     1       0.967   2.721  19.466  0.00  0.00    +0.000 A 
ATOM     28  C   UNL     1       2.323   2.520  19.141  0.00  0.00    +0.000 A 
ENDBRANCH  21  28
ENDBRANCH  19  21
ENDBRANCH   1  19
TORSDOF 4
ENDMDL
MODEL 3
REMARK VINA RESULT:      -8.3      1.432      4.399
REMARK  Name = 
REMARK  7 active torsions:
REMARK  status: ('A' for Active; 'I' for Inactive)
REMARK    1  A    between atoms: C_1  and  C_2
REMARK    2  A    between atoms: C_7  and  C_8
REMARK    3  A    between atoms: C_8  and  N_9
REMARK    4  A    between atoms: N_9  and  C_10
REMARK    5  A    between atoms: C_12  and  N_13
REMARK    6  A    between atoms: C_22  and  C_23
REMARK    7  A    between atoms: C_24  and  C_25
REMARK                            x       y       z     vdW  Elec       q    Type
REMARK                         _______ _______ _______ _____ _____    ______ ____
ROOT
ATOM      1  C   UNL     1       4.100   6.127  17.643  0.00  0.00    +0.000 A 
ATOM      2  C   UNL     1       4.778   5.960  16.483  0.00  0.00    +0.000 A 
ATOM      3  C   UNL     1       5.151   4.642  15.932  0.00  0.00    +0.000 A 
ATOM      4  C   UNL     1       4.772   3.569  16.658  0.00  0.00    +0.000 A 
ATOM      5  N   UNL     1       4.076   3.717  17.854  0.00  0.00    +0.000 N 
ATOM      6  C   UNL     1       3.587   2.763  18.728  0.00  0.00    +0.000 A 
ATOM      7  C   UNL     1       3.720   1.293  18.555  0.00  0.00    +0.000 C 
ATOM      8  C   UNL     1       2.962   3.481  19.735  0.00  0.00    +0.000 A 
ATOM      9  C   UNL     1       2.240   2.982  20.928  0.00  0.00    +0.000 C 
ATOM     10  N   UNL     1       3.068   4.833  19.515  0.00  0.00    +0.000 NA
ATOM     11  C   UNL     1       3.731   4.953  18.382  0.00  0.00    +0.000 A 
ENDROOT
BRANCH   3  12
ATOM     12  N   UNL     1       5.817   4.517  14.698  0.00  0.00    +0.000 N 
ATOM     13  C   UNL     1       5.184   3.774  13.703  0.00  0.00    +0.000 A 
ATOM     14  C   UNL     1       5.749   3.565  12.505  0.00  0.00    +0.000 A 
ATOM     15  C   UNL     1       7.039   4.119  12.206  0.00  0.00    +0.000 A 
ATOM     16  C   UNL     1       7.672   4.874  13.110  0.00  0.00    +0.000 A 
ATOM     17  C   UNL     1       7.068   5.127  14.449  0.00  0.00    +0.000 A 
ATOM     18  O   UNL     1       7.724   5.810  15.235  0.00  0.00    +0.000 OA
ENDBRANCH   3  12
BRANCH   1  19
ATOM     19  N   UNL     1       3.786   7.399  18.140  0.00  0.00    +0.000 N 
ATOM     20  H   UNL     1       3.782   7.318  19.163  0.00  0.00    +0.000 HD
BRANCH  19  21
ATOM     21  C   UNL     1       2.504   8.028  17.786  0.00  0.00    +0.000 C 
BRANCH  21  28
ATOM     22  C   UNL     1       1.333  10.859  18.035  0.00  0.00    +0.000 C 
ATOM     23  C   UNL     1       1.292   9.857  19.157  0.00  0.00    +0.000 A 
ATOM     24  C   UNL     1       0.717  10.254  20.381  0.00  0.00    +0.000 A 
ATOM     25  C   UNL     1       0.664   9.386  21.469  0.00  0.00    +0.000 A 
ATOM     26  C   UNL     1       1.188   8.105  21.356  0.00  0.00    +0.000 A 
ATOM     27  C   UNL     1       1.764   7.696  20.154  0.00  0.00    +0.000 A 
ATOM     28  C   UNL     1       1.825   8.555  19.038  0.00  0.00    +0.000 A 
ENDBRANCH  21  28
ENDBRANCH  19  21
ENDBRANCH   1  19
TORSDOF 4
ENDMDL
MODEL 4
REMARK VINA RESULT:      -8.2      1.595      4.755
REMARK  Name = 
REMARK  7 active torsions:
REMARK  status: ('A' for Active; 'I' for Inactive)
REMARK    1  A    between atoms: C_1  and  C_2
REMARK    2  A    between atoms: C_7  and  C_8
REMARK    3  A    between atoms: C_8  and  N_9
REMARK    4  A    between atoms: N_9  and  C_10
REMARK    5  A    between atoms: C_12  and  N_13
REMARK    6  A    between atoms: C_22  and  C_23
REMARK    7  A    between atoms: C_24  and  C_25
REMARK                            x       y       z     vdW  Elec       q    Type
REMARK                         _______ _______ _______ _____ _____    ______ ____
ROOT
ATOM      1  C   UNL     1       3.836   6.147  17.679  0.00  0.00    +0.000 A 
ATOM      2  C   UNL     1       4.572   5.996  16.552  0.00  0.00    +0.000 A 
ATOM      3  C   UNL     1       5.073   4.695  16.068  0.00  0.00    +0.000 A 
ATOM      4  C   UNL     1       4.753   3.620  16.820  0.00  0.00    +0.000 A 
ATOM      5  N   UNL     1       3.999   3.753  17.982  0.00  0.00    +0.000 N 
ATOM      6  C   UNL     1       3.554   2.794  18.873  0.00  0.00    +0.000 A 
ATOM      7  C   UNL     1       3.813   1.335  18.763  0.00  0.00    +0.000 C 
ATOM      8  C   UNL     1       2.832   3.493  19.827  0.00  0.00    +0.000 A 
ATOM      9  C   UNL     1       2.105   2.979  21.011  0.00  0.00    +0.000 C 
ATOM     10  N   UNL     1       2.837   4.840  19.559  0.00  0.00    +0.000 NA
ATOM     11  C   UNL     1       3.533   4.974  18.448  0.00  0.00    +0.000 A 
ENDROOT
BRANCH   3  12
ATOM     12  N   UNL     1       5.797   4.581  14.865  0.00  0.00    +0.000 N 
ATOM     13  C   UNL     1       5.215   3.842  13.837  0.00  0.00    +0.000 A 
ATOM     14  C   UNL     1       5.836   3.645  12.665  0.00  0.00    +0.000 A 
ATOM     15  C   UNL     1       7.137   4.206  12.431  0.00  0.00    +0.000 A 
ATOM     16  C   UNL     1       7.722   4.957  13.369  0.00  0.00    +0.000 A 
ATOM     17  C   UNL     1       7.056   5.198  14.680  0.00  0.00    +0.000 A 
ATOM     18  O   UNL     1       7.671   5.878  15.500  0.00  0.00    +0.000 OA
ENDBRANCH   3  12
BRANCH   1  19
ATOM     19  N   UNL     1       3.400   7.406  18.114  0.00  0.00    +0.000 N 
ATOM     20  H   UNL     1       3.518   7.418  19.132  0.00  0.00    +0.000 HD
BRANCH  19  21
ATOM     21  C   UNL     1       2.010   7.823  17.871  0.00  0.00    +0.000 C 
BRANCH  21  28
ATOM     22  C   UNL     1       1.172   7.691  20.827  0.00  0.00    +0.000 C 
ATOM     23  C   UNL     1       1.292   8.985  20.068  0.00  0.00    +0.000 A 
ATOM     24  C   UNL     1       0.974  10.181  20.743  0.00  0.00    +0.000 A 
ATOM     25  C   UNL     1       1.042  11.414  20.098  0.00  0.00    +0.000 A 
ATOM     26  C   UNL     1       1.424  11.475  18.765  0.00  0.00    +0.000 A 
ATOM     27  C   UNL     1       1.739  10.302  18.081  0.00  0.00    +0.000 A 
ATOM     28  C   UNL     1       1.683   9.044  18.713  0.00  0.00    +0.000 A 
ENDBRANCH  21  28
ENDBRANCH  19  21
ENDBRANCH   1  19
TORSDOF 4
ENDMDL
MODEL 5
REMARK VINA RESULT:      -8.0      2.422      5.607
REMARK  Name = 
REMARK  7 active torsions:
REMARK  status: ('A' for Active; 'I' for Inactive)
REMARK    1  A    between atoms: C_1  and  C_2
REMARK    2  A    between atoms: C_7  and  C_8
REMARK    3  A    between atoms: C_8  and  N_9
REMARK    4  A    between atoms: N_9  and  C_10
REMARK    5  A    between atoms: C_12  and  N_13
REMARK    6  A    between atoms: C_22  and  C_23
REMARK    7  A    between atoms: C_24  and  C_25
REMARK                            x       y       z     vdW  Elec       q    Type
REMARK                         _______ _______ _______ _____ _____    ______ ____
ROOT
ATOM      1  C   UNL     1       2.872   4.900  17.332  0.00  0.00    +0.000 A 
ATOM      2  C   UNL     1       2.162   5.886  17.931  0.00  0.00    +0.000 A 
ATOM      3  C   UNL     1       2.744   7.174  18.357  0.00  0.00    +0.000 A 
ATOM      4  C   UNL     1       4.063   7.336  18.115  0.00  0.00    +0.000 A 
ATOM      5  N   UNL     1       4.811   6.336  17.503  0.00  0.00    +0.000 N 
ATOM      6  C   UNL     1       6.150   6.307  17.154  0.00  0.00    +0.000 A 
ATOM      7  C   UNL     1       7.119   7.410  17.382  0.00  0.00    +0.000 C 
ATOM      8  C   UNL     1       6.341   5.072  16.556  0.00  0.00    +0.000 A 
ATOM      9  C   UNL     1       7.574   4.501  15.966  0.00  0.00    +0.000 C 
ATOM     10  N   UNL     1       5.177   4.344  16.545  0.00  0.00    +0.000 NA
ATOM     11  C   UNL     1       4.272   5.119  17.109  0.00  0.00    +0.000 A 
ENDROOT
BRANCH   3  12
ATOM     12  N   UNL     1       1.957   8.188  18.935  0.00  0.00    +0.000 N 
ATOM     13  C   UNL     1       1.650   9.290  18.139  0.00  0.00    +0.000 A 
ATOM     14  C   UNL     1       0.935  10.325  18.605  0.00  0.00    +0.000 A 
ATOM     15  C   UNL     1       0.451  10.322  19.956  0.00  0.00    +0.000 A 
ATOM     16  C   UNL     1       0.682   9.271  20.749  0.00  0.00    +0.000 A 
ATOM     17  C   UNL     1       1.469   8.104  20.260  0.00  0.00    +0.000 A 
ATOM     18  O   UNL     1       1.661   7.188  21.059  0.00  0.00    +0.000 OA
ENDBRANCH   3  12
BRANCH   1  19
ATOM     19  N   UNL     1       2.282   3.684  16.964  0.00  0.00    +0.000 N 
ATOM     20  H   UNL     1       1.272   3.798  17.097  0.00  0.00    +0.000 HD
BRANCH  19  21
ATOM     21  C   UNL     1       2.639   2.450  17.682  0.00  0.00    +0.000 C 
BRANCH  21  28
ATOM     22  C   UNL     1       4.740   2.278  19.920  0.00  0.00    +0.000 C 
ATOM     23  C   UNL     1       3.279   2.515  20.188  0.00  0.00    +0.000 A 
ATOM     24  C   UNL     1       2.861   2.631  21.529  0.00  0.00    +0.000 A 
ATOM     25  C   UNL     1       1.520   2.830  21.853  0.00  0.00    +0.000 A 
ATOM     26  C   UNL     1       0.571   2.913  20.842  0.00  0.00    +0.000 A 
ATOM     27  C   UNL     1       0.967   2.797  19.511  0.00  0.00    +0.000 A 
ATOM     28  C   UNL     1       2.317   2.600  19.159  0.00  0.00    +0.000 A 
ENDBRANCH  21  28
ENDBRANCH  19  21
ENDBRANCH   1  19
TORSDOF 4
ENDMDL
MODEL 6
REMARK VINA RESULT:      -8.0      2.858      7.593
REMARK  Name = 
REMARK  7 active torsions:
REMARK  status: ('A' for Active; 'I' for Inactive)
REMARK    1  A    between atoms: C_1  and  C_2
REMARK    2  A    between atoms: C_7  and  C_8
REMARK    3  A    between atoms: C_8  and  N_9
REMARK    4  A    between atoms: N_9  and  C_10
REMARK    5  A    between atoms: C_12  and  N_13
REMARK    6  A    between atoms: C_22  and  C_23
REMARK    7  A    between atoms: C_24  and  C_25
REMARK                            x       y       z     vdW  Elec       q    Type
REMARK                         _______ _______ _______ _____ _____    ______ ____
ROOT
ATOM      1  C   UNL     1       2.953   7.015  18.389  0.00  0.00    +0.000 A 
ATOM      2  C   UNL     1       2.243   7.966  19.040  0.00  0.00    +0.000 A 
ATOM      3  C   UNL     1       1.496   7.721  20.289  0.00  0.00    +0.000 A 
ATOM      4  C   UNL     1       1.553   6.463  20.776  0.00  0.00    +0.000 A 
ATOM      5  N   UNL     1       2.275   5.470  20.121  0.00  0.00    +0.000 N 
ATOM      6  C   UNL     1       2.475   4.142  20.454  0.00  0.00    +0.000 A 
ATOM      7  C   UNL     1       1.916   3.466  21.654  0.00  0.00    +0.000 C 
ATOM      8  C   UNL     1       3.293   3.637  19.457  0.00  0.00    +0.000 A 
ATOM      9  C   UNL     1       3.851   2.273  19.308  0.00  0.00    +0.000 C 
ATOM     10  N   UNL     1       3.583   4.601  18.523  0.00  0.00    +0.000 NA
ATOM     11  C   UNL     1       2.972   5.692  18.942  0.00  0.00    +0.000 A 
ENDROOT
BRANCH   3  12
ATOM     12  N   UNL     1       0.808   8.753  20.956  0.00  0.00    +0.000 N 
ATOM     13  C   UNL     1       0.852   8.754  22.349  0.00  0.00    +0.000 A 
ATOM     14  C   UNL     1       0.203   9.672  23.079  0.00  0.00    +0.000 A 
ATOM     15  C   UNL     1      -0.561  10.703  22.435  0.00  0.00    +0.000 A 
ATOM     16  C   UNL     1      -0.602  10.773  21.100  0.00  0.00    +0.000 A 
ATOM     17  C   UNL     1       0.112   9.769  20.261  0.00  0.00    +0.000 A 
ATOM     18  O   UNL     1       0.003   9.886  19.041  0.00  0.00    +0.000 OA
ENDBRANCH   3  12
BRANCH   1  19
ATOM     19  N   UNL     1       3.630   7.288  17.192  0.00  0.00    +0.000 N 
ATOM     20  H   UNL     1       3.444   6.497  16.566  0.00  0.00    +0.000 HD
BRANCH  19  21
ATOM     21  C   UNL     1       5.093   7.451  17.199  0.00  0.00    +0.000 C 
BRANCH  21  28
ATOM     22  C   UNL     1       7.503   5.975  18.408  0.00  0.00    +0.000 C 
ATOM     23  C   UNL     1       6.861   5.566  17.109  0.00  0.00    +0.000 A 
ATOM     24  C   UNL     1       7.417   4.476  16.409  0.00  0.00    +0.000 A 
ATOM     25  C   UNL     1       6.888   4.056  15.190  0.00  0.00    +0.000 A 
ATOM     26  C   UNL     1       5.797   4.719  14.646  0.00  0.00    +0.000 A 
ATOM     27  C   UNL     1       5.237   5.801  15.323  0.00  0.00    +0.000 A 
ATOM     28  C   UNL     1       5.751   6.241  16.559  0.00  0.00    +0.000 A 
ENDBRANCH  21  28
ENDBRANCH  19  21
ENDBRANCH   1  19
TORSDOF 4
ENDMDL
MODEL 7
REMARK VINA RESULT:      -7.9      0.449      1.390
REMARK  Name = 
REMARK  7 active torsions:
REMARK  status: ('A' for Active; 'I' for Inactive)
REMARK    1  A    between atoms: C_1  and  C_2
REMARK    2  A    between atoms: C_7  and  C_8
REMARK    3  A    between atoms: C_8  and  N_9
REMARK    4  A    between atoms: N_9  and  C_10
REMARK    5  A    between atoms: C_12  and  N_13
REMARK    6  A    between atoms: C_22  and  C_23
REMARK    7  A    between atoms: C_24  and  C_25
REMARK                            x       y       z     vdW  Elec       q    Type
REMARK                         _______ _______ _______ _____ _____    ______ ____
ROOT
ATOM      1  C   UNL     1       4.951   4.242  18.768  0.00  0.00    +0.000 A 
ATOM      2  C   UNL     1       5.495   4.066  17.541  0.00  0.00    +0.000 A 
ATOM      3  C   UNL     1       5.206   4.936  16.383  0.00  0.00    +0.000 A 
ATOM      4  C   UNL     1       4.348   5.954  16.607  0.00  0.00    +0.000 A 
ATOM      5  N   UNL     1       3.776   6.152  17.860  0.00  0.00    +0.000 N 
ATOM      6  C   UNL     1       2.900   7.128  18.300  0.00  0.00    +0.000 A 
ATOM      7  C   UNL     1       2.356   8.230  17.465  0.00  0.00    +0.000 C 
ATOM      8  C   UNL     1       2.687   6.847  19.639  0.00  0.00    +0.000 A 
ATOM      9  C   UNL     1       1.855   7.574  20.626  0.00  0.00    +0.000 C 
ATOM     10  N   UNL     1       3.385   5.728  20.025  0.00  0.00    +0.000 NA
ATOM     11  C   UNL     1       4.036   5.332  18.949  0.00  0.00    +0.000 A 
ENDROOT
BRANCH   3  12
ATOM     12  N   UNL     1       5.831   4.742  15.136  0.00  0.00    +0.000 N 
ATOM     13  C   UNL     1       5.153   3.970  14.195  0.00  0.00    +0.000 A 
ATOM     14  C   UNL     1       5.676   3.697  12.991  0.00  0.00    +0.000 A 
ATOM     15  C   UNL     1       6.968   4.208  12.629  0.00  0.00    +0.000 A 
ATOM     16  C   UNL     1       7.643   4.988  13.480  0.00  0.00    +0.000 A 
ATOM     17  C   UNL     1       7.087   5.313  14.823  0.00  0.00    +0.000 A 
ATOM     18  O   UNL     1       7.781   6.015  15.558  0.00  0.00    +0.000 OA
ENDBRANCH   3  12
BRANCH   1  19
ATOM     19  N   UNL     1       5.236   3.378  19.834  0.00  0.00    +0.000 N 
ATOM     20  H   UNL     1       6.223   3.117  19.741  0.00  0.00    +0.000 HD
BRANCH  19  21
ATOM     21  C   UNL     1       4.502   2.109  19.963  0.00  0.00    +0.000 C 
BRANCH  21  28
ATOM     22  C   UNL     1       2.350   2.981  21.977  0.00  0.00    +0.000 C 
ATOM     23  C   UNL     1       2.051   2.712  20.527  0.00  0.00    +0.000 A 
ATOM     24  C   UNL     1       0.717   2.837  20.091  0.00  0.00    +0.000 A 
ATOM     25  C   UNL     1       0.363   2.582  18.767  0.00  0.00    +0.000 A 
ATOM     26  C   UNL     1       1.335   2.193  17.856  0.00  0.00    +0.000 A 
ATOM     27  C   UNL     1       2.659   2.060  18.271  0.00  0.00    +0.000 A 
ATOM     28  C   UNL     1       3.042   2.317  19.603  0.00  0.00    +0.000 A 
ENDBRANCH  21  28
ENDBRANCH  19  21
ENDBRANCH   1  19
TORSDOF 4
ENDMDL
MODEL 8
REMARK VINA RESULT:      -7.9      2.235      5.538
REMARK  Name = 
REMARK  7 active torsions:
REMARK  status: ('A' for Active; 'I' for Inactive)
REMARK    1  A    between atoms: C_1  and  C_2
REMARK    2  A    between atoms: C_7  and  C_8
REMARK    3  A    between atoms: C_8  and  N_9
REMARK    4  A    between atoms: N_9  and  C_10
REMARK    5  A    between atoms: C_12  and  N_13
REMARK    6  A    between atoms: C_22  and  C_23
REMARK    7  A    between atoms: C_24  and  C_25
REMARK                            x       y       z     vdW  Elec       q    Type
REMARK                         _______ _______ _______ _____ _____    ______ ____
ROOT
ATOM      1  C   UNL     1       3.054   4.726  17.305  0.00  0.00    +0.000 A 
ATOM      2  C   UNL     1       2.334   5.622  18.021  0.00  0.00    +0.000 A 
ATOM      3  C   UNL     1       2.867   6.915  18.491  0.00  0.00    +0.000 A 
ATOM      4  C   UNL     1       4.150   7.181  18.164  0.00  0.00    +0.000 A 
ATOM      5  N   UNL     1       4.909   6.273  17.431  0.00  0.00    +0.000 N 
ATOM      6  C   UNL     1       6.215   6.356  16.982  0.00  0.00    +0.000 A 
ATOM      7  C   UNL     1       7.129   7.504  17.214  0.00  0.00    +0.000 C 
ATOM      8  C   UNL     1       6.435   5.177  16.289  0.00  0.00    +0.000 A 
ATOM      9  C   UNL     1       7.651   4.729  15.571  0.00  0.00    +0.000 C 
ATOM     10  N   UNL     1       5.320   4.375  16.313  0.00  0.00    +0.000 NA
ATOM     11  C   UNL     1       4.416   5.051  16.994  0.00  0.00    +0.000 A 
ENDROOT
BRANCH   3  12
ATOM     12  N   UNL     1       2.066   7.836  19.193  0.00  0.00    +0.000 N 
ATOM     13  C   UNL     1       1.738   7.523  20.511  0.00  0.00    +0.000 A 
ATOM     14  C   UNL     1       0.953   8.315  21.255  0.00  0.00    +0.000 A 
ATOM     15  C   UNL     1       0.426   9.533  20.708  0.00  0.00    +0.000 A 
ATOM     16  C   UNL     1       0.743   9.902  19.462  0.00  0.00    +0.000 A 
ATOM     17  C   UNL     1       1.617   9.045  18.612  0.00  0.00    +0.000 A 
ATOM     18  O   UNL     1       1.840   9.440  17.468  0.00  0.00    +0.000 OA
ENDBRANCH   3  12
BRANCH   1  19
ATOM     19  N   UNL     1       2.514   3.498  16.899  0.00  0.00    +0.000 N 
ATOM     20  H   UNL     1       1.501   3.564  17.045  0.00  0.00    +0.000 HD
BRANCH  19  21
ATOM     21  C   UNL     1       2.930   2.257  17.570  0.00  0.00    +0.000 C 
BRANCH  21  28
ATOM     22  C   UNL     1       0.151   2.641  18.827  0.00  0.00    +0.000 C 
ATOM     23  C   UNL     1       1.412   2.553  19.644  0.00  0.00    +0.000 A 
ATOM     24  C   UNL     1       1.306   2.686  21.043  0.00  0.00    +0.000 A 
ATOM     25  C   UNL     1       2.434   2.637  21.860  0.00  0.00    +0.000 A 
ATOM     26  C   UNL     1       3.689   2.458  21.293  0.00  0.00    +0.000 A 
ATOM     27  C   UNL     1       3.812   2.329  19.911  0.00  0.00    +0.000 A 
ATOM     28  C   UNL     1       2.686   2.371  19.065  0.00  0.00    +0.000 A 
ENDBRANCH  21  28
ENDBRANCH  19  21
ENDBRANCH   1  19
TORSDOF 4
ENDMDL
MODEL 9
REMARK VINA RESULT:      -7.9      1.680      2.800
REMARK  Name = 
REMARK  7 active torsions:
REMARK  status: ('A' for Active; 'I' for Inactive)
REMARK    1  A    between atoms: C_1  and  C_2
REMARK    2  A    between atoms: C_7  and  C_8
REMARK    3  A    between atoms: C_8  and  N_9
REMARK    4  A    between atoms: N_9  and  C_10
REMARK    5  A    between atoms: C_12  and  N_13
REMARK    6  A    between atoms: C_22  and  C_23
REMARK    7  A    between atoms: C_24  and  C_25
REMARK                            x       y       z     vdW  Elec       q    Type
REMARK                         _______ _______ _______ _____ _____    ______ ____
ROOT
ATOM      1  C   UNL     1       2.818   5.856  20.227  0.00  0.00    +0.000 A 
ATOM      2  C   UNL     1       3.680   5.413  19.282  0.00  0.00    +0.000 A 
ATOM      3  C   UNL     1       3.979   6.147  18.036  0.00  0.00    +0.000 A 
ATOM      4  C   UNL     1       3.337   7.323  17.873  0.00  0.00    +0.000 A 
ATOM      5  N   UNL     1       2.446   7.796  18.831  0.00  0.00    +0.000 N 
ATOM      6  C   UNL     1       1.708   8.966  18.867  0.00  0.00    +0.000 A 
ATOM      7  C   UNL     1       1.718  10.017  17.817  0.00  0.00    +0.000 C 
ATOM      8  C   UNL     1       1.015   8.920  20.065  0.00  0.00    +0.000 A 
ATOM      9  C   UNL     1       0.086   9.918  20.645  0.00  0.00    +0.000 C 
ATOM     10  N   UNL     1       1.289   7.762  20.750  0.00  0.00    +0.000 NA
ATOM     11  C   UNL     1       2.153   7.106  20.000  0.00  0.00    +0.000 A 
ENDROOT
BRANCH   3  12
ATOM     12  N   UNL     1       4.918   5.668  17.102  0.00  0.00    +0.000 N 
ATOM     13  C   UNL     1       4.603   4.492  16.424  0.00  0.00    +0.000 A 
ATOM     14  C   UNL     1       5.444   3.935  15.540  0.00  0.00    +0.000 A 
ATOM     15  C   UNL     1       6.709   4.550  15.257  0.00  0.00    +0.000 A 
ATOM     16  C   UNL     1       7.044   5.701  15.849  0.00  0.00    +0.000 A 
ATOM     17  C   UNL     1       6.129   6.347  16.833  0.00  0.00    +0.000 A 
ATOM     18  O   UNL     1       6.521   7.391  17.354  0.00  0.00    +0.000 OA
ENDBRANCH   3  12
BRANCH   1  19
ATOM     19  N   UNL     1       2.546   5.115  21.385  0.00  0.00    +0.000 N 
ATOM     20  H   UNL     1       3.453   4.892  21.807  0.00  0.00    +0.000 HD
BRANCH  19  21
ATOM     21  C   UNL     1       1.831   3.833  21.283  0.00  0.00    +0.000 C 
BRANCH  21  28
ATOM     22  C   UNL     1       0.524   2.945  18.645  0.00  0.00    +0.000 C 
ATOM     23  C   UNL     1       1.912   2.528  19.050  0.00  0.00    +0.000 A 
ATOM     24  C   UNL     1       2.623   1.667  18.190  0.00  0.00    +0.000 A 
ATOM     25  C   UNL     1       3.904   1.222  18.512  0.00  0.00    +0.000 A 
ATOM     26  C   UNL     1       4.497   1.626  19.700  0.00  0.00    +0.000 A 
ATOM     27  C   UNL     1       3.806   2.475  20.564  0.00  0.00    +0.000 A 
ATOM     28  C   UNL     1       2.512   2.941  20.259  0.00  0.00    +0.000 A 
ENDBRANCH  21  28
ENDBRANCH  19  21
ENDBRANCH   1  19
TORSDOF 4
ENDMDL
