MODEL 1
REMARK VINA RESULT:      -8.2      0.000      0.000
REMARK  Name = 
REMARK  7 active torsions:
REMARK  status: ('A' for Active; 'I' for Inactive)
REMARK    1  A    between atoms: C_1  and  C_2
REMARK    2  A    between atoms: C_2  and  O_3
REMARK    3  A    between atoms: O_3  and  C_4
REMARK    4  A    between atoms: C_10  and  C_12
REMARK    5  A    between atoms: C_21  and  C_22
REMARK    6  A    between atoms: C_25  and  O_26
REMARK    7  A    between atoms: O_26  and  C_27
REMARK                            x       y       z     vdW  Elec       q    Type
REMARK                         _______ _______ _______ _____ _____    ______ ____
ROOT
ATOM      1  C   UNL     1      -0.900  12.098  22.287  0.00  0.00    +0.000 A 
ATOM      2  C   UNL     1      -0.627  10.813  22.797  0.00  0.00    +0.000 A 
ATOM      3  C   UNL     1       0.046   9.863  22.030  0.00  0.00    +0.000 A 
ATOM      4  C   UNL     1       0.316  10.205  20.719  0.00  0.00    +0.000 A 
ATOM      5  C   UNL     1      -0.080  11.420  20.138  0.00  0.00    +0.000 A 
ATOM      6  C   UNL     1      -0.691  12.385  20.925  0.00  0.00    +0.000 A 
ATOM      7  S   UNL     1       0.376  11.518  18.399  0.00  0.00    +0.000 S 
ATOM      8  C   UNL     1       1.144   9.966  18.552  0.00  0.00    +0.000 A 
ATOM      9  N   UNL     1       1.827   9.192  17.752  0.00  0.00    +0.000 NA
ATOM     10  C   UNL     1       2.175   8.106  18.555  0.00  0.00    +0.000 A 
ATOM     11  C   UNL     1       1.687   8.266  19.845  0.00  0.00    +0.000 A 
ATOM     12  N   UNL     1       1.020   9.446  19.800  0.00  0.00    +0.000 N 
ENDROOT
BRANCH   1  19
ATOM     13  C   UNL     1      -6.648  14.907  22.763  0.00  0.00    +0.000 C 
ATOM     14  O   UNL     1      -7.048  15.894  23.370  0.00  0.00    +0.000 OA
ATOM     15  N   UNL     1      -5.316  14.574  22.637  0.00  0.00    +0.000 N 
ATOM     16  C   UNL     1      -4.291  15.378  23.310  0.00  0.00    +0.000 C 
ATOM     17  C   UNL     1      -3.297  14.504  24.096  0.00  0.00    +0.000 C 
ATOM     18  N   UNL     1      -2.812  13.387  23.276  0.00  0.00    +0.000 N 
ATOM     19  C   UNL     1      -1.427  13.179  23.165  0.00  0.00    +0.000 C 
ATOM     20  O   UNL     1      -0.607  13.852  23.780  0.00  0.00    +0.000 OA
ATOM     21  C   UNL     1      -3.900  12.555  22.740  0.00  0.00    +0.000 C 
ATOM     22  C   UNL     1      -4.832  13.419  21.874  0.00  0.00    +0.000 C 
BRANCH  13  23
ATOM     23  O   UNL     1      -7.465  13.974  22.208  0.00  0.00    +0.000 OA
BRANCH  23  25
ATOM     24  C   UNL     1      -7.916  11.629  22.332  0.00  0.00    +0.000 C 
ATOM     25  C   UNL     1      -7.898  12.939  23.099  0.00  0.00    +0.000 C 
ENDBRANCH  23  25
ENDBRANCH  13  23
ENDBRANCH   1  19
BRANCH  10  26
ATOM     26  C   UNL     1       2.936   6.961  18.073  0.00  0.00    +0.000 A 
ATOM     27  C   UNL     1       4.130   7.164  17.371  0.00  0.00    +0.000 A 
ATOM     28  C   UNL     1       4.847   6.080  16.853  0.00  0.00    +0.000 A 
ATOM     29  C   UNL     1       4.398   4.774  17.047  0.00  0.00    +0.000 A 
ATOM     30  C   UNL     1       3.214   4.557  17.749  0.00  0.00    +0.000 A 
ATOM     31  C   UNL     1       2.492   5.643  18.260  0.00  0.00    +0.000 A 
BRANCH  29  32
ATOM     32  O   UNL     1       5.163   3.798  16.470  0.00  0.00    +0.000 OA
ATOM     33  C   UNL     1       5.988   4.217  15.389  0.00  0.00    +0.000 C 
ENDBRANCH  29  32
ENDBRANCH  10  26
TORSDOF 5
ENDMDL
MODEL 2
REMARK VINA RESULT:      -7.8      1.547      1.965
REMARK  Name = 
REMARK  7 active torsions:
REMARK  status: ('A' for Active; 'I' for Inactive)
REMARK    1  A    between atoms: C_1  and  C_2
REMARK    2  A    between atoms: C_2  and  O_3
REMARK    3  A    between atoms: O_3  and  C_4
REMARK    4  A    between atoms: C_10  and  C_12
REMARK    5  A    between atoms: C_21  and  C_22
REMARK    6  A    between atoms: C_25  and  O_26
REMARK    7  A    between atoms: O_26  and  C_27
REMARK                            x       y       z     vdW  Elec       q    Type
REMARK                         _______ _______ _______ _____ _____    ______ ____
ROOT
ATOM      1  C   UNL     1      -0.735  12.690  22.297  0.00  0.00    +0.000 A 
ATOM      2  C   UNL     1      -0.883  11.494  23.027  0.00  0.00    +0.000 A 
ATOM      3  C   UNL     1      -0.340  10.295  22.563  0.00  0.00    +0.000 A 
ATOM      4  C   UNL     1       0.234  10.322  21.307  0.00  0.00    +0.000 A 
ATOM      5  C   UNL     1       0.261  11.464  20.492  0.00  0.00    +0.000 A 
ATOM      6  C   UNL     1      -0.222  12.666  20.986  0.00  0.00    +0.000 A 
ATOM      7  S   UNL     1       1.029  11.137  18.896  0.00  0.00    +0.000 S 
ATOM      8  C   UNL     1       1.350   9.512  19.427  0.00  0.00    +0.000 A 
ATOM      9  N   UNL     1       1.952   8.475  18.908  0.00  0.00    +0.000 NA
ATOM     10  C   UNL     1       1.872   7.509  19.911  0.00  0.00    +0.000 A 
ATOM     11  C   UNL     1       1.217   8.007  21.030  0.00  0.00    +0.000 A 
ATOM     12  N   UNL     1       0.881   9.273  20.678  0.00  0.00    +0.000 N 
ENDROOT
BRANCH   1  19
ATOM     13  C   UNL     1      -6.332  15.803  22.654  0.00  0.00    +0.000 C 
ATOM     14  O   UNL     1      -6.635  16.941  22.992  0.00  0.00    +0.000 OA
ATOM     15  N   UNL     1      -5.034  15.380  22.464  0.00  0.00    +0.000 N 
ATOM     16  C   UNL     1      -3.918  16.291  22.738  0.00  0.00    +0.000 C 
ATOM     17  C   UNL     1      -2.836  15.631  23.613  0.00  0.00    +0.000 C 
ATOM     18  N   UNL     1      -2.480  14.303  23.100  0.00  0.00    +0.000 N 
ATOM     19  C   UNL     1      -1.126  14.002  22.880  0.00  0.00    +0.000 C 
ATOM     20  O   UNL     1      -0.222  14.781  23.163  0.00  0.00    +0.000 OA
ATOM     21  C   UNL     1      -3.640  13.408  22.971  0.00  0.00    +0.000 C 
ATOM     22  C   UNL     1      -4.670  14.032  22.016  0.00  0.00    +0.000 C 
BRANCH  13  23
ATOM     23  O   UNL     1      -7.228  14.792  22.503  0.00  0.00    +0.000 OA
BRANCH  23  25
ATOM     24  C   UNL     1      -7.350  13.078  24.167  0.00  0.00    +0.000 C 
ATOM     25  C   UNL     1      -7.916  14.407  23.699  0.00  0.00    +0.000 C 
ENDBRANCH  23  25
ENDBRANCH  13  23
ENDBRANCH   1  19
BRANCH  10  26
ATOM     26  C   UNL     1       2.399   6.158  19.769  0.00  0.00    +0.000 A 
ATOM     27  C   UNL     1       1.797   5.099  20.457  0.00  0.00    +0.000 A 
ATOM     28  C   UNL     1       2.321   3.804  20.377  0.00  0.00    +0.000 A 
ATOM     29  C   UNL     1       3.441   3.540  19.589  0.00  0.00    +0.000 A 
ATOM     30  C   UNL     1       4.047   4.583  18.894  0.00  0.00    +0.000 A 
ATOM     31  C   UNL     1       3.527   5.881  18.981  0.00  0.00    +0.000 A 
BRANCH  29  32
ATOM     32  O   UNL     1       3.882   2.245  19.612  0.00  0.00    +0.000 OA
ATOM     33  C   UNL     1       3.531   1.452  18.483  0.00  0.00    +0.000 C 
ENDBRANCH  29  32
ENDBRANCH  10  26
TORSDOF 5
ENDMDL
MODEL 3
REMARK VINA RESULT:      -7.8      2.310      3.881
REMARK  Name = 
REMARK  7 active torsions:
REMARK  status: ('A' for Active; 'I' for Inactive)
REMARK    1  A    between atoms: C_1  and  C_2
REMARK    2  A    between atoms: C_2  and  O_3
REMARK    3  A    between atoms: O_3  and  C_4
REMARK    4  A    between atoms: C_10  and  C_12
REMARK    5  A    between atoms: C_21  and  C_22
REMARK    6  A    between atoms: C_25  and  O_26
REMARK    7  A    between atoms: O_26  and  C_27
REMARK                            x       y       z     vdW  Elec       q    Type
REMARK                         _______ _______ _______ _____ _____    ______ ____
ROOT
ATOM      1  C   UNL     1      -1.291  11.694  20.027  0.00  0.00    +0.000 A 
ATOM      2  C   UNL     1      -0.676  11.803  18.764  0.00  0.00    +0.000 A 
ATOM      3  C   UNL     1       0.248  10.853  18.329  0.00  0.00    +0.000 A 
ATOM      4  C   UNL     1       0.612   9.882  19.241  0.00  0.00    +0.000 A 
ATOM      5  C   UNL     1       0.130   9.837  20.559  0.00  0.00    +0.000 A 
ATOM      6  C   UNL     1      -0.835  10.746  20.963  0.00  0.00    +0.000 A 
ATOM      7  S   UNL     1       0.854   8.481  21.497  0.00  0.00    +0.000 S 
ATOM      8  C   UNL     1       1.703   7.991  20.061  0.00  0.00    +0.000 A 
ATOM      9  N   UNL     1       2.506   7.007  19.756  0.00  0.00    +0.000 NA
ATOM     10  C   UNL     1       2.783   7.212  18.404  0.00  0.00    +0.000 A 
ATOM     11  C   UNL     1       2.118   8.333  17.924  0.00  0.00    +0.000 A 
ATOM     12  N   UNL     1       1.460   8.813  19.009  0.00  0.00    +0.000 N 
ENDROOT
BRANCH   1  19
ATOM     13  C   UNL     1      -2.211  15.695  24.956  0.00  0.00    +0.000 C 
ATOM     14  O   UNL     1      -3.191  16.309  25.363  0.00  0.00    +0.000 OA
ATOM     15  N   UNL     1      -2.266  14.725  23.978  0.00  0.00    +0.000 N 
ATOM     16  C   UNL     1      -3.537  14.428  23.310  0.00  0.00    +0.000 C 
ATOM     17  C   UNL     1      -3.390  14.401  21.778  0.00  0.00    +0.000 C 
ATOM     18  N   UNL     1      -2.238  13.589  21.371  0.00  0.00    +0.000 N 
ATOM     19  C   UNL     1      -2.423  12.580  20.411  0.00  0.00    +0.000 C 
ATOM     20  O   UNL     1      -3.497  12.395  19.848  0.00  0.00    +0.000 OA
ATOM     21  C   UNL     1      -0.979  14.031  21.990  0.00  0.00    +0.000 C 
ATOM     22  C   UNL     1      -1.103  13.958  23.521  0.00  0.00    +0.000 C 
BRANCH  13  23
ATOM     23  O   UNL     1      -0.937  15.948  25.356  0.00  0.00    +0.000 OA
BRANCH  23  25
ATOM     24  C   UNL     1      -0.220  16.857  27.449  0.00  0.00    +0.000 C 
ATOM     25  C   UNL     1      -0.756  17.180  26.065  0.00  0.00    +0.000 C 
ENDBRANCH  23  25
ENDBRANCH  13  23
ENDBRANCH   1  19
BRANCH  10  26
ATOM     26  C   UNL     1       3.670   6.356  17.627  0.00  0.00    +0.000 A 
ATOM     27  C   UNL     1       3.417   4.982  17.546  0.00  0.00    +0.000 A 
ATOM     28  C   UNL     1       4.287   4.135  16.850  0.00  0.00    +0.000 A 
ATOM     29  C   UNL     1       5.411   4.649  16.203  0.00  0.00    +0.000 A 
ATOM     30  C   UNL     1       5.672   6.015  16.271  0.00  0.00    +0.000 A 
ATOM     31  C   UNL     1       4.805   6.862  16.975  0.00  0.00    +0.000 A 
BRANCH  29  32
ATOM     32  O   UNL     1       6.204   3.724  15.582  0.00  0.00    +0.000 OA
ATOM     33  C   UNL     1       6.302   3.843  14.167  0.00  0.00    +0.000 C 
ENDBRANCH  29  32
ENDBRANCH  10  26
TORSDOF 5
ENDMDL
MODEL 4
REMARK VINA RESULT:      -7.5      1.891      2.231
REMARK  Name = 
REMARK  7 active torsions:
REMARK  status: ('A' for Active; 'I' for Inactive)
REMARK    1  A    between atoms: C_1  and  C_2
REMARK    2  A    between atoms: C_2  and  O_3
REMARK    3  A    between atoms: O_3  and  C_4
REMARK    4  A    between atoms: C_10  and  C_12
REMARK    5  A    between atoms: C_21  and  C_22
REMARK    6  A    between atoms: C_25  and  O_26
REMARK    7  A    between atoms: O_26  and  C_27
REMARK                            x       y       z     vdW  Elec       q    Type
REMARK                         _______ _______ _______ _____ _____    ______ ____
ROOT
ATOM      1  C   UNL     1      -1.089  12.355  22.532  0.00  0.00    +0.000 A 
ATOM      2  C   UNL     1      -1.148  11.114  23.195  0.00  0.00    +0.000 A 
ATOM      3  C   UNL     1      -0.509   9.989  22.675  0.00  0.00    +0.000 A 
ATOM      4  C   UNL     1       0.071  10.128  21.429  0.00  0.00    +0.000 A 
ATOM      5  C   UNL     1       0.014  11.311  20.676  0.00  0.00    +0.000 A 
ATOM      6  C   UNL     1      -0.566  12.443  21.227  0.00  0.00    +0.000 A 
ATOM      7  S   UNL     1       0.818  11.132  19.074  0.00  0.00    +0.000 S 
ATOM      8  C   UNL     1       1.262   9.511  19.521  0.00  0.00    +0.000 A 
ATOM      9  N   UNL     1       1.948   8.555  18.955  0.00  0.00    +0.000 NA
ATOM     10  C   UNL     1       1.937   7.532  19.904  0.00  0.00    +0.000 A 
ATOM     11  C   UNL     1       1.236   7.916  21.040  0.00  0.00    +0.000 A 
ATOM     12  N   UNL     1       0.804   9.169  20.752  0.00  0.00    +0.000 N 
ENDROOT
BRANCH   1  19
ATOM     13  C   UNL     1      -5.810  16.442  21.061  0.00  0.00    +0.000 C 
ATOM     14  O   UNL     1      -6.129  17.543  21.496  0.00  0.00    +0.000 OA
ATOM     15  N   UNL     1      -4.633  15.801  21.385  0.00  0.00    +0.000 N 
ATOM     16  C   UNL     1      -3.714  16.402  22.357  0.00  0.00    +0.000 C 
ATOM     17  C   UNL     1      -3.271  15.393  23.432  0.00  0.00    +0.000 C 
ATOM     18  N   UNL     1      -2.839  14.129  22.825  0.00  0.00    +0.000 N 
ATOM     19  C   UNL     1      -1.587  13.599  23.179  0.00  0.00    +0.000 C 
ATOM     20  O   UNL     1      -0.868  14.115  24.029  0.00  0.00    +0.000 OA
ATOM     21  C   UNL     1      -3.866  13.527  21.962  0.00  0.00    +0.000 C 
ATOM     22  C   UNL     1      -4.229  14.505  20.831  0.00  0.00    +0.000 C 
BRANCH  13  23
ATOM     23  O   UNL     1      -6.609  15.678  20.271  0.00  0.00    +0.000 OA
BRANCH  23  25
ATOM     24  C   UNL     1      -7.852  15.318  18.260  0.00  0.00    +0.000 C 
ATOM     25  C   UNL     1      -6.785  16.163  18.935  0.00  0.00    +0.000 C 
ENDBRANCH  23  25
ENDBRANCH  13  23
ENDBRANCH   1  19
BRANCH  10  26
ATOM     26  C   UNL     1       2.571   6.236  19.696  0.00  0.00    +0.000 A 
ATOM     27  C   UNL     1       3.502   6.075  18.664  0.00  0.00    +0.000 A 
ATOM     28  C   UNL     1       4.081   4.826  18.414  0.00  0.00    +0.000 A 
ATOM     29  C   UNL     1       3.759   3.723  19.205  0.00  0.00    +0.000 A 
ATOM     30  C   UNL     1       2.837   3.871  20.239  0.00  0.00    +0.000 A 
ATOM     31  C   UNL     1       2.251   5.120  20.483  0.00  0.00    +0.000 A 
BRANCH  29  32
ATOM     32  O   UNL     1       4.363   2.549  18.848  0.00  0.00    +0.000 OA
ATOM     33  C   UNL     1       3.486   1.470  18.542  0.00  0.00    +0.000 C 
ENDBRANCH  29  32
ENDBRANCH  10  26
TORSDOF 5
ENDMDL
MODEL 5
REMARK VINA RESULT:      -7.5      1.640      2.117
REMARK  Name = 
REMARK  7 active torsions:
REMARK  status: ('A' for Active; 'I' for Inactive)
REMARK    1  A    between atoms: C_1  and  C_2
REMARK    2  A    between atoms: C_2  and  O_3
REMARK    3  A    between atoms: O_3  and  C_4
REMARK    4  A    between atoms: C_10  and  C_12
REMARK    5  A    between atoms: C_21  and  C_22
REMARK    6  A    between atoms: C_25  and  O_26
REMARK    7  A    between atoms: O_26  and  C_27
REMARK                            x       y       z     vdW  Elec       q    Type
REMARK                         _______ _______ _______ _____ _____    ______ ____
ROOT
ATOM      1  C   UNL     1      -1.093  12.547  22.563  0.00  0.00    +0.000 A 
ATOM      2  C   UNL     1      -1.160  11.285  23.186  0.00  0.00    +0.000 A 
ATOM      3  C   UNL     1      -0.544  10.169  22.619  0.00  0.00    +0.000 A 
ATOM      4  C   UNL     1       0.022  10.342  21.371  0.00  0.00    +0.000 A 
ATOM      5  C   UNL     1      -0.030  11.551  20.659  0.00  0.00    +0.000 A 
ATOM      6  C   UNL     1      -0.586  12.671  21.255  0.00  0.00    +0.000 A 
ATOM      7  S   UNL     1       0.750  11.415  19.041  0.00  0.00    +0.000 S 
ATOM      8  C   UNL     1       1.178   9.774  19.427  0.00  0.00    +0.000 A 
ATOM      9  N   UNL     1       1.842   8.828  18.820  0.00  0.00    +0.000 NA
ATOM     10  C   UNL     1       1.830   7.774  19.734  0.00  0.00    +0.000 A 
ATOM     11  C   UNL     1       1.150   8.129  20.892  0.00  0.00    +0.000 A 
ATOM     12  N   UNL     1       0.732   9.397  20.652  0.00  0.00    +0.000 N 
ENDROOT
BRANCH   1  19
ATOM     13  C   UNL     1      -5.780  16.741  21.299  0.00  0.00    +0.000 C 
ATOM     14  O   UNL     1      -6.077  17.830  21.775  0.00  0.00    +0.000 OA
ATOM     15  N   UNL     1      -4.607  16.074  21.584  0.00  0.00    +0.000 N 
ATOM     16  C   UNL     1      -3.665  16.631  22.561  0.00  0.00    +0.000 C 
ATOM     17  C   UNL     1      -3.220  15.581  23.596  0.00  0.00    +0.000 C 
ATOM     18  N   UNL     1      -2.814  14.333  22.941  0.00  0.00    +0.000 N 
ATOM     19  C   UNL     1      -1.565  13.775  23.259  0.00  0.00    +0.000 C 
ATOM     20  O   UNL     1      -0.827  14.253  24.114  0.00  0.00    +0.000 OA
ATOM     21  C   UNL     1      -3.862  13.773  22.074  0.00  0.00    +0.000 C 
ATOM     22  C   UNL     1      -4.228  14.792  20.982  0.00  0.00    +0.000 C 
BRANCH  13  23
ATOM     23  O   UNL     1      -6.600  16.014  20.496  0.00  0.00    +0.000 OA
BRANCH  23  25
ATOM     24  C   UNL     1      -7.854  14.501  21.860  0.00  0.00    +0.000 C 
ATOM     25  C   UNL     1      -7.908  15.769  21.026  0.00  0.00    +0.000 C 
ENDBRANCH  23  25
ENDBRANCH  13  23
ENDBRANCH   1  19
BRANCH  10  26
ATOM     26  C   UNL     1       2.443   6.477  19.475  0.00  0.00    +0.000 A 
ATOM     27  C   UNL     1       2.167   5.396  20.318  0.00  0.00    +0.000 A 
ATOM     28  C   UNL     1       2.787   4.158  20.119  0.00  0.00    +0.000 A 
ATOM     29  C   UNL     1       3.675   3.971  19.059  0.00  0.00    +0.000 A 
ATOM     30  C   UNL     1       3.954   5.038  18.207  0.00  0.00    +0.000 A 
ATOM     31  C   UNL     1       3.339   6.280  18.413  0.00  0.00    +0.000 A 
BRANCH  29  32
ATOM     32  O   UNL     1       4.243   2.730  18.980  0.00  0.00    +0.000 OA
ATOM     33  C   UNL     1       4.572   2.120  20.223  0.00  0.00    +0.000 C 
ENDBRANCH  29  32
ENDBRANCH  10  26
TORSDOF 5
ENDMDL
MODEL 6
REMARK VINA RESULT:      -7.4      1.633      1.904
REMARK  Name = 
REMARK  7 active torsions:
REMARK  status: ('A' for Active; 'I' for Inactive)
REMARK    1  A    between atoms: C_1  and  C_2
REMARK    2  A    between atoms: C_2  and  O_3
REMARK    3  A    between atoms: O_3  and  C_4
REMARK    4  A    between atoms: C_10  and  C_12
REMARK    5  A    between atoms: C_21  and  C_22
REMARK    6  A    between atoms: C_25  and  O_26
REMARK    7  A    between atoms: O_26  and  C_27
REMARK                            x       y       z     vdW  Elec       q    Type
REMARK                         _______ _______ _______ _____ _____    ______ ____
ROOT
ATOM      1  C   UNL     1      -0.539  12.469  21.992  0.00  0.00    +0.000 A 
ATOM      2  C   UNL     1      -0.711  11.331  22.806  0.00  0.00    +0.000 A 
ATOM      3  C   UNL     1      -0.182  10.095  22.435  0.00  0.00    +0.000 A 
ATOM      4  C   UNL     1       0.405  10.022  21.186  0.00  0.00    +0.000 A 
ATOM      5  C   UNL     1       0.455  11.101  20.291  0.00  0.00    +0.000 A 
ATOM      6  C   UNL     1      -0.015  12.343  20.691  0.00  0.00    +0.000 A 
ATOM      7  S   UNL     1       1.233  10.649  18.731  0.00  0.00    +0.000 S 
ATOM      8  C   UNL     1       1.525   9.063  19.380  0.00  0.00    +0.000 A 
ATOM      9  N   UNL     1       2.117   7.983  18.944  0.00  0.00    +0.000 NA
ATOM     10  C   UNL     1       2.014   7.093  20.014  0.00  0.00    +0.000 A 
ATOM     11  C   UNL     1       1.356   7.680  21.087  0.00  0.00    +0.000 A 
ATOM     12  N   UNL     1       1.042   8.922  20.641  0.00  0.00    +0.000 N 
ENDROOT
BRANCH   1  19
ATOM     13  C   UNL     1      -6.129  15.054  23.787  0.00  0.00    +0.000 C 
ATOM     14  O   UNL     1      -6.476  16.202  24.037  0.00  0.00    +0.000 OA
ATOM     15  N   UNL     1      -4.912  14.726  23.227  0.00  0.00    +0.000 N 
ATOM     16  C   UNL     1      -3.919  15.774  22.965  0.00  0.00    +0.000 C 
ATOM     17  C   UNL     1      -2.527  15.395  23.502  0.00  0.00    +0.000 C 
ATOM     18  N   UNL     1      -2.157  14.034  23.099  0.00  0.00    +0.000 N 
ATOM     19  C   UNL     1      -0.916  13.825  22.474  0.00  0.00    +0.000 C 
ATOM     20  O   UNL     1      -0.099  14.725  22.313  0.00  0.00    +0.000 OA
ATOM     21  C   UNL     1      -3.146  13.026  23.509  0.00  0.00    +0.000 C 
ATOM     22  C   UNL     1      -4.512  13.358  22.884  0.00  0.00    +0.000 C 
BRANCH  13  23
ATOM     23  O   UNL     1      -6.861  13.953  24.102  0.00  0.00    +0.000 OA
BRANCH  23  25
ATOM     24  C   UNL     1      -7.896  12.126  22.958  0.00  0.00    +0.000 C 
ATOM     25  C   UNL     1      -7.903  13.629  23.175  0.00  0.00    +0.000 C 
ENDBRANCH  23  25
ENDBRANCH  13  23
ENDBRANCH   1  19
BRANCH  10  26
ATOM     26  C   UNL     1       2.524   5.728  19.975  0.00  0.00    +0.000 A 
ATOM     27  C   UNL     1       3.482   5.370  19.021  0.00  0.00    +0.000 A 
ATOM     28  C   UNL     1       3.944   4.052  18.933  0.00  0.00    +0.000 A 
ATOM     29  C   UNL     1       3.475   3.075  19.811  0.00  0.00    +0.000 A 
ATOM     30  C   UNL     1       2.525   3.419  20.770  0.00  0.00    +0.000 A 
ATOM     31  C   UNL     1       2.056   4.737  20.852  0.00  0.00    +0.000 A 
BRANCH  29  32
ATOM     32  O   UNL     1       3.974   1.818  19.611  0.00  0.00    +0.000 OA
ATOM     33  C   UNL     1       3.857   1.309  18.287  0.00  0.00    +0.000 C 
ENDBRANCH  29  32
ENDBRANCH  10  26
TORSDOF 5
ENDMDL
MODEL 7
REMARK VINA RESULT:      -7.3      2.325      3.749
REMARK  Name = 
REMARK  7 active torsions:
REMARK  status: ('A' for Active; 'I' for Inactive)
REMARK    1  A    between atoms: C_1  and  C_2
REMARK    2  A    between atoms: C_2  and  O_3
REMARK    3  A    between atoms: O_3  and  C_4
REMARK    4  A    between atoms: C_10  and  C_12
REMARK    5  A    between atoms: C_21  and  C_22
REMARK    6  A    between atoms: C_25  and  O_26
REMARK    7  A    between atoms: O_26  and  C_27
REMARK                            x       y       z     vdW  Elec       q    Type
REMARK                         _______ _______ _______ _____ _____    ______ ____
ROOT
ATOM      1  C   UNL     1      -1.671  12.409  20.341  0.00  0.00    +0.000 A 
ATOM      2  C   UNL     1      -1.070  12.422  19.066  0.00  0.00    +0.000 A 
ATOM      3  C   UNL     1      -0.182  11.419  18.678  0.00  0.00    +0.000 A 
ATOM      4  C   UNL     1       0.165  10.493  19.643  0.00  0.00    +0.000 A 
ATOM      5  C   UNL     1      -0.299  10.543  20.967  0.00  0.00    +0.000 A 
ATOM      6  C   UNL     1      -1.231  11.504  21.327  0.00  0.00    +0.000 A 
ATOM      7  S   UNL     1       0.395   9.224  21.976  0.00  0.00    +0.000 S 
ATOM      8  C   UNL     1       1.209   8.622  20.562  0.00  0.00    +0.000 A 
ATOM      9  N   UNL     1       1.977   7.597  20.307  0.00  0.00    +0.000 NA
ATOM     10  C   UNL     1       2.241   7.711  18.942  0.00  0.00    +0.000 A 
ATOM     11  C   UNL     1       1.604   8.821  18.404  0.00  0.00    +0.000 A 
ATOM     12  N   UNL     1       0.977   9.387  19.465  0.00  0.00    +0.000 N 
ENDROOT
BRANCH   1  19
ATOM     13  C   UNL     1      -2.420  16.689  25.060  0.00  0.00    +0.000 C 
ATOM     14  O   UNL     1      -3.375  17.356  25.440  0.00  0.00    +0.000 OA
ATOM     15  N   UNL     1      -2.514  15.672  24.134  0.00  0.00    +0.000 N 
ATOM     16  C   UNL     1      -3.800  15.384  23.490  0.00  0.00    +0.000 C 
ATOM     17  C   UNL     1      -3.665  15.272  21.960  0.00  0.00    +0.000 C 
ATOM     18  N   UNL     1      -2.543  14.402  21.590  0.00  0.00    +0.000 N 
ATOM     19  C   UNL     1      -2.769  13.351  20.685  0.00  0.00    +0.000 C 
ATOM     20  O   UNL     1      -3.853  13.173  20.138  0.00  0.00    +0.000 OA
ATOM     21  C   UNL     1      -1.266  14.832  22.178  0.00  0.00    +0.000 C 
ATOM     22  C   UNL     1      -1.381  14.843  23.712  0.00  0.00    +0.000 C 
BRANCH  13  23
ATOM     23  O   UNL     1      -1.135  16.919  25.439  0.00  0.00    +0.000 OA
BRANCH  23  25
ATOM     24  C   UNL     1       0.617  16.647  27.045  0.00  0.00    +0.000 C 
ATOM     25  C   UNL     1      -0.882  16.786  26.843  0.00  0.00    +0.000 C 
ENDBRANCH  23  25
ENDBRANCH  13  23
ENDBRANCH   1  19
BRANCH  10  26
ATOM     26  C   UNL     1       3.091   6.782  18.207  0.00  0.00    +0.000 A 
ATOM     27  C   UNL     1       4.227   7.256  17.542  0.00  0.00    +0.000 A 
ATOM     28  C   UNL     1       5.025   6.391  16.786  0.00  0.00    +0.000 A 
ATOM     29  C   UNL     1       4.717   5.033  16.702  0.00  0.00    +0.000 A 
ATOM     30  C   UNL     1       3.593   4.546  17.365  0.00  0.00    +0.000 A 
ATOM     31  C   UNL     1       2.789   5.415  18.114  0.00  0.00    +0.000 A 
BRANCH  29  32
ATOM     32  O   UNL     1       5.550   4.290  15.912  0.00  0.00    +0.000 OA
ATOM     33  C   UNL     1       6.714   4.958  15.439  0.00  0.00    +0.000 C 
ENDBRANCH  29  32
ENDBRANCH  10  26
TORSDOF 5
ENDMDL
MODEL 8
REMARK VINA RESULT:      -7.3      2.941      4.414
REMARK  Name = 
REMARK  7 active torsions:
REMARK  status: ('A' for Active; 'I' for Inactive)
REMARK    1  A    between atoms: C_1  and  C_2
REMARK    2  A    between atoms: C_2  and  O_3
REMARK    3  A    between atoms: O_3  and  C_4
REMARK    4  A    between atoms: C_10  and  C_12
REMARK    5  A    between atoms: C_21  and  C_22
REMARK    6  A    between atoms: C_25  and  O_26
REMARK    7  A    between atoms: O_26  and  C_27
REMARK                            x       y       z     vdW  Elec       q    Type
REMARK                         _______ _______ _______ _____ _____    ______ ____
ROOT
ATOM      1  C   UNL     1      -0.609  11.641  19.936  0.00  0.00    +0.000 A 
ATOM      2  C   UNL     1       0.139  11.791  18.752  0.00  0.00    +0.000 A 
ATOM      3  C   UNL     1       0.995  10.783  18.309  0.00  0.00    +0.000 A 
ATOM      4  C   UNL     1       1.157   9.696  19.147  0.00  0.00    +0.000 A 
ATOM      5  C   UNL     1       0.541   9.589  20.403  0.00  0.00    +0.000 A 
ATOM      6  C   UNL     1      -0.357  10.565  20.808  0.00  0.00    +0.000 A 
ATOM      7  S   UNL     1       1.014   8.078  21.260  0.00  0.00    +0.000 S 
ATOM      8  C   UNL     1       1.948   7.624  19.865  0.00  0.00    +0.000 A 
ATOM      9  N   UNL     1       2.666   6.584  19.536  0.00  0.00    +0.000 NA
ATOM     10  C   UNL     1       3.100   6.877  18.243  0.00  0.00    +0.000 A 
ATOM     11  C   UNL     1       2.612   8.107  17.821  0.00  0.00    +0.000 A 
ATOM     12  N   UNL     1       1.904   8.561  18.885  0.00  0.00    +0.000 N 
ENDROOT
BRANCH   1  19
ATOM     13  C   UNL     1      -0.565  17.021  23.430  0.00  0.00    +0.000 C 
ATOM     14  O   UNL     1      -1.456  17.743  23.864  0.00  0.00    +0.000 OA
ATOM     15  N   UNL     1      -0.791  15.789  22.853  0.00  0.00    +0.000 N 
ATOM     16  C   UNL     1      -2.163  15.307  22.665  0.00  0.00    +0.000 C 
ATOM     17  C   UNL     1      -2.400  14.788  21.235  0.00  0.00    +0.000 C 
ATOM     18  N   UNL     1      -1.328  13.877  20.818  0.00  0.00    +0.000 N 
ATOM     19  C   UNL     1      -1.672  12.615  20.304  0.00  0.00    +0.000 C 
ATOM     20  O   UNL     1      -2.836  12.270  20.126  0.00  0.00    +0.000 OA
ATOM     21  C   UNL     1       0.009  14.480  20.920  0.00  0.00    +0.000 C 
ATOM     22  C   UNL     1       0.275  14.904  22.374  0.00  0.00    +0.000 C 
BRANCH  13  23
ATOM     23  O   UNL     1       0.746  17.376  23.386  0.00  0.00    +0.000 OA
BRANCH  23  25
ATOM     24  C   UNL     1       1.044  18.405  21.248  0.00  0.00    +0.000 C 
ATOM     25  C   UNL     1       1.015  18.630  22.749  0.00  0.00    +0.000 C 
ENDBRANCH  23  25
ENDBRANCH  13  23
ENDBRANCH   1  19
BRANCH  10  26
ATOM     26  C   UNL     1       3.964   5.996  17.466  0.00  0.00    +0.000 A 
ATOM     27  C   UNL     1       4.908   6.543  16.591  0.00  0.00    +0.000 A 
ATOM     28  C   UNL     1       5.710   5.716  15.797  0.00  0.00    +0.000 A 
ATOM     29  C   UNL     1       5.600   4.328  15.881  0.00  0.00    +0.000 A 
ATOM     30  C   UNL     1       4.668   3.770  16.753  0.00  0.00    +0.000 A 
ATOM     31  C   UNL     1       3.859   4.599  17.542  0.00  0.00    +0.000 A 
BRANCH  29  32
ATOM     32  O   UNL     1       6.411   3.622  15.037  0.00  0.00    +0.000 OA
ATOM     33  C   UNL     1       6.413   4.049  13.680  0.00  0.00    +0.000 C 
ENDBRANCH  29  32
ENDBRANCH  10  26
TORSDOF 5
ENDMDL
MODEL 9
REMARK VINA RESULT:      -7.3      2.413     11.500
REMARK  Name = 
REMARK  7 active torsions:
REMARK  status: ('A' for Active; 'I' for Inactive)
REMARK    1  A    between atoms: C_1  and  C_2
REMARK    2  A    between atoms: C_2  and  O_3
REMARK    3  A    between atoms: O_3  and  C_4
REMARK    4  A    between atoms: C_10  and  C_12
REMARK    5  A    between atoms: C_21  and  C_22
REMARK    6  A    between atoms: C_25  and  O_26
REMARK    7  A    between atoms: O_26  and  C_27
REMARK                            x       y       z     vdW  Elec       q    Type
REMARK                         _______ _______ _______ _____ _____    ______ ____
ROOT
ATOM      1  C   UNL     1       1.339   9.149  18.939  0.00  0.00    +0.000 A 
ATOM      2  C   UNL     1       0.409   9.988  18.293  0.00  0.00    +0.000 A 
ATOM      3  C   UNL     1      -0.488  10.765  19.025  0.00  0.00    +0.000 A 
ATOM      4  C   UNL     1      -0.496  10.578  20.394  0.00  0.00    +0.000 A 
ATOM      5  C   UNL     1       0.313   9.638  21.051  0.00  0.00    +0.000 A 
ATOM      6  C   UNL     1       1.247   8.915  20.324  0.00  0.00    +0.000 A 
ATOM      7  S   UNL     1       0.010   9.609  22.825  0.00  0.00    +0.000 S 
ATOM      8  C   UNL     1      -1.126  10.909  22.614  0.00  0.00    +0.000 A 
ATOM      9  N   UNL     1      -1.869  11.623  23.417  0.00  0.00    +0.000 NA
ATOM     10  C   UNL     1      -2.508  12.523  22.564  0.00  0.00    +0.000 A 
ATOM     11  C   UNL     1      -2.115  12.325  21.247  0.00  0.00    +0.000 A 
ATOM     12  N   UNL     1      -1.255  11.278  21.315  0.00  0.00    +0.000 N 
ENDROOT
BRANCH   1  19
ATOM     13  C   UNL     1       4.173   3.423  19.520  0.00  0.00    +0.000 C 
ATOM     14  O   UNL     1       5.166   2.926  19.003  0.00  0.00    +0.000 OA
ATOM     15  N   UNL     1       3.833   4.754  19.404  0.00  0.00    +0.000 N 
ATOM     16  C   UNL     1       4.639   5.647  18.565  0.00  0.00    +0.000 C 
ATOM     17  C   UNL     1       3.769   6.481  17.607  0.00  0.00    +0.000 C 
ATOM     18  N   UNL     1       2.643   7.098  18.318  0.00  0.00    +0.000 N 
ATOM     19  C   UNL     1       2.429   8.479  18.179  0.00  0.00    +0.000 C 
ATOM     20  O   UNL     1       3.105   9.181  17.433  0.00  0.00    +0.000 OA
ATOM     21  C   UNL     1       1.810   6.119  19.032  0.00  0.00    +0.000 C 
ATOM     22  C   UNL     1       2.669   5.361  20.058  0.00  0.00    +0.000 C 
BRANCH  13  23
ATOM     23  O   UNL     1       3.237   2.713  20.204  0.00  0.00    +0.000 OA
BRANCH  23  25
ATOM     24  C   UNL     1       1.063   2.387  19.263  0.00  0.00    +0.000 C 
ATOM     25  C   UNL     1       2.460   1.809  19.410  0.00  0.00    +0.000 C 
ENDBRANCH  23  25
ENDBRANCH  13  23
ENDBRANCH   1  19
BRANCH  10  26
ATOM     26  C   UNL     1      -3.469  13.519  23.021  0.00  0.00    +0.000 A 
ATOM     27  C   UNL     1      -4.798  13.453  22.589  0.00  0.00    +0.000 A 
ATOM     28  C   UNL     1      -5.723  14.430  22.973  0.00  0.00    +0.000 A 
ATOM     29  C   UNL     1      -5.343  15.476  23.814  0.00  0.00    +0.000 A 
ATOM     30  C   UNL     1      -4.024  15.550  24.257  0.00  0.00    +0.000 A 
ATOM     31  C   UNL     1      -3.096  14.577  23.865  0.00  0.00    +0.000 A 
BRANCH  29  32
ATOM     32  O   UNL     1      -6.322  16.388  24.097  0.00  0.00    +0.000 OA
ATOM     33  C   UNL     1      -5.890  17.736  24.242  0.00  0.00    +0.000 C 
ENDBRANCH  29  32
ENDBRANCH  10  26
TORSDOF 5
ENDMDL
