MODEL 1
REMARK VINA RESULT:      -7.3      0.000      0.000
REMARK  Name = 
REMARK  7 active torsions:
REMARK  status: ('A' for Active; 'I' for Inactive)
REMARK    1  A    between atoms: C_1  and  C_2
REMARK    2  A    between atoms: C_3  and  N_4
REMARK    3  A    between atoms: N_4  and  C_5
REMARK    4  A    between atoms: C_5  and  C_6
REMARK    5  A    between atoms: C_9  and  C_10
REMARK    6  A    between atoms: C_21  and  C_22
REMARK    7  A    between atoms: C_21  and  C_23
REMARK                            x       y       z     vdW  Elec       q    Type
REMARK                         _______ _______ _______ _____ _____    ______ ____
ROOT
ATOM      1  C   UNL     1       3.829   7.215  17.776  0.00  0.00    +0.000 C 
ENDROOT
BRANCH   1   2
ATOM      2  C   UNL     1       3.020   6.474  18.768  0.00  0.00    +0.000 A 
ATOM      3  C   UNL     1       2.287   6.907  19.855  0.00  0.00    +0.000 A 
ATOM      4  N   UNL     1       1.705   5.859  20.493  0.00  0.00    +0.000 NA
ATOM      5  C   UNL     1       2.040   4.780  19.813  0.00  0.00    +0.000 A 
ATOM      6  N   UNL     1       2.857   5.113  18.761  0.00  0.00    +0.000 N 
ATOM      7  H   UNL     1       3.249   4.461  18.096  0.00  0.00    +0.000 HD
BRANCH   5   8
ATOM      8  C   UNL     1       1.594   3.375  20.114  0.00  0.00    +0.000 C 
ATOM      9  C   UNL     1       1.135   2.643  18.844  0.00  0.00    +0.000 C 
ATOM     10  C   UNL     1       2.284   2.315  17.887  0.00  0.00    +0.000 C 
ATOM     11  C   UNL     1       3.436   1.594  18.585  0.00  0.00    +0.000 C 
ATOM     12  C   UNL     1       3.888   2.268  19.878  0.00  0.00    +0.000 C 
ATOM     13  C   UNL     1       2.717   2.588  20.808  0.00  0.00    +0.000 C 
ENDBRANCH   5   8
ENDBRANCH   1   2
BRANCH   1  14
ATOM     14  N   UNL     1       5.237   6.909  17.988  0.00  0.00    +0.000 NA
ATOM     15  H   UNL     1       5.329   6.294  18.796  0.00  0.00    +0.000 HD
BRANCH  14  18
ATOM     16  C   UNL     1       7.689   4.645  17.663  0.00  0.00    +0.000 C 
ATOM     17  C   UNL     1       6.262   4.849  17.150  0.00  0.00    +0.000 C 
ATOM     18  C   UNL     1       5.946   6.349  16.830  0.00  0.00    +0.000 C 
ATOM     19  C   UNL     1       5.207   6.590  15.486  0.00  0.00    +0.000 C 
ATOM     20  C   UNL     1       5.053   5.315  14.657  0.00  0.00    +0.000 C 
ATOM     21  C   UNL     1       4.489   4.171  15.539  0.00  0.00    +0.000 C 
ATOM     22  C   UNL     1       5.977   3.940  15.942  0.00  0.00    +0.000 C 
ATOM     23  C   UNL     1       6.346   4.440  14.482  0.00  0.00    +0.000 C 
ATOM     24  C   UNL     1       7.659   5.190  14.261  0.00  0.00    +0.000 C 
ATOM     25  C   UNL     1       6.227   3.366  13.382  0.00  0.00    +0.000 C 
ENDBRANCH  14  18
ENDBRANCH   1  14
TORSDOF 4
ENDMDL
MODEL 2
REMARK VINA RESULT:      -7.2      4.113      7.173
REMARK  Name = 
REMARK  7 active torsions:
REMARK  status: ('A' for Active; 'I' for Inactive)
REMARK    1  A    between atoms: C_1  and  C_2
REMARK    2  A    between atoms: C_3  and  N_4
REMARK    3  A    between atoms: N_4  and  C_5
REMARK    4  A    between atoms: C_5  and  C_6
REMARK    5  A    between atoms: C_9  and  C_10
REMARK    6  A    between atoms: C_21  and  C_22
REMARK    7  A    between atoms: C_21  and  C_23
REMARK                            x       y       z     vdW  Elec       q    Type
REMARK                         _______ _______ _______ _____ _____    ______ ____
ROOT
ATOM      1  C   UNL     1       1.776   7.768  20.119  0.00  0.00    +0.000 C 
ENDROOT
BRANCH   1   2
ATOM      2  C   UNL     1       1.245   8.909  20.897  0.00  0.00    +0.000 A 
ATOM      3  C   UNL     1       0.907   9.025  22.231  0.00  0.00    +0.000 A 
ATOM      4  N   UNL     1       0.449  10.274  22.505  0.00  0.00    +0.000 NA
ATOM      5  C   UNL     1       0.515  10.949  21.374  0.00  0.00    +0.000 A 
ATOM      6  N   UNL     1       0.981  10.144  20.364  0.00  0.00    +0.000 N 
ATOM      7  H   UNL     1       1.116  10.428  19.404  0.00  0.00    +0.000 HD
BRANCH   5   8
ATOM      8  C   UNL     1       0.153  12.397  21.189  0.00  0.00    +0.000 C 
ATOM      9  C   UNL     1      -0.567  12.634  19.853  0.00  0.00    +0.000 C 
ATOM     10  C   UNL     1      -1.979  12.042  19.814  0.00  0.00    +0.000 C 
ATOM     11  C   UNL     1      -2.825  12.473  21.010  0.00  0.00    +0.000 C 
ATOM     12  C   UNL     1      -2.123  12.296  22.354  0.00  0.00    +0.000 C 
ATOM     13  C   UNL     1      -0.714  12.892  22.357  0.00  0.00    +0.000 C 
ENDBRANCH   5   8
ENDBRANCH   1   2
BRANCH   1  14
ATOM     14  N   UNL     1       1.577   6.542  20.879  0.00  0.00    +0.000 NA
ATOM     15  H   UNL     1       0.585   6.302  20.877  0.00  0.00    +0.000 HD
BRANCH  14  18
ATOM     16  C   UNL     1       1.492   3.269  21.604  0.00  0.00    +0.000 C 
ATOM     17  C   UNL     1       1.434   4.153  20.357  0.00  0.00    +0.000 C 
ATOM     18  C   UNL     1       2.386   5.392  20.453  0.00  0.00    +0.000 C 
ATOM     19  C   UNL     1       3.223   5.675  19.175  0.00  0.00    +0.000 C 
ATOM     20  C   UNL     1       3.059   4.594  18.107  0.00  0.00    +0.000 C 
ATOM     21  C   UNL     1       1.554   4.299  17.874  0.00  0.00    +0.000 C 
ATOM     22  C   UNL     1       1.701   3.330  19.086  0.00  0.00    +0.000 C 
ATOM     23  C   UNL     1       3.195   3.107  18.597  0.00  0.00    +0.000 C 
ATOM     24  C   UNL     1       4.282   2.821  19.632  0.00  0.00    +0.000 C 
ATOM     25  C   UNL     1       3.354   2.087  17.452  0.00  0.00    +0.000 C 
ENDBRANCH  14  18
ENDBRANCH   1  14
TORSDOF 4
ENDMDL
MODEL 3
REMARK VINA RESULT:      -7.2      5.903      7.909
REMARK  Name = 
REMARK  7 active torsions:
REMARK  status: ('A' for Active; 'I' for Inactive)
REMARK    1  A    between atoms: C_1  and  C_2
REMARK    2  A    between atoms: C_3  and  N_4
REMARK    3  A    between atoms: N_4  and  C_5
REMARK    4  A    between atoms: C_5  and  C_6
REMARK    5  A    between atoms: C_9  and  C_10
REMARK    6  A    between atoms: C_21  and  C_22
REMARK    7  A    between atoms: C_21  and  C_23
REMARK                            x       y       z     vdW  Elec       q    Type
REMARK                         _______ _______ _______ _____ _____    ______ ____
ROOT
ATOM      1  C   UNL     1       8.529   9.787  18.194  0.00  0.00    +0.000 C 
ENDROOT
BRANCH   1   2
ATOM      2  C   UNL     1       8.130   8.369  18.056  0.00  0.00    +0.000 A 
ATOM      3  C   UNL     1       8.349   7.276  18.871  0.00  0.00    +0.000 A 
ATOM      4  N   UNL     1       7.798   6.157  18.334  0.00  0.00    +0.000 NA
ATOM      5  C   UNL     1       7.218   6.532  17.211  0.00  0.00    +0.000 A 
ATOM      6  N   UNL     1       7.413   7.874  16.997  0.00  0.00    +0.000 N 
ATOM      7  H   UNL     1       7.070   8.396  16.204  0.00  0.00    +0.000 HD
BRANCH   5   8
ATOM      8  C   UNL     1       6.436   5.643  16.283  0.00  0.00    +0.000 C 
ATOM      9  C   UNL     1       6.196   4.255  16.898  0.00  0.00    +0.000 C 
ATOM     10  C   UNL     1       5.213   4.277  18.071  0.00  0.00    +0.000 C 
ATOM     11  C   UNL     1       3.907   4.988  17.726  0.00  0.00    +0.000 C 
ATOM     12  C   UNL     1       4.106   6.352  17.069  0.00  0.00    +0.000 C 
ATOM     13  C   UNL     1       5.098   6.298  15.905  0.00  0.00    +0.000 C 
ENDBRANCH   5   8
ENDBRANCH   1   2
BRANCH   1  14
ATOM     14  N   UNL     1       9.379   9.929  19.368  0.00  0.00    +0.000 NA
ATOM     15  H   UNL     1      10.127   9.237  19.326  0.00  0.00    +0.000 HD
BRANCH  14  18
ATOM     16  C   UNL     1      11.906  11.644  17.983  0.00  0.00    +0.000 C 
ATOM     17  C   UNL     1      10.404  11.827  18.209  0.00  0.00    +0.000 C 
ATOM     18  C   UNL     1       9.931  11.271  19.594  0.00  0.00    +0.000 C 
ATOM     19  C   UNL     1       8.967  12.203  20.378  0.00  0.00    +0.000 C 
ATOM     20  C   UNL     1       8.776  13.562  19.704  0.00  0.00    +0.000 C 
ATOM     21  C   UNL     1       8.448  13.368  18.201  0.00  0.00    +0.000 C 
ATOM     22  C   UNL     1       9.995  13.298  18.018  0.00  0.00    +0.000 C 
ATOM     23  C   UNL     1      10.084  14.300  19.245  0.00  0.00    +0.000 C 
ATOM     24  C   UNL     1      11.285  14.220  20.187  0.00  0.00    +0.000 C 
ATOM     25  C   UNL     1       9.868  15.783  18.885  0.00  0.00    +0.000 C 
ENDBRANCH  14  18
ENDBRANCH   1  14
TORSDOF 4
ENDMDL
MODEL 4
REMARK VINA RESULT:      -7.2      4.484      7.955
REMARK  Name = 
REMARK  7 active torsions:
REMARK  status: ('A' for Active; 'I' for Inactive)
REMARK    1  A    between atoms: C_1  and  C_2
REMARK    2  A    between atoms: C_3  and  N_4
REMARK    3  A    between atoms: N_4  and  C_5
REMARK    4  A    between atoms: C_5  and  C_6
REMARK    5  A    between atoms: C_9  and  C_10
REMARK    6  A    between atoms: C_21  and  C_22
REMARK    7  A    between atoms: C_21  and  C_23
REMARK                            x       y       z     vdW  Elec       q    Type
REMARK                         _______ _______ _______ _____ _____    ______ ____
ROOT
ATOM      1  C   UNL     1       7.991   6.634  18.611  0.00  0.00    +0.000 C 
ENDROOT
BRANCH   1   2
ATOM      2  C   UNL     1       8.222   8.087  18.457  0.00  0.00    +0.000 A 
ATOM      3  C   UNL     1       7.749   8.993  17.528  0.00  0.00    +0.000 A 
ATOM      4  N   UNL     1       8.236  10.236  17.775  0.00  0.00    +0.000 NA
ATOM      5  C   UNL     1       8.987  10.131  18.854  0.00  0.00    +0.000 A 
ATOM      6  N   UNL     1       9.016   8.830  19.291  0.00  0.00    +0.000 N 
ATOM      7  H   UNL     1       9.526   8.495  20.096  0.00  0.00    +0.000 HD
BRANCH   5   8
ATOM      8  C   UNL     1       9.708  11.260  19.539  0.00  0.00    +0.000 C 
ATOM      9  C   UNL     1      11.186  11.321  19.126  0.00  0.00    +0.000 C 
ATOM     10  C   UNL     1      11.390  11.770  17.677  0.00  0.00    +0.000 C 
ATOM     11  C   UNL     1      10.648  13.066  17.358  0.00  0.00    +0.000 C 
ATOM     12  C   UNL     1       9.186  13.060  17.797  0.00  0.00    +0.000 C 
ATOM     13  C   UNL     1       9.016  12.601  19.247  0.00  0.00    +0.000 C 
ENDBRANCH   5   8
ENDBRANCH   1   2
BRANCH   1  14
ATOM     14  N   UNL     1       6.907   6.229  17.727  0.00  0.00    +0.000 NA
ATOM     15  H   UNL     1       7.227   5.464  17.133  0.00  0.00    +0.000 HD
BRANCH  14  18
ATOM     16  C   UNL     1       3.783   7.433  17.530  0.00  0.00    +0.000 C 
ATOM     17  C   UNL     1       4.491   6.088  17.354  0.00  0.00    +0.000 C 
ATOM     18  C   UNL     1       5.645   5.875  18.390  0.00  0.00    +0.000 C 
ATOM     19  C   UNL     1       5.678   4.471  19.054  0.00  0.00    +0.000 C 
ATOM     20  C   UNL     1       4.478   3.605  18.670  0.00  0.00    +0.000 C 
ATOM     21  C   UNL     1       4.284   3.616  17.131  0.00  0.00    +0.000 C 
ATOM     22  C   UNL     1       3.481   4.928  17.384  0.00  0.00    +0.000 C 
ATOM     23  C   UNL     1       3.067   4.286  18.776  0.00  0.00    +0.000 C 
ATOM     24  C   UNL     1       2.834   5.201  19.978  0.00  0.00    +0.000 C 
ATOM     25  C   UNL     1       1.889   3.293  18.704  0.00  0.00    +0.000 C 
ENDBRANCH  14  18
ENDBRANCH   1  14
TORSDOF 4
ENDMDL
MODEL 5
REMARK VINA RESULT:      -7.1      4.062      6.739
REMARK  Name = 
REMARK  7 active torsions:
REMARK  status: ('A' for Active; 'I' for Inactive)
REMARK    1  A    between atoms: C_1  and  C_2
REMARK    2  A    between atoms: C_3  and  N_4
REMARK    3  A    between atoms: N_4  and  C_5
REMARK    4  A    between atoms: C_5  and  C_6
REMARK    5  A    between atoms: C_9  and  C_10
REMARK    6  A    between atoms: C_21  and  C_22
REMARK    7  A    between atoms: C_21  and  C_23
REMARK                            x       y       z     vdW  Elec       q    Type
REMARK                         _______ _______ _______ _____ _____    ______ ____
ROOT
ATOM      1  C   UNL     1       1.585   8.022  21.317  0.00  0.00    +0.000 C 
ENDROOT
BRANCH   1   2
ATOM      2  C   UNL     1       0.679   9.085  20.832  0.00  0.00    +0.000 A 
ATOM      3  C   UNL     1      -0.140   9.966  21.510  0.00  0.00    +0.000 A 
ATOM      4  N   UNL     1      -0.804  10.772  20.642  0.00  0.00    +0.000 NA
ATOM      5  C   UNL     1      -0.399  10.429  19.434  0.00  0.00    +0.000 A 
ATOM      6  N   UNL     1       0.496   9.390  19.508  0.00  0.00    +0.000 N 
ATOM      7  H   UNL     1       0.945   8.948  18.719  0.00  0.00    +0.000 HD
BRANCH   5   8
ATOM      8  C   UNL     1      -0.826  11.075  18.144  0.00  0.00    +0.000 C 
ATOM      9  C   UNL     1      -1.565  10.083  17.233  0.00  0.00    +0.000 C 
ATOM     10  C   UNL     1      -2.948   9.694  17.760  0.00  0.00    +0.000 C 
ATOM     11  C   UNL     1      -3.806  10.910  18.102  0.00  0.00    +0.000 C 
ATOM     12  C   UNL     1      -3.088  11.942  18.969  0.00  0.00    +0.000 C 
ATOM     13  C   UNL     1      -1.707  12.304  18.420  0.00  0.00    +0.000 C 
ENDBRANCH   5   8
ENDBRANCH   1   2
BRANCH   1  14
ATOM     14  N   UNL     1       1.147   6.742  20.777  0.00  0.00    +0.000 NA
ATOM     15  H   UNL     1       0.454   6.905  20.048  0.00  0.00    +0.000 HD
BRANCH  14  18
ATOM     16  C   UNL     1       2.053   3.595  21.498  0.00  0.00    +0.000 C 
ATOM     17  C   UNL     1       1.650   4.402  20.262  0.00  0.00    +0.000 C 
ATOM     18  C   UNL     1       2.215   5.861  20.285  0.00  0.00    +0.000 C 
ATOM     19  C   UNL     1       2.837   6.345  18.947  0.00  0.00    +0.000 C 
ATOM     20  C   UNL     1       2.907   5.240  17.892  0.00  0.00    +0.000 C 
ATOM     21  C   UNL     1       1.535   4.526  17.777  0.00  0.00    +0.000 C 
ATOM     22  C   UNL     1       2.044   3.662  18.971  0.00  0.00    +0.000 C 
ATOM     23  C   UNL     1       3.497   3.864  18.366  0.00  0.00    +0.000 C 
ATOM     24  C   UNL     1       4.697   3.919  19.311  0.00  0.00    +0.000 C 
ATOM     25  C   UNL     1       3.853   2.908  17.209  0.00  0.00    +0.000 C 
ENDBRANCH  14  18
ENDBRANCH   1  14
TORSDOF 4
ENDMDL
MODEL 6
REMARK VINA RESULT:      -7.1      4.229      6.923
REMARK  Name = 
REMARK  7 active torsions:
REMARK  status: ('A' for Active; 'I' for Inactive)
REMARK    1  A    between atoms: C_1  and  C_2
REMARK    2  A    between atoms: C_3  and  N_4
REMARK    3  A    between atoms: N_4  and  C_5
REMARK    4  A    between atoms: C_5  and  C_6
REMARK    5  A    between atoms: C_9  and  C_10
REMARK    6  A    between atoms: C_21  and  C_22
REMARK    7  A    between atoms: C_21  and  C_23
REMARK                            x       y       z     vdW  Elec       q    Type
REMARK                         _______ _______ _______ _____ _____    ______ ____
ROOT
ATOM      1  C   UNL     1       0.858   8.083  21.718  0.00  0.00    +0.000 C 
ENDROOT
BRANCH   1   2
ATOM      2  C   UNL     1       0.185   9.269  21.145  0.00  0.00    +0.000 A 
ATOM      3  C   UNL     1      -0.380  10.376  21.746  0.00  0.00    +0.000 A 
ATOM      4  N   UNL     1      -0.896  11.220  20.815  0.00  0.00    +0.000 NA
ATOM      5  C   UNL     1      -0.644  10.674  19.641  0.00  0.00    +0.000 A 
ATOM      6  N   UNL     1       0.001   9.472  19.802  0.00  0.00    +0.000 N 
ATOM      7  H   UNL     1       0.297   8.862  19.053  0.00  0.00    +0.000 HD
BRANCH   5   8
ATOM      8  C   UNL     1      -0.988  11.266  18.302  0.00  0.00    +0.000 C 
ATOM      9  C   UNL     1      -1.493  10.194  17.323  0.00  0.00    +0.000 C 
ATOM     10  C   UNL     1      -2.875   9.646  17.689  0.00  0.00    +0.000 C 
ATOM     11  C   UNL     1      -3.902  10.754  17.913  0.00  0.00    +0.000 C 
ATOM     12  C   UNL     1      -3.416  11.862  18.844  0.00  0.00    +0.000 C 
ATOM     13  C   UNL     1      -2.032  12.383  18.456  0.00  0.00    +0.000 C 
ENDBRANCH   5   8
ENDBRANCH   1   2
BRANCH   1  14
ATOM     14  N   UNL     1       2.064   7.804  20.950  0.00  0.00    +0.000 NA
ATOM     15  H   UNL     1       2.830   7.601  21.591  0.00  0.00    +0.000 HD
BRANCH  14  18
ATOM     16  C   UNL     1       2.116   7.805  17.597  0.00  0.00    +0.000 C 
ATOM     17  C   UNL     1       2.875   7.128  18.740  0.00  0.00    +0.000 C 
ATOM     18  C   UNL     1       1.943   6.746  19.938  0.00  0.00    +0.000 C 
ATOM     19  C   UNL     1       2.168   5.322  20.515  0.00  0.00    +0.000 C 
ATOM     20  C   UNL     1       3.172   4.504  19.701  0.00  0.00    +0.000 C 
ATOM     21  C   UNL     1       4.455   5.338  19.447  0.00  0.00    +0.000 C 
ATOM     22  C   UNL     1       3.669   5.914  18.230  0.00  0.00    +0.000 C 
ATOM     23  C   UNL     1       2.961   4.496  18.145  0.00  0.00    +0.000 C 
ATOM     24  C   UNL     1       1.518   4.412  17.647  0.00  0.00    +0.000 C 
ATOM     25  C   UNL     1       3.775   3.410  17.412  0.00  0.00    +0.000 C 
ENDBRANCH  14  18
ENDBRANCH   1  14
TORSDOF 4
ENDMDL
MODEL 7
REMARK VINA RESULT:      -7.0      5.975      7.893
REMARK  Name = 
REMARK  7 active torsions:
REMARK  status: ('A' for Active; 'I' for Inactive)
REMARK    1  A    between atoms: C_1  and  C_2
REMARK    2  A    between atoms: C_3  and  N_4
REMARK    3  A    between atoms: N_4  and  C_5
REMARK    4  A    between atoms: C_5  and  C_6
REMARK    5  A    between atoms: C_9  and  C_10
REMARK    6  A    between atoms: C_21  and  C_22
REMARK    7  A    between atoms: C_21  and  C_23
REMARK                            x       y       z     vdW  Elec       q    Type
REMARK                         _______ _______ _______ _____ _____    ______ ____
ROOT
ATOM      1  C   UNL     1       8.153   9.539  17.798  0.00  0.00    +0.000 C 
ENDROOT
BRANCH   1   2
ATOM      2  C   UNL     1       7.875   8.091  17.912  0.00  0.00    +0.000 A 
ATOM      3  C   UNL     1       8.369   7.132  18.774  0.00  0.00    +0.000 A 
ATOM      4  N   UNL     1       7.828   5.916  18.504  0.00  0.00    +0.000 NA
ATOM      5  C   UNL     1       6.988   6.099  17.503  0.00  0.00    +0.000 A 
ATOM      6  N   UNL     1       7.001   7.412  17.103  0.00  0.00    +0.000 N 
ATOM      7  H   UNL     1       6.446   7.800  16.353  0.00  0.00    +0.000 HD
BRANCH   5   8
ATOM      8  C   UNL     1       6.117   5.043  16.880  0.00  0.00    +0.000 C 
ATOM      9  C   UNL     1       5.387   4.210  17.945  0.00  0.00    +0.000 C 
ATOM     10  C   UNL     1       4.299   4.993  18.682  0.00  0.00    +0.000 C 
ATOM     11  C   UNL     1       3.329   5.685  17.727  0.00  0.00    +0.000 C 
ATOM     12  C   UNL     1       4.020   6.485  16.625  0.00  0.00    +0.000 C 
ATOM     13  C   UNL     1       5.105   5.677  15.913  0.00  0.00    +0.000 C 
ENDBRANCH   5   8
ENDBRANCH   1   2
BRANCH   1  14
ATOM     14  N   UNL     1       9.281   9.875  18.656  0.00  0.00    +0.000 NA
ATOM     15  H   UNL     1      10.121   9.420  18.298  0.00  0.00    +0.000 HD
BRANCH  14  18
ATOM     16  C   UNL     1       9.010  11.900  21.315  0.00  0.00    +0.000 C 
ATOM     17  C   UNL     1      10.087  11.494  20.307  0.00  0.00    +0.000 C 
ATOM     18  C   UNL     1       9.519  11.310  18.860  0.00  0.00    +0.000 C 
ATOM     19  C   UNL     1      10.373  11.954  17.734  0.00  0.00    +0.000 C 
ATOM     20  C   UNL     1      11.545  12.774  18.274  0.00  0.00    +0.000 C 
ATOM     21  C   UNL     1      12.331  11.951  19.327  0.00  0.00    +0.000 C 
ATOM     22  C   UNL     1      11.264  12.484  20.332  0.00  0.00    +0.000 C 
ATOM     23  C   UNL     1      11.210  13.787  19.427  0.00  0.00    +0.000 C 
ATOM     24  C   UNL     1       9.895  14.557  19.306  0.00  0.00    +0.000 C 
ATOM     25  C   UNL     1      12.331  14.811  19.701  0.00  0.00    +0.000 C 
ENDBRANCH  14  18
ENDBRANCH   1  14
TORSDOF 4
ENDMDL
MODEL 8
REMARK VINA RESULT:      -7.0      4.310      6.975
REMARK  Name = 
REMARK  7 active torsions:
REMARK  status: ('A' for Active; 'I' for Inactive)
REMARK    1  A    between atoms: C_1  and  C_2
REMARK    2  A    between atoms: C_3  and  N_4
REMARK    3  A    between atoms: N_4  and  C_5
REMARK    4  A    between atoms: C_5  and  C_6
REMARK    5  A    between atoms: C_9  and  C_10
REMARK    6  A    between atoms: C_21  and  C_22
REMARK    7  A    between atoms: C_21  and  C_23
REMARK                            x       y       z     vdW  Elec       q    Type
REMARK                         _______ _______ _______ _____ _____    ______ ____
ROOT
ATOM      1  C   UNL     1       2.036   8.135  18.785  0.00  0.00    +0.000 C 
ENDROOT
BRANCH   1   2
ATOM      2  C   UNL     1       1.211   9.301  19.168  0.00  0.00    +0.000 A 
ATOM      3  C   UNL     1       0.852   9.797  20.406  0.00  0.00    +0.000 A 
ATOM      4  N   UNL     1       0.068  10.898  20.275  0.00  0.00    +0.000 NA
ATOM      5  C   UNL     1      -0.053  11.115  18.979  0.00  0.00    +0.000 A 
ATOM      6  N   UNL     1       0.618  10.149  18.270  0.00  0.00    +0.000 N 
ATOM      7  H   UNL     1       0.672  10.095  17.262  0.00  0.00    +0.000 HD
BRANCH   5   8
ATOM      8  C   UNL     1      -0.799  12.255  18.341  0.00  0.00    +0.000 C 
ATOM      9  C   UNL     1      -1.921  11.751  17.420  0.00  0.00    +0.000 C 
ATOM     10  C   UNL     1      -3.087  11.116  18.182  0.00  0.00    +0.000 C 
ATOM     11  C   UNL     1      -3.616  12.016  19.296  0.00  0.00    +0.000 C 
ATOM     12  C   UNL     1      -2.523  12.574  20.204  0.00  0.00    +0.000 C 
ATOM     13  C   UNL     1      -1.370  13.195  19.414  0.00  0.00    +0.000 C 
ENDBRANCH   5   8
ENDBRANCH   1   2
BRANCH   1  14
ATOM     14  N   UNL     1       2.269   7.310  19.963  0.00  0.00    +0.000 NA
ATOM     15  H   UNL     1       1.389   7.180  20.461  0.00  0.00    +0.000 HD
BRANCH  14  18
ATOM     16  C   UNL     1       2.132   4.332  21.497  0.00  0.00    +0.000 C 
ATOM     17  C   UNL     1       1.894   4.894  20.094  0.00  0.00    +0.000 C 
ATOM     18  C   UNL     1       2.917   6.015  19.713  0.00  0.00    +0.000 C 
ATOM     19  C   UNL     1       3.516   5.898  18.285  0.00  0.00    +0.000 C 
ATOM     20  C   UNL     1       3.095   4.615  17.569  0.00  0.00    +0.000 C 
ATOM     21  C   UNL     1       1.559   4.429  17.671  0.00  0.00    +0.000 C 
ATOM     22  C   UNL     1       1.872   3.767  19.047  0.00  0.00    +0.000 C 
ATOM     23  C   UNL     1       3.233   3.283  18.390  0.00  0.00    +0.000 C 
ATOM     24  C   UNL     1       4.476   3.143  19.268  0.00  0.00    +0.000 C 
ATOM     25  C   UNL     1       3.118   2.008  17.531  0.00  0.00    +0.000 C 
ENDBRANCH  14  18
ENDBRANCH   1  14
TORSDOF 4
ENDMDL
MODEL 9
REMARK VINA RESULT:      -7.0      3.899      7.046
REMARK  Name = 
REMARK  7 active torsions:
REMARK  status: ('A' for Active; 'I' for Inactive)
REMARK    1  A    between atoms: C_1  and  C_2
REMARK    2  A    between atoms: C_3  and  N_4
REMARK    3  A    between atoms: N_4  and  C_5
REMARK    4  A    between atoms: C_5  and  C_6
REMARK    5  A    between atoms: C_9  and  C_10
REMARK    6  A    between atoms: C_21  and  C_22
REMARK    7  A    between atoms: C_21  and  C_23
REMARK                            x       y       z     vdW  Elec       q    Type
REMARK                         _______ _______ _______ _____ _____    ______ ____
ROOT
ATOM      1  C   UNL     1       1.855   7.721  20.307  0.00  0.00    +0.000 C 
ENDROOT
BRANCH   1   2
ATOM      2  C   UNL     1       0.987   8.761  20.899  0.00  0.00    +0.000 A 
ATOM      3  C   UNL     1       0.041   8.698  21.903  0.00  0.00    +0.000 A 
ATOM      4  N   UNL     1      -0.521   9.916  22.113  0.00  0.00    +0.000 NA
ATOM      5  C   UNL     1       0.071  10.747  21.277  0.00  0.00    +0.000 A 
ATOM      6  N   UNL     1       0.988  10.075  20.506  0.00  0.00    +0.000 N 
ATOM      7  H   UNL     1       1.566  10.490  19.790  0.00  0.00    +0.000 HD
BRANCH   5   8
ATOM      8  C   UNL     1      -0.188  12.224  21.171  0.00  0.00    +0.000 C 
ATOM      9  C   UNL     1       0.791  12.902  20.201  0.00  0.00    +0.000 C 
ATOM     10  C   UNL     1       0.550  12.525  18.737  0.00  0.00    +0.000 C 
ATOM     11  C   UNL     1      -0.905  12.719  18.316  0.00  0.00    +0.000 C 
ATOM     12  C   UNL     1      -1.911  12.098  19.283  0.00  0.00    +0.000 C 
ATOM     13  C   UNL     1      -1.638  12.489  20.736  0.00  0.00    +0.000 C 
ENDBRANCH   5   8
ENDBRANCH   1   2
BRANCH   1  14
ATOM     14  N   UNL     1       1.531   6.434  20.907  0.00  0.00    +0.000 NA
ATOM     15  H   UNL     1       0.543   6.231  20.754  0.00  0.00    +0.000 HD
BRANCH  14  18
ATOM     16  C   UNL     1       1.529   3.160  21.633  0.00  0.00    +0.000 C 
ATOM     17  C   UNL     1       1.439   4.043  20.387  0.00  0.00    +0.000 C 
ATOM     18  C   UNL     1       2.363   5.303  20.474  0.00  0.00    +0.000 C 
ATOM     19  C   UNL     1       3.181   5.605  19.189  0.00  0.00    +0.000 C 
ATOM     20  C   UNL     1       3.034   4.520  18.123  0.00  0.00    +0.000 C 
ATOM     21  C   UNL     1       1.534   4.190  17.903  0.00  0.00    +0.000 C 
ATOM     22  C   UNL     1       1.714   3.225  19.113  0.00  0.00    +0.000 C 
ATOM     23  C   UNL     1       3.208   3.037  18.611  0.00  0.00    +0.000 C 
ATOM     24  C   UNL     1       4.311   2.777  19.637  0.00  0.00    +0.000 C 
ATOM     25  C   UNL     1       3.382   2.020  17.466  0.00  0.00    +0.000 C 
ENDBRANCH  14  18
ENDBRANCH   1  14
TORSDOF 4
ENDMDL
