MODEL 1
REMARK VINA RESULT:      -7.2      0.000      0.000
REMARK  Name = 
REMARK  4 active torsions:
REMARK  status: ('A' for Active; 'I' for Inactive)
REMARK    1  A    between atoms: C_2  and  C_3
REMARK    2  A    between atoms: C_3  and  C_4
REMARK    3  A    between atoms: C_4  and  N_5
REMARK    4  A    between atoms: C_14  and  C_16
REMARK                            x       y       z     vdW  Elec       q    Type
REMARK                         _______ _______ _______ _____ _____    ______ ____
ROOT
ATOM      1  O   UNL     1       5.493   3.492  18.870  0.00  0.00    +0.000 OA
ATOM      2  C   UNL     1       5.673   4.430  18.091  0.00  0.00    +0.000 C 
ATOM      3  N   UNL     1       5.030   5.645  18.247  0.00  0.00    +0.000 N 
ATOM      4  C   UNL     1       5.163   6.822  17.366  0.00  0.00    +0.000 C 
ATOM      5  C   UNL     1       3.785   7.350  16.915  0.00  0.00    +0.000 C 
ATOM      6  N   UNL     1       2.878   7.511  18.058  0.00  0.00    +0.000 N 
ATOM      7  C   UNL     1       2.207   8.721  18.222  0.00  0.00    +0.000 C 
ATOM      8  O   UNL     1       2.287   9.641  17.402  0.00  0.00    +0.000 OA
ATOM      9  C   UNL     1       2.724   6.273  18.842  0.00  0.00    +0.000 C 
ATOM     10  C   UNL     1       4.096   5.823  19.366  0.00  0.00    +0.000 C 
ENDROOT
BRANCH   7  11
ATOM     11  C   UNL     1       1.341   8.954  19.420  0.00  0.00    +0.000 A 
ATOM     12  C   UNL     1       1.575   8.315  20.643  0.00  0.00    +0.000 A 
ATOM     13  C   UNL     1       0.685   8.465  21.705  0.00  0.00    +0.000 A 
ATOM     14  C   UNL     1      -0.384   9.351  21.594  0.00  0.00    +0.000 A 
ATOM     15  C   UNL     1      -0.567  10.079  20.419  0.00  0.00    +0.000 A 
ATOM     16  C   UNL     1       0.287   9.875  19.329  0.00  0.00    +0.000 A 
ENDBRANCH   7  11
BRANCH   2  17
ATOM     17  C   UNL     1       6.613   4.286  16.915  0.00  0.00    +0.000 C 
BRANCH  17  18
ATOM     18  C   UNL     1       5.857   3.782  15.692  0.00  0.00    +0.000 C 
BRANCH  18  19
ATOM     19  N   UNL     1       6.507   4.137  14.451  0.00  0.00    +0.000 N 
ATOM     20  C   UNL     1       6.253   3.650  13.208  0.00  0.00    +0.000 A 
ATOM     21  N   UNL     1       7.010   4.271  12.332  0.00  0.00    +0.000 NA
ATOM     22  C   UNL     1       7.714   5.149  13.105  0.00  0.00    +0.000 A 
ATOM     23  N   UNL     1       7.451   5.095  14.414  0.00  0.00    +0.000 NA
ENDBRANCH  18  19
ENDBRANCH  17  18
ENDBRANCH   2  17
TORSDOF 4
ENDMDL
MODEL 2
REMARK VINA RESULT:      -7.1      3.400      4.680
REMARK  Name = 
REMARK  4 active torsions:
REMARK  status: ('A' for Active; 'I' for Inactive)
REMARK    1  A    between atoms: C_2  and  C_3
REMARK    2  A    between atoms: C_3  and  C_4
REMARK    3  A    between atoms: C_4  and  N_5
REMARK    4  A    between atoms: C_14  and  C_16
REMARK                            x       y       z     vdW  Elec       q    Type
REMARK                         _______ _______ _______ _____ _____    ______ ____
ROOT
ATOM      1  O   UNL     1       4.626   6.462  17.158  0.00  0.00    +0.000 OA
ATOM      2  C   UNL     1       4.111   6.151  18.233  0.00  0.00    +0.000 C 
ATOM      3  N   UNL     1       2.932   6.724  18.674  0.00  0.00    +0.000 N 
ATOM      4  C   UNL     1       2.244   6.436  19.947  0.00  0.00    +0.000 C 
ATOM      5  C   UNL     1       1.928   7.730  20.726  0.00  0.00    +0.000 C 
ATOM      6  N   UNL     1       1.278   8.724  19.863  0.00  0.00    +0.000 N 
ATOM      7  C   UNL     1       0.099   9.326  20.297  0.00  0.00    +0.000 C 
ATOM      8  O   UNL     1      -0.384   9.112  21.414  0.00  0.00    +0.000 OA
ATOM      9  C   UNL     1       2.062   9.029  18.654  0.00  0.00    +0.000 C 
ATOM     10  C   UNL     1       2.276   7.742  17.843  0.00  0.00    +0.000 C 
ENDROOT
BRANCH   7  11
ATOM     11  C   UNL     1      -0.639  10.280  19.410  0.00  0.00    +0.000 A 
ATOM     12  C   UNL     1      -1.533   9.841  18.426  0.00  0.00    +0.000 A 
ATOM     13  C   UNL     1      -2.117  10.746  17.543  0.00  0.00    +0.000 A 
ATOM     14  C   UNL     1      -1.907  12.112  17.710  0.00  0.00    +0.000 A 
ATOM     15  C   UNL     1      -1.107  12.572  18.756  0.00  0.00    +0.000 A 
ATOM     16  C   UNL     1      -0.465  11.658  19.599  0.00  0.00    +0.000 A 
ENDBRANCH   7  11
BRANCH   2  17
ATOM     17  C   UNL     1       4.761   5.120  19.130  0.00  0.00    +0.000 C 
BRANCH  17  18
ATOM     18  C   UNL     1       4.596   3.726  18.538  0.00  0.00    +0.000 C 
BRANCH  18  19
ATOM     19  N   UNL     1       3.248   3.222  18.672  0.00  0.00    +0.000 N 
ATOM     20  C   UNL     1       2.318   3.060  17.695  0.00  0.00    +0.000 A 
ATOM     21  N   UNL     1       1.238   2.513  18.205  0.00  0.00    +0.000 NA
ATOM     22  C   UNL     1       1.570   2.350  19.519  0.00  0.00    +0.000 A 
ATOM     23  N   UNL     1       2.788   2.783  19.858  0.00  0.00    +0.000 NA
ENDBRANCH  18  19
ENDBRANCH  17  18
ENDBRANCH   2  17
TORSDOF 4
ENDMDL
MODEL 3
REMARK VINA RESULT:      -7.1      3.390      4.682
REMARK  Name = 
REMARK  4 active torsions:
REMARK  status: ('A' for Active; 'I' for Inactive)
REMARK    1  A    between atoms: C_2  and  C_3
REMARK    2  A    between atoms: C_3  and  C_4
REMARK    3  A    between atoms: C_4  and  N_5
REMARK    4  A    between atoms: C_14  and  C_16
REMARK                            x       y       z     vdW  Elec       q    Type
REMARK                         _______ _______ _______ _____ _____    ______ ____
ROOT
ATOM      1  O   UNL     1       4.648   6.470  17.158  0.00  0.00    +0.000 OA
ATOM      2  C   UNL     1       4.136   6.224  18.252  0.00  0.00    +0.000 C 
ATOM      3  N   UNL     1       2.938   6.792  18.643  0.00  0.00    +0.000 N 
ATOM      4  C   UNL     1       2.249   6.578  19.931  0.00  0.00    +0.000 C 
ATOM      5  C   UNL     1       1.889   7.915  20.610  0.00  0.00    +0.000 C 
ATOM      6  N   UNL     1       1.215   8.822  19.673  0.00  0.00    +0.000 N 
ATOM      7  C   UNL     1       0.015   9.418  20.055  0.00  0.00    +0.000 C 
ATOM      8  O   UNL     1      -0.469   9.273  21.182  0.00  0.00    +0.000 OA
ATOM      9  C   UNL     1       1.998   9.061  18.448  0.00  0.00    +0.000 C 
ATOM     10  C   UNL     1       2.256   7.725  17.736  0.00  0.00    +0.000 C 
ENDROOT
BRANCH   7  11
ATOM     11  C   UNL     1      -0.745  10.281  19.096  0.00  0.00    +0.000 A 
ATOM     12  C   UNL     1      -0.618  11.675  19.088  0.00  0.00    +0.000 A 
ATOM     13  C   UNL     1      -1.422  12.456  18.262  0.00  0.00    +0.000 A 
ATOM     14  C   UNL     1      -2.278  11.847  17.348  0.00  0.00    +0.000 A 
ATOM     15  C   UNL     1      -2.334  10.455  17.268  0.00  0.00    +0.000 A 
ATOM     16  C   UNL     1      -1.577   9.672  18.146  0.00  0.00    +0.000 A 
ENDBRANCH   7  11
BRANCH   2  17
ATOM     17  C   UNL     1       4.811   5.282  19.225  0.00  0.00    +0.000 C 
BRANCH  17  18
ATOM     18  C   UNL     1       4.762   3.854  18.698  0.00  0.00    +0.000 C 
BRANCH  18  19
ATOM     19  N   UNL     1       3.429   3.295  18.730  0.00  0.00    +0.000 N 
ATOM     20  C   UNL     1       2.632   2.979  17.675  0.00  0.00    +0.000 A 
ATOM     21  N   UNL     1       1.522   2.432  18.115  0.00  0.00    +0.000 NA
ATOM     22  C   UNL     1       1.697   2.430  19.469  0.00  0.00    +0.000 A 
ATOM     23  N   UNL     1       2.846   2.962  19.896  0.00  0.00    +0.000 NA
ENDBRANCH  18  19
ENDBRANCH  17  18
ENDBRANCH   2  17
TORSDOF 4
ENDMDL
MODEL 4
REMARK VINA RESULT:      -7.0      3.077      9.030
REMARK  Name = 
REMARK  4 active torsions:
REMARK  status: ('A' for Active; 'I' for Inactive)
REMARK    1  A    between atoms: C_2  and  C_3
REMARK    2  A    between atoms: C_3  and  C_4
REMARK    3  A    between atoms: C_4  and  N_5
REMARK    4  A    between atoms: C_14  and  C_16
REMARK                            x       y       z     vdW  Elec       q    Type
REMARK                         _______ _______ _______ _____ _____    ______ ____
ROOT
ATOM      1  O   UNL     1       0.522   9.870  19.212  0.00  0.00    +0.000 OA
ATOM      2  C   UNL     1       0.699   8.980  20.045  0.00  0.00    +0.000 C 
ATOM      3  N   UNL     1       1.698   8.035  19.904  0.00  0.00    +0.000 N 
ATOM      4  C   UNL     1       1.984   6.922  20.832  0.00  0.00    +0.000 C 
ATOM      5  C   UNL     1       2.060   5.571  20.090  0.00  0.00    +0.000 C 
ATOM      6  N   UNL     1       2.935   5.659  18.914  0.00  0.00    +0.000 N 
ATOM      7  C   UNL     1       3.936   4.706  18.746  0.00  0.00    +0.000 C 
ATOM      8  O   UNL     1       4.072   3.743  19.508  0.00  0.00    +0.000 OA
ATOM      9  C   UNL     1       2.539   6.734  17.988  0.00  0.00    +0.000 C 
ATOM     10  C   UNL     1       2.570   8.082  18.723  0.00  0.00    +0.000 C 
ENDROOT
BRANCH   7  11
ATOM     11  C   UNL     1       4.902   4.810  17.607  0.00  0.00    +0.000 A 
ATOM     12  C   UNL     1       4.711   4.122  16.403  0.00  0.00    +0.000 A 
ATOM     13  C   UNL     1       5.683   4.150  15.406  0.00  0.00    +0.000 A 
ATOM     14  C   UNL     1       6.804   4.964  15.553  0.00  0.00    +0.000 A 
ATOM     15  C   UNL     1       6.955   5.742  16.701  0.00  0.00    +0.000 A 
ATOM     16  C   UNL     1       6.012   5.659  17.732  0.00  0.00    +0.000 A 
ENDBRANCH   7  11
BRANCH   2  17
ATOM     17  C   UNL     1      -0.186   8.881  21.269  0.00  0.00    +0.000 C 
BRANCH  17  18
ATOM     18  C   UNL     1       0.353   9.769  22.383  0.00  0.00    +0.000 C 
BRANCH  18  19
ATOM     19  N   UNL     1      -0.368  11.017  22.496  0.00  0.00    +0.000 N 
ATOM     20  C   UNL     1      -1.536  11.248  23.152  0.00  0.00    +0.000 A 
ATOM     21  N   UNL     1      -1.833  12.525  23.080  0.00  0.00    +0.000 NA
ATOM     22  C   UNL     1      -0.791  13.041  22.364  0.00  0.00    +0.000 A 
ATOM     23  N   UNL     1       0.126  12.153  21.971  0.00  0.00    +0.000 NA
ENDBRANCH  18  19
ENDBRANCH  17  18
ENDBRANCH   2  17
TORSDOF 4
ENDMDL
MODEL 5
REMARK VINA RESULT:      -6.9      3.200      9.187
REMARK  Name = 
REMARK  4 active torsions:
REMARK  status: ('A' for Active; 'I' for Inactive)
REMARK    1  A    between atoms: C_2  and  C_3
REMARK    2  A    between atoms: C_3  and  C_4
REMARK    3  A    between atoms: C_4  and  N_5
REMARK    4  A    between atoms: C_14  and  C_16
REMARK                            x       y       z     vdW  Elec       q    Type
REMARK                         _______ _______ _______ _____ _____    ______ ____
ROOT
ATOM      1  O   UNL     1       0.504  10.289  18.306  0.00  0.00    +0.000 OA
ATOM      2  C   UNL     1       0.668   9.559  19.285  0.00  0.00    +0.000 C 
ATOM      3  N   UNL     1       1.672   8.609  19.330  0.00  0.00    +0.000 N 
ATOM      4  C   UNL     1       1.944   7.678  20.442  0.00  0.00    +0.000 C 
ATOM      5  C   UNL     1       2.036   6.218  19.950  0.00  0.00    +0.000 C 
ATOM      6  N   UNL     1       2.932   6.104  18.793  0.00  0.00    +0.000 N 
ATOM      7  C   UNL     1       3.938   5.141  18.811  0.00  0.00    +0.000 C 
ATOM      8  O   UNL     1       4.061   4.327  19.732  0.00  0.00    +0.000 OA
ATOM      9  C   UNL     1       2.550   6.998  17.686  0.00  0.00    +0.000 C 
ATOM     10  C   UNL     1       2.565   8.454  18.174  0.00  0.00    +0.000 C 
ENDROOT
BRANCH   7  11
ATOM     11  C   UNL     1       4.924   5.049  17.688  0.00  0.00    +0.000 A 
ATOM     12  C   UNL     1       4.711   4.227  16.576  0.00  0.00    +0.000 A 
ATOM     13  C   UNL     1       5.697   4.078  15.603  0.00  0.00    +0.000 A 
ATOM     14  C   UNL     1       6.860   4.841  15.672  0.00  0.00    +0.000 A 
ATOM     15  C   UNL     1       7.038   5.747  16.717  0.00  0.00    +0.000 A 
ATOM     16  C   UNL     1       6.078   5.845  17.730  0.00  0.00    +0.000 A 
ENDBRANCH   7  11
BRANCH   2  17
ATOM     17  C   UNL     1      -0.238   9.671  20.492  0.00  0.00    +0.000 C 
BRANCH  17  18
ATOM     18  C   UNL     1       0.183  10.850  21.360  0.00  0.00    +0.000 C 
BRANCH  18  19
ATOM     19  N   UNL     1      -0.946  11.550  21.931  0.00  0.00    +0.000 N 
ATOM     20  C   UNL     1      -1.912  12.246  21.276  0.00  0.00    +0.000 A 
ATOM     21  N   UNL     1      -2.800  12.681  22.141  0.00  0.00    +0.000 NA
ATOM     22  C   UNL     1      -2.326  12.207  23.330  0.00  0.00    +0.000 A 
ATOM     23  N   UNL     1      -1.183  11.519  23.255  0.00  0.00    +0.000 NA
ENDBRANCH  18  19
ENDBRANCH  17  18
ENDBRANCH   2  17
TORSDOF 4
ENDMDL
MODEL 6
REMARK VINA RESULT:      -6.9      3.222      9.225
REMARK  Name = 
REMARK  4 active torsions:
REMARK  status: ('A' for Active; 'I' for Inactive)
REMARK    1  A    between atoms: C_2  and  C_3
REMARK    2  A    between atoms: C_3  and  C_4
REMARK    3  A    between atoms: C_4  and  N_5
REMARK    4  A    between atoms: C_14  and  C_16
REMARK                            x       y       z     vdW  Elec       q    Type
REMARK                         _______ _______ _______ _____ _____    ______ ____
ROOT
ATOM      1  O   UNL     1       0.495  10.290  18.329  0.00  0.00    +0.000 OA
ATOM      2  C   UNL     1       0.647   9.555  19.306  0.00  0.00    +0.000 C 
ATOM      3  N   UNL     1       1.656   8.612  19.363  0.00  0.00    +0.000 N 
ATOM      4  C   UNL     1       1.915   7.675  20.474  0.00  0.00    +0.000 C 
ATOM      5  C   UNL     1       2.026   6.219  19.975  0.00  0.00    +0.000 C 
ATOM      6  N   UNL     1       2.943   6.119  18.833  0.00  0.00    +0.000 N 
ATOM      7  C   UNL     1       3.956   5.163  18.863  0.00  0.00    +0.000 C 
ATOM      8  O   UNL     1       4.069   4.344  19.781  0.00  0.00    +0.000 OA
ATOM      9  C   UNL     1       2.575   7.017  17.725  0.00  0.00    +0.000 C 
ATOM     10  C   UNL     1       2.571   8.471  18.223  0.00  0.00    +0.000 C 
ENDROOT
BRANCH   7  11
ATOM     11  C   UNL     1       4.963   5.086  17.758  0.00  0.00    +0.000 A 
ATOM     12  C   UNL     1       6.100   5.901  17.729  0.00  0.00    +0.000 A 
ATOM     13  C   UNL     1       6.958   5.885  16.632  0.00  0.00    +0.000 A 
ATOM     14  C   UNL     1       6.753   4.968  15.604  0.00  0.00    +0.000 A 
ATOM     15  C   UNL     1       5.686   4.073  15.672  0.00  0.00    +0.000 A 
ATOM     16  C   UNL     1       4.785   4.137  16.740  0.00  0.00    +0.000 A 
ENDBRANCH   7  11
BRANCH   2  17
ATOM     17  C   UNL     1      -0.282   9.653  20.497  0.00  0.00    +0.000 C 
BRANCH  17  18
ATOM     18  C   UNL     1       0.002  10.925  21.285  0.00  0.00    +0.000 C 
BRANCH  18  19
ATOM     19  N   UNL     1      -1.188  11.484  21.885  0.00  0.00    +0.000 N 
ATOM     20  C   UNL     1      -1.605  11.368  23.174  0.00  0.00    +0.000 A 
ATOM     21  N   UNL     1      -2.700  12.074  23.345  0.00  0.00    +0.000 NA
ATOM     22  C   UNL     1      -2.908  12.619  22.110  0.00  0.00    +0.000 A 
ATOM     23  N   UNL     1      -2.015  12.275  21.177  0.00  0.00    +0.000 NA
ENDBRANCH  18  19
ENDBRANCH  17  18
ENDBRANCH   2  17
TORSDOF 4
ENDMDL
MODEL 7
REMARK VINA RESULT:      -6.9      2.250      2.934
REMARK  Name = 
REMARK  4 active torsions:
REMARK  status: ('A' for Active; 'I' for Inactive)
REMARK    1  A    between atoms: C_2  and  C_3
REMARK    2  A    between atoms: C_3  and  C_4
REMARK    3  A    between atoms: C_4  and  N_5
REMARK    4  A    between atoms: C_14  and  C_16
REMARK                            x       y       z     vdW  Elec       q    Type
REMARK                         _______ _______ _______ _____ _____    ______ ____
ROOT
ATOM      1  O   UNL     1       3.497   3.952  18.657  0.00  0.00    +0.000 OA
ATOM      2  C   UNL     1       3.768   4.964  18.008  0.00  0.00    +0.000 C 
ATOM      3  N   UNL     1       3.427   6.230  18.448  0.00  0.00    +0.000 N 
ATOM      4  C   UNL     1       3.689   7.500  17.744  0.00  0.00    +0.000 C 
ATOM      5  C   UNL     1       2.409   8.351  17.614  0.00  0.00    +0.000 C 
ATOM      6  N   UNL     1       1.718   8.472  18.904  0.00  0.00    +0.000 N 
ATOM      7  C   UNL     1       1.350   9.736  19.357  0.00  0.00    +0.000 C 
ATOM      8  O   UNL     1       1.515  10.757  18.682  0.00  0.00    +0.000 OA
ATOM      9  C   UNL     1       1.409   7.164  19.509  0.00  0.00    +0.000 C 
ATOM     10  C   UNL     1       2.710   6.376  19.722  0.00  0.00    +0.000 C 
ENDROOT
BRANCH   7  11
ATOM     11  C   UNL     1       0.722   9.908  20.705  0.00  0.00    +0.000 A 
ATOM     12  C   UNL     1       1.208   9.253  21.842  0.00  0.00    +0.000 A 
ATOM     13  C   UNL     1       0.534   9.345  23.057  0.00  0.00    +0.000 A 
ATOM     14  C   UNL     1      -0.567  10.189  23.178  0.00  0.00    +0.000 A 
ATOM     15  C   UNL     1      -0.997  10.934  22.081  0.00  0.00    +0.000 A 
ATOM     16  C   UNL     1      -0.362  10.788  20.843  0.00  0.00    +0.000 A 
ENDBRANCH   7  11
BRANCH   2  17
ATOM     17  C   UNL     1       4.490   4.860  16.682  0.00  0.00    +0.000 C 
BRANCH  17  18
ATOM     18  C   UNL     1       5.879   4.269  16.882  0.00  0.00    +0.000 C 
BRANCH  18  19
ATOM     19  N   UNL     1       6.732   5.115  17.686  0.00  0.00    +0.000 N 
ATOM     20  C   UNL     1       7.182   6.363  17.393  0.00  0.00    +0.000 A 
ATOM     21  N   UNL     1       7.878   6.826  18.406  0.00  0.00    +0.000 NA
ATOM     22  C   UNL     1       7.814   5.806  19.312  0.00  0.00    +0.000 A 
ATOM     23  N   UNL     1       7.134   4.729  18.911  0.00  0.00    +0.000 NA
ENDBRANCH  18  19
ENDBRANCH  17  18
ENDBRANCH   2  17
TORSDOF 4
ENDMDL
MODEL 8
REMARK VINA RESULT:      -6.8      2.089      3.473
REMARK  Name = 
REMARK  4 active torsions:
REMARK  status: ('A' for Active; 'I' for Inactive)
REMARK    1  A    between atoms: C_2  and  C_3
REMARK    2  A    between atoms: C_3  and  C_4
REMARK    3  A    between atoms: C_4  and  N_5
REMARK    4  A    between atoms: C_14  and  C_16
REMARK                            x       y       z     vdW  Elec       q    Type
REMARK                         _______ _______ _______ _____ _____    ______ ____
ROOT
ATOM      1  O   UNL     1       4.323   7.019  16.817  0.00  0.00    +0.000 OA
ATOM      2  C   UNL     1       3.899   6.567  17.881  0.00  0.00    +0.000 C 
ATOM      3  N   UNL     1       2.748   7.051  18.476  0.00  0.00    +0.000 N 
ATOM      4  C   UNL     1       2.165   6.593  19.752  0.00  0.00    +0.000 C 
ATOM      5  C   UNL     1       1.889   7.773  20.706  0.00  0.00    +0.000 C 
ATOM      6  N   UNL     1       1.157   8.848  20.023  0.00  0.00    +0.000 N 
ATOM      7  C   UNL     1       0.006   9.361  20.615  0.00  0.00    +0.000 C 
ATOM      8  O   UNL     1      -0.385   9.001  21.730  0.00  0.00    +0.000 OA
ATOM      9  C   UNL     1       1.840   9.318  18.806  0.00  0.00    +0.000 C 
ATOM     10  C   UNL     1       2.012   8.145  17.828  0.00  0.00    +0.000 C 
ENDROOT
BRANCH   7  11
ATOM     11  C   UNL     1      -0.815  10.396  19.910  0.00  0.00    +0.000 A 
ATOM     12  C   UNL     1      -0.978  11.690  20.419  0.00  0.00    +0.000 A 
ATOM     13  C   UNL     1      -1.838  12.594  19.800  0.00  0.00    +0.000 A 
ATOM     14  C   UNL     1      -2.452  12.254  18.597  0.00  0.00    +0.000 A 
ATOM     15  C   UNL     1      -2.211  11.007  18.019  0.00  0.00    +0.000 A 
ATOM     16  C   UNL     1      -1.403  10.075  18.678  0.00  0.00    +0.000 A 
ENDBRANCH   7  11
BRANCH   2  17
ATOM     17  C   UNL     1       4.634   5.452  18.593  0.00  0.00    +0.000 C 
BRANCH  17  18
ATOM     18  C   UNL     1       4.731   4.226  17.694  0.00  0.00    +0.000 C 
BRANCH  18  19
ATOM     19  N   UNL     1       5.768   4.350  16.694  0.00  0.00    +0.000 N 
ATOM     20  C   UNL     1       7.079   4.649  16.887  0.00  0.00    +0.000 A 
ATOM     21  N   UNL     1       7.712   4.603  15.737  0.00  0.00    +0.000 NA
ATOM     22  C   UNL     1       6.724   4.257  14.859  0.00  0.00    +0.000 A 
ATOM     23  N   UNL     1       5.511   4.104  15.397  0.00  0.00    +0.000 NA
ENDBRANCH  18  19
ENDBRANCH  17  18
ENDBRANCH   2  17
TORSDOF 4
ENDMDL
MODEL 9
REMARK VINA RESULT:      -6.8      2.076      3.446
REMARK  Name = 
REMARK  4 active torsions:
REMARK  status: ('A' for Active; 'I' for Inactive)
REMARK    1  A    between atoms: C_2  and  C_3
REMARK    2  A    between atoms: C_3  and  C_4
REMARK    3  A    between atoms: C_4  and  N_5
REMARK    4  A    between atoms: C_14  and  C_16
REMARK                            x       y       z     vdW  Elec       q    Type
REMARK                         _______ _______ _______ _____ _____    ______ ____
ROOT
ATOM      1  O   UNL     1       4.389   7.059  16.816  0.00  0.00    +0.000 OA
ATOM      2  C   UNL     1       3.934   6.567  17.850  0.00  0.00    +0.000 C 
ATOM      3  N   UNL     1       2.778   7.044  18.439  0.00  0.00    +0.000 N 
ATOM      4  C   UNL     1       2.159   6.540  19.681  0.00  0.00    +0.000 C 
ATOM      5  C   UNL     1       1.879   7.682  20.680  0.00  0.00    +0.000 C 
ATOM      6  N   UNL     1       1.180   8.797  20.029  0.00  0.00    +0.000 N 
ATOM      7  C   UNL     1       0.023   9.303  20.617  0.00  0.00    +0.000 C 
ATOM      8  O   UNL     1      -0.399   8.900  21.706  0.00  0.00    +0.000 OA
ATOM      9  C   UNL     1       1.898   9.308  18.849  0.00  0.00    +0.000 C 
ATOM     10  C   UNL     1       2.074   8.177  17.825  0.00  0.00    +0.000 C 
ENDROOT
BRANCH   7  11
ATOM     11  C   UNL     1      -0.764  10.382  19.941  0.00  0.00    +0.000 A 
ATOM     12  C   UNL     1      -1.395  10.180  18.708  0.00  0.00    +0.000 A 
ATOM     13  C   UNL     1      -2.025  11.235  18.051  0.00  0.00    +0.000 A 
ATOM     14  C   UNL     1      -2.134  12.475  18.676  0.00  0.00    +0.000 A 
ATOM     15  C   UNL     1      -1.605  12.660  19.954  0.00  0.00    +0.000 A 
ATOM     16  C   UNL     1      -0.912  11.620  20.583  0.00  0.00    +0.000 A 
ENDBRANCH   7  11
BRANCH   2  17
ATOM     17  C   UNL     1       4.635   5.410  18.527  0.00  0.00    +0.000 C 
BRANCH  17  18
ATOM     18  C   UNL     1       4.717   4.217  17.583  0.00  0.00    +0.000 C 
BRANCH  18  19
ATOM     19  N   UNL     1       5.756   4.367  16.589  0.00  0.00    +0.000 N 
ATOM     20  C   UNL     1       7.067   4.662  16.791  0.00  0.00    +0.000 A 
ATOM     21  N   UNL     1       7.702   4.644  15.641  0.00  0.00    +0.000 NA
ATOM     22  C   UNL     1       6.716   4.318  14.753  0.00  0.00    +0.000 A 
ATOM     23  N   UNL     1       5.502   4.151  15.285  0.00  0.00    +0.000 NA
ENDBRANCH  18  19
ENDBRANCH  17  18
ENDBRANCH   2  17
TORSDOF 4
ENDMDL
