MODEL 1
REMARK VINA RESULT:      -8.1      0.000      0.000
REMARK  Name = 
REMARK  10 active torsions:
REMARK  status: ('A' for Active; 'I' for Inactive)
REMARK    1  A    between atoms: C_1  and  C_2
REMARK    2  A    between atoms: C_2  and  C_3
REMARK    3  A    between atoms: C_2  and  C_4
REMARK    4  A    between atoms: C_2  and  C_7
REMARK    5  A    between atoms: C_4  and  O_6
REMARK    6  A    between atoms: C_10  and  N_11
REMARK    7  A    between atoms: N_14  and  C_15
REMARK    8  A    between atoms: C_18  and  N_19
REMARK    9  A    between atoms: C_24  and  C_25
REMARK   10  A    between atoms: C_28  and  C_29
REMARK                            x       y       z     vdW  Elec       q    Type
REMARK                         _______ _______ _______ _____ _____    ______ ____
ROOT
ATOM      1  N   UNL     1       0.653   8.497  20.487  0.00  0.00    +0.000 N 
ATOM      2  C   UNL     1       0.613   9.855  20.475  0.00  0.00    +0.000 A 
ATOM      3  N   UNL     1       0.931  10.580  19.402  0.00  0.00    +0.000 NA
ATOM      4  N   UNL     1       0.975  11.836  19.828  0.00  0.00    +0.000 N 
ATOM      5  C   UNL     1       0.550  11.979  21.114  0.00  0.00    +0.000 A 
ATOM      6  C   UNL     1       0.270  10.698  21.573  0.00  0.00    +0.000 A 
ATOM      7  H   UNL     1       0.295   8.018  21.313  0.00  0.00    +0.000 HD
ENDROOT
BRANCH   1  11
ATOM      8  C   UNL     1       3.655   6.180  18.511  0.00  0.00    +0.000 A 
ATOM      9  C   UNL     1       3.212   7.398  17.977  0.00  0.00    +0.000 A 
ATOM     10  C   UNL     1       2.234   8.152  18.632  0.00  0.00    +0.000 A 
ATOM     11  C   UNL     1       1.656   7.730  19.837  0.00  0.00    +0.000 A 
ATOM     12  C   UNL     1       2.086   6.517  20.373  0.00  0.00    +0.000 A 
ATOM     13  C   UNL     1       3.070   5.754  19.720  0.00  0.00    +0.000 A 
BRANCH   8  15
ATOM     14  C   UNL     1       5.652   6.437  17.076  0.00  0.00    +0.000 C 
ATOM     15  C   UNL     1       4.823   5.408  17.872  0.00  0.00    +0.000 C 
ATOM     16  C   UNL     1       4.389   4.294  16.890  0.00  0.00    +0.000 C 
BRANCH  15  17
ATOM     17  C   UNL     1       5.722   4.728  18.919  0.00  0.00    +0.000 C 
ATOM     18  O   UNL     1       6.511   5.312  19.654  0.00  0.00    +0.000 OA
BRANCH  17  19
ATOM     19  O   UNL     1       5.580   3.379  18.976  0.00  0.00    +0.000 OA
ATOM     20  H   UNL     1       4.665   3.091  19.174  0.00  0.00    +0.000 HD
ENDBRANCH  17  19
ENDBRANCH  15  17
ENDBRANCH   8  15
ENDBRANCH   1  11
BRANCH   4  21
ATOM     21  C   UNL     1       1.439  12.873  18.903  0.00  0.00    +0.000 C 
ATOM     22  C   UNL     1       0.253  13.560  18.203  0.00  0.00    +0.000 C 
ATOM     23  C   UNL     1      -0.441  14.626  19.053  0.00  0.00    +0.000 C 
ATOM     24  C   UNL     1       0.524  15.686  19.611  0.00  0.00    +0.000 C 
ATOM     25  C   UNL     1       1.681  14.999  20.365  0.00  0.00    +0.000 C 
ATOM     26  C   UNL     1       2.382  13.844  19.637  0.00  0.00    +0.000 C 
BRANCH  24  27
ATOM     27  N   UNL     1       0.983  16.556  18.511  0.00  0.00    +0.000 NA
ATOM     28  C   UNL     1      -0.183  17.315  17.965  0.00  0.00    +0.000 C 
ATOM     29  C   UNL     1       0.666  18.585  17.997  0.00  0.00    +0.000 C 
ATOM     30  C   UNL     1       1.529  17.843  19.026  0.00  0.00    +0.000 C 
ENDBRANCH  24  27
BRANCH  26  31
ATOM     31  C   UNL     1       3.420  14.330  18.712  0.00  0.00    +0.000 C 
ATOM     32  N   UNL     1       4.300  14.665  18.032  0.00  0.00    +0.000 NA
ENDBRANCH  26  31
ENDBRANCH   4  21
BRANCH   6  33
ATOM     33  C   UNL     1      -0.195  10.304  22.887  0.00  0.00    +0.000 C 
ATOM     34  N   UNL     1      -1.426  10.774  23.253  0.00  0.00    +0.000 N 
ATOM     35  O   UNL     1       0.452   9.582  23.638  0.00  0.00    +0.000 OA
ATOM     36  H   UNL     1      -2.018  11.323  22.650  0.00  0.00    +0.000 HD
ATOM     37  H   UNL     1      -1.787  10.489  24.154  0.00  0.00    +0.000 HD
ENDBRANCH   6  33
TORSDOF 8
ENDMDL
MODEL 2
REMARK VINA RESULT:      -8.0      1.004      1.329
REMARK  Name = 
REMARK  10 active torsions:
REMARK  status: ('A' for Active; 'I' for Inactive)
REMARK    1  A    between atoms: C_1  and  C_2
REMARK    2  A    between atoms: C_2  and  C_3
REMARK    3  A    between atoms: C_2  and  C_4
REMARK    4  A    between atoms: C_2  and  C_7
REMARK    5  A    between atoms: C_4  and  O_6
REMARK    6  A    between atoms: C_10  and  N_11
REMARK    7  A    between atoms: N_14  and  C_15
REMARK    8  A    between atoms: C_18  and  N_19
REMARK    9  A    between atoms: C_24  and  C_25
REMARK   10  A    between atoms: C_28  and  C_29
REMARK                            x       y       z     vdW  Elec       q    Type
REMARK                         _______ _______ _______ _____ _____    ______ ____
ROOT
ATOM      1  N   UNL     1       1.255   7.943  20.172  0.00  0.00    +0.000 N 
ATOM      2  C   UNL     1       1.086   9.289  20.254  0.00  0.00    +0.000 A 
ATOM      3  N   UNL     1       1.230  10.102  19.207  0.00  0.00    +0.000 NA
ATOM      4  N   UNL     1       1.198  11.330  19.710  0.00  0.00    +0.000 N 
ATOM      5  C   UNL     1       0.889  11.356  21.036  0.00  0.00    +0.000 A 
ATOM      6  C   UNL     1       0.776  10.029  21.433  0.00  0.00    +0.000 A 
ATOM      7  H   UNL     1       1.024   7.385  20.994  0.00  0.00    +0.000 HD
ENDROOT
BRANCH   1  11
ATOM      8  C   UNL     1       4.291   6.067  17.818  0.00  0.00    +0.000 A 
ATOM      9  C   UNL     1       3.849   5.495  19.018  0.00  0.00    +0.000 A 
ATOM     10  C   UNL     1       2.852   6.111  19.779  0.00  0.00    +0.000 A 
ATOM     11  C   UNL     1       2.257   7.317  19.384  0.00  0.00    +0.000 A 
ATOM     12  C   UNL     1       2.694   7.898  18.195  0.00  0.00    +0.000 A 
ATOM     13  C   UNL     1       3.696   7.283  17.424  0.00  0.00    +0.000 A 
BRANCH   8  15
ATOM     14  C   UNL     1       5.305   6.095  15.563  0.00  0.00    +0.000 C 
ATOM     15  C   UNL     1       5.290   5.334  16.905  0.00  0.00    +0.000 C 
ATOM     16  C   UNL     1       4.917   3.863  16.606  0.00  0.00    +0.000 C 
BRANCH  15  17
ATOM     17  C   UNL     1       6.712   5.304  17.492  0.00  0.00    +0.000 C 
ATOM     18  O   UNL     1       7.574   6.153  17.291  0.00  0.00    +0.000 OA
BRANCH  17  19
ATOM     19  O   UNL     1       6.962   4.226  18.278  0.00  0.00    +0.000 OA
ATOM     20  H   UNL     1       6.153   3.749  18.554  0.00  0.00    +0.000 HD
ENDBRANCH  17  19
ENDBRANCH  15  17
ENDBRANCH   8  15
ENDBRANCH   1  11
BRANCH   4  21
ATOM     21  C   UNL     1       1.471  12.459  18.817  0.00  0.00    +0.000 C 
ATOM     22  C   UNL     1       0.164  13.053  18.262  0.00  0.00    +0.000 C 
ATOM     23  C   UNL     1      -0.556  13.991  19.233  0.00  0.00    +0.000 C 
ATOM     24  C   UNL     1       0.343  15.116  19.776  0.00  0.00    +0.000 C 
ATOM     25  C   UNL     1       1.626  14.516  20.386  0.00  0.00    +0.000 C 
ATOM     26  C   UNL     1       2.372  13.483  19.531  0.00  0.00    +0.000 C 
BRANCH  24  27
ATOM     27  N   UNL     1       0.613  16.088  18.699  0.00  0.00    +0.000 NA
ATOM     28  C   UNL     1      -0.612  16.913  18.463  0.00  0.00    +0.000 C 
ATOM     29  C   UNL     1       0.267  18.163  18.456  0.00  0.00    +0.000 C 
ATOM     30  C   UNL     1       1.286  17.309  19.223  0.00  0.00    +0.000 C 
ENDBRANCH  24  27
BRANCH  26  31
ATOM     31  C   UNL     1       3.270  14.125  18.557  0.00  0.00    +0.000 C 
ATOM     32  N   UNL     1       4.013  14.682  17.857  0.00  0.00    +0.000 NA
ENDBRANCH  26  31
ENDBRANCH   4  21
BRANCH   6  33
ATOM     33  C   UNL     1       0.479   9.517  22.754  0.00  0.00    +0.000 C 
ATOM     34  N   UNL     1      -0.775   8.999  22.930  0.00  0.00    +0.000 N 
ATOM     35  O   UNL     1       1.292   9.522  23.673  0.00  0.00    +0.000 OA
ATOM     36  H   UNL     1      -1.457   8.922  22.192  0.00  0.00    +0.000 HD
ATOM     37  H   UNL     1      -0.997   8.608  23.835  0.00  0.00    +0.000 HD
ENDBRANCH   6  33
TORSDOF 8
ENDMDL
MODEL 3
REMARK VINA RESULT:      -7.7      1.044      1.410
REMARK  Name = 
REMARK  10 active torsions:
REMARK  status: ('A' for Active; 'I' for Inactive)
REMARK    1  A    between atoms: C_1  and  C_2
REMARK    2  A    between atoms: C_2  and  C_3
REMARK    3  A    between atoms: C_2  and  C_4
REMARK    4  A    between atoms: C_2  and  C_7
REMARK    5  A    between atoms: C_4  and  O_6
REMARK    6  A    between atoms: C_10  and  N_11
REMARK    7  A    between atoms: N_14  and  C_15
REMARK    8  A    between atoms: C_18  and  N_19
REMARK    9  A    between atoms: C_24  and  C_25
REMARK   10  A    between atoms: C_28  and  C_29
REMARK                            x       y       z     vdW  Elec       q    Type
REMARK                         _______ _______ _______ _____ _____    ______ ____
ROOT
ATOM      1  N   UNL     1       0.797   8.511  20.340  0.00  0.00    +0.000 N 
ATOM      2  C   UNL     1       0.716   9.868  20.362  0.00  0.00    +0.000 A 
ATOM      3  N   UNL     1       0.980  10.627  19.298  0.00  0.00    +0.000 NA
ATOM      4  N   UNL     1       1.001  11.873  19.754  0.00  0.00    +0.000 N 
ATOM      5  C   UNL     1       0.613  11.974  21.055  0.00  0.00    +0.000 A 
ATOM      6  C   UNL     1       0.385  10.674  21.492  0.00  0.00    +0.000 A 
ATOM      7  H   UNL     1       0.478   8.003  21.165  0.00  0.00    +0.000 HD
ENDROOT
BRANCH   1  11
ATOM      8  C   UNL     1       3.800   6.332  18.215  0.00  0.00    +0.000 A 
ATOM      9  C   UNL     1       3.272   7.525  17.703  0.00  0.00    +0.000 A 
ATOM     10  C   UNL     1       2.295   8.234  18.406  0.00  0.00    +0.000 A 
ATOM     11  C   UNL     1       1.800   7.790  19.640  0.00  0.00    +0.000 A 
ATOM     12  C   UNL     1       2.314   6.601  20.155  0.00  0.00    +0.000 A 
ATOM     13  C   UNL     1       3.298   5.883  19.453  0.00  0.00    +0.000 A 
BRANCH   8  15
ATOM     14  C   UNL     1       4.380   4.348  16.858  0.00  0.00    +0.000 C 
ATOM     15  C   UNL     1       4.968   5.613  17.518  0.00  0.00    +0.000 C 
ATOM     16  C   UNL     1       6.099   5.162  18.472  0.00  0.00    +0.000 C 
BRANCH  15  17
ATOM     17  C   UNL     1       5.638   6.485  16.442  0.00  0.00    +0.000 C 
ATOM     18  O   UNL     1       5.316   6.515  15.259  0.00  0.00    +0.000 OA
BRANCH  17  19
ATOM     19  O   UNL     1       6.658   7.250  16.908  0.00  0.00    +0.000 OA
ATOM     20  H   UNL     1       6.795   7.170  17.874  0.00  0.00    +0.000 HD
ENDBRANCH  17  19
ENDBRANCH  15  17
ENDBRANCH   8  15
ENDBRANCH   1  11
BRANCH   4  21
ATOM     21  C   UNL     1       1.405  12.946  18.841  0.00  0.00    +0.000 C 
ATOM     22  C   UNL     1       0.178  13.609  18.190  0.00  0.00    +0.000 C 
ATOM     23  C   UNL     1      -0.526  14.632  19.084  0.00  0.00    +0.000 C 
ATOM     24  C   UNL     1       0.420  15.710  19.639  0.00  0.00    +0.000 C 
ATOM     25  C   UNL     1       1.620  15.045  20.345  0.00  0.00    +0.000 C 
ATOM     26  C   UNL     1       2.336  13.930  19.571  0.00  0.00    +0.000 C 
BRANCH  24  27
ATOM     27  N   UNL     1       0.820  16.619  18.547  0.00  0.00    +0.000 NA
ATOM     28  C   UNL     1      -0.394  17.308  18.012  0.00  0.00    +0.000 C 
ATOM     29  C   UNL     1       0.372  18.629  18.055  0.00  0.00    +0.000 C 
ATOM     30  C   UNL     1       1.284  17.933  19.075  0.00  0.00    +0.000 C 
ENDBRANCH  24  27
BRANCH  26  31
ATOM     31  C   UNL     1       3.332  14.470  18.630  0.00  0.00    +0.000 C 
ATOM     32  N   UNL     1       4.053  14.892  17.822  0.00  0.00    +0.000 NA
ENDBRANCH  26  31
ENDBRANCH   4  21
BRANCH   6  33
ATOM     33  C   UNL     1      -0.026  10.235  22.808  0.00  0.00    +0.000 C 
ATOM     34  N   UNL     1      -1.268  10.639  23.215  0.00  0.00    +0.000 N 
ATOM     35  O   UNL     1       0.673   9.531  23.529  0.00  0.00    +0.000 OA
ATOM     36  H   UNL     1      -1.901  11.171  22.637  0.00  0.00    +0.000 HD
ATOM     37  H   UNL     1      -1.591  10.322  24.119  0.00  0.00    +0.000 HD
ENDBRANCH   6  33
TORSDOF 8
ENDMDL
MODEL 4
REMARK VINA RESULT:      -7.7      0.940      1.164
REMARK  Name = 
REMARK  10 active torsions:
REMARK  status: ('A' for Active; 'I' for Inactive)
REMARK    1  A    between atoms: C_1  and  C_2
REMARK    2  A    between atoms: C_2  and  C_3
REMARK    3  A    between atoms: C_2  and  C_4
REMARK    4  A    between atoms: C_2  and  C_7
REMARK    5  A    between atoms: C_4  and  O_6
REMARK    6  A    between atoms: C_10  and  N_11
REMARK    7  A    between atoms: N_14  and  C_15
REMARK    8  A    between atoms: C_18  and  N_19
REMARK    9  A    between atoms: C_24  and  C_25
REMARK   10  A    between atoms: C_28  and  C_29
REMARK                            x       y       z     vdW  Elec       q    Type
REMARK                         _______ _______ _______ _____ _____    ______ ____
ROOT
ATOM      1  N   UNL     1       1.170   8.110  20.181  0.00  0.00    +0.000 N 
ATOM      2  C   UNL     1       0.945   9.447  20.273  0.00  0.00    +0.000 A 
ATOM      3  N   UNL     1       1.049  10.272  19.232  0.00  0.00    +0.000 NA
ATOM      4  N   UNL     1       0.967  11.494  19.743  0.00  0.00    +0.000 N 
ATOM      5  C   UNL     1       0.662  11.499  21.070  0.00  0.00    +0.000 A 
ATOM      6  C   UNL     1       0.608  10.165  21.459  0.00  0.00    +0.000 A 
ATOM      7  H   UNL     1       0.967   7.537  21.001  0.00  0.00    +0.000 HD
ENDROOT
BRANCH   1  11
ATOM      8  C   UNL     1       4.236   6.366  17.764  0.00  0.00    +0.000 A 
ATOM      9  C   UNL     1       3.606   7.559  17.386  0.00  0.00    +0.000 A 
ATOM     10  C   UNL     1       2.608   8.126  18.184  0.00  0.00    +0.000 A 
ATOM     11  C   UNL     1       2.194   7.533  19.385  0.00  0.00    +0.000 A 
ATOM     12  C   UNL     1       2.810   6.343  19.767  0.00  0.00    +0.000 A 
ATOM     13  C   UNL     1       3.815   5.768  18.969  0.00  0.00    +0.000 A 
BRANCH   8  15
ATOM     14  C   UNL     1       6.676   6.580  17.428  0.00  0.00    +0.000 C 
ATOM     15  C   UNL     1       5.424   5.804  16.965  0.00  0.00    +0.000 C 
ATOM     16  C   UNL     1       5.303   5.980  15.433  0.00  0.00    +0.000 C 
BRANCH  15  17
ATOM     17  C   UNL     1       5.638   4.299  17.207  0.00  0.00    +0.000 C 
ATOM     18  O   UNL     1       4.982   3.403  16.687  0.00  0.00    +0.000 OA
BRANCH  17  19
ATOM     19  O   UNL     1       6.643   4.017  18.075  0.00  0.00    +0.000 OA
ATOM     20  H   UNL     1       7.263   4.762  18.209  0.00  0.00    +0.000 HD
ENDBRANCH  17  19
ENDBRANCH  15  17
ENDBRANCH   8  15
ENDBRANCH   1  11
BRANCH   4  21
ATOM     21  C   UNL     1       1.187  12.640  18.857  0.00  0.00    +0.000 C 
ATOM     22  C   UNL     1      -0.150  13.247  18.396  0.00  0.00    +0.000 C 
ATOM     23  C   UNL     1      -0.805  14.168  19.428  0.00  0.00    +0.000 C 
ATOM     24  C   UNL     1       0.129  15.280  19.935  0.00  0.00    +0.000 C 
ATOM     25  C   UNL     1       1.445  14.666  20.453  0.00  0.00    +0.000 C 
ATOM     26  C   UNL     1       2.134  13.648  19.533  0.00  0.00    +0.000 C 
BRANCH  24  27
ATOM     27  N   UNL     1       0.334  16.273  18.862  0.00  0.00    +0.000 NA
ATOM     28  C   UNL     1      -0.889  17.124  18.739  0.00  0.00    +0.000 C 
ATOM     29  C   UNL     1       0.010  18.358  18.692  0.00  0.00    +0.000 C 
ATOM     30  C   UNL     1       1.068  17.469  19.361  0.00  0.00    +0.000 C 
ENDBRANCH  24  27
BRANCH  26  31
ATOM     31  C   UNL     1       2.972  14.308  18.518  0.00  0.00    +0.000 C 
ATOM     32  N   UNL     1       3.611  14.908  17.756  0.00  0.00    +0.000 NA
ENDBRANCH  26  31
ENDBRANCH   4  21
BRANCH   6  33
ATOM     33  C   UNL     1       0.339   9.631  22.777  0.00  0.00    +0.000 C 
ATOM     34  N   UNL     1      -0.914   9.122  22.975  0.00  0.00    +0.000 N 
ATOM     35  O   UNL     1       1.174   9.613  23.675  0.00  0.00    +0.000 OA
ATOM     36  H   UNL     1      -1.616   9.064  22.253  0.00  0.00    +0.000 HD
ATOM     37  H   UNL     1      -1.118   8.716  23.879  0.00  0.00    +0.000 HD
ENDBRANCH   6  33
TORSDOF 8
ENDMDL
MODEL 5
REMARK VINA RESULT:      -7.7      1.246      1.761
REMARK  Name = 
REMARK  10 active torsions:
REMARK  status: ('A' for Active; 'I' for Inactive)
REMARK    1  A    between atoms: C_1  and  C_2
REMARK    2  A    between atoms: C_2  and  C_3
REMARK    3  A    between atoms: C_2  and  C_4
REMARK    4  A    between atoms: C_2  and  C_7
REMARK    5  A    between atoms: C_4  and  O_6
REMARK    6  A    between atoms: C_10  and  N_11
REMARK    7  A    between atoms: N_14  and  C_15
REMARK    8  A    between atoms: C_18  and  N_19
REMARK    9  A    between atoms: C_24  and  C_25
REMARK   10  A    between atoms: C_28  and  C_29
REMARK                            x       y       z     vdW  Elec       q    Type
REMARK                         _______ _______ _______ _____ _____    ______ ____
ROOT
ATOM      1  N   UNL     1       1.136   7.948  20.354  0.00  0.00    +0.000 N 
ATOM      2  C   UNL     1       0.984   9.297  20.413  0.00  0.00    +0.000 A 
ATOM      3  N   UNL     1       1.180  10.095  19.362  0.00  0.00    +0.000 NA
ATOM      4  N   UNL     1       1.146  11.329  19.848  0.00  0.00    +0.000 N 
ATOM      5  C   UNL     1       0.785  11.377  21.161  0.00  0.00    +0.000 A 
ATOM      6  C   UNL     1       0.637  10.057  21.569  0.00  0.00    +0.000 A 
ATOM      7  H   UNL     1       0.865   7.404  21.173  0.00  0.00    +0.000 HD
ENDROOT
BRANCH   1  11
ATOM      8  C   UNL     1       4.236   6.004  18.142  0.00  0.00    +0.000 A 
ATOM      9  C   UNL     1       3.838   5.532  19.400  0.00  0.00    +0.000 A 
ATOM     10  C   UNL     1       2.821   6.169  20.115  0.00  0.00    +0.000 A 
ATOM     11  C   UNL     1       2.159   7.299  19.614  0.00  0.00    +0.000 A 
ATOM     12  C   UNL     1       2.551   7.780  18.366  0.00  0.00    +0.000 A 
ATOM     13  C   UNL     1       3.573   7.143  17.641  0.00  0.00    +0.000 A 
BRANCH   8  15
ATOM     14  C   UNL     1       4.498   4.064  16.631  0.00  0.00    +0.000 C 
ATOM     15  C   UNL     1       5.259   5.235  17.288  0.00  0.00    +0.000 C 
ATOM     16  C   UNL     1       6.438   4.636  18.092  0.00  0.00    +0.000 C 
BRANCH  15  17
ATOM     17  C   UNL     1       5.891   6.112  16.193  0.00  0.00    +0.000 C 
ATOM     18  O   UNL     1       5.609   6.059  15.000  0.00  0.00    +0.000 OA
BRANCH  17  19
ATOM     19  O   UNL     1       6.823   6.984  16.654  0.00  0.00    +0.000 OA
ATOM     20  H   UNL     1       7.682   6.562  16.863  0.00  0.00    +0.000 HD
ENDBRANCH  17  19
ENDBRANCH  15  17
ENDBRANCH   8  15
ENDBRANCH   1  11
BRANCH   4  21
ATOM     21  C   UNL     1       1.469  12.443  18.954  0.00  0.00    +0.000 C 
ATOM     22  C   UNL     1       0.198  13.016  18.301  0.00  0.00    +0.000 C 
ATOM     23  C   UNL     1      -0.591  13.967  19.204  0.00  0.00    +0.000 C 
ATOM     24  C   UNL     1       0.262  15.109  19.782  0.00  0.00    +0.000 C 
ATOM     25  C   UNL     1       1.506  14.531  20.488  0.00  0.00    +0.000 C 
ATOM     26  C   UNL     1       2.314  13.488  19.705  0.00  0.00    +0.000 C 
BRANCH  24  27
ATOM     27  N   UNL     1       0.596  16.062  18.706  0.00  0.00    +0.000 NA
ATOM     28  C   UNL     1      -0.600  16.910  18.411  0.00  0.00    +0.000 C 
ATOM     29  C   UNL     1       0.304  18.141  18.426  0.00  0.00    +0.000 C 
ATOM     30  C   UNL     1       1.273  17.276  19.244  0.00  0.00    +0.000 C 
ENDBRANCH  24  27
BRANCH  26  31
ATOM     31  C   UNL     1       3.271  14.119  18.780  0.00  0.00    +0.000 C 
ATOM     32  N   UNL     1       4.069  14.537  18.046  0.00  0.00    +0.000 NA
ENDBRANCH  26  31
ENDBRANCH   4  21
BRANCH   6  33
ATOM     33  C   UNL     1       0.282   9.565  22.884  0.00  0.00    +0.000 C 
ATOM     34  N   UNL     1      -0.980   9.055  23.013  0.00  0.00    +0.000 N 
ATOM     35  O   UNL     1       1.055   9.582  23.836  0.00  0.00    +0.000 OA
ATOM     36  H   UNL     1      -1.631   8.969  22.247  0.00  0.00    +0.000 HD
ATOM     37  H   UNL     1      -1.243   8.678  23.914  0.00  0.00    +0.000 HD
ENDBRANCH   6  33
TORSDOF 8
ENDMDL
MODEL 6
REMARK VINA RESULT:      -7.5      4.108      9.217
REMARK  Name = 
REMARK  10 active torsions:
REMARK  status: ('A' for Active; 'I' for Inactive)
REMARK    1  A    between atoms: C_1  and  C_2
REMARK    2  A    between atoms: C_2  and  C_3
REMARK    3  A    between atoms: C_2  and  C_4
REMARK    4  A    between atoms: C_2  and  C_7
REMARK    5  A    between atoms: C_4  and  O_6
REMARK    6  A    between atoms: C_10  and  N_11
REMARK    7  A    between atoms: N_14  and  C_15
REMARK    8  A    between atoms: C_18  and  N_19
REMARK    9  A    between atoms: C_24  and  C_25
REMARK   10  A    between atoms: C_28  and  C_29
REMARK                            x       y       z     vdW  Elec       q    Type
REMARK                         _______ _______ _______ _____ _____    ______ ____
ROOT
ATOM      1  N   UNL     1       1.972   5.981  20.715  0.00  0.00    +0.000 N 
ATOM      2  C   UNL     1       2.913   5.243  20.070  0.00  0.00    +0.000 A 
ATOM      3  N   UNL     1       4.065   5.755  19.638  0.00  0.00    +0.000 NA
ATOM      4  N   UNL     1       4.613   4.806  18.891  0.00  0.00    +0.000 N 
ATOM      5  C   UNL     1       3.930   3.628  18.937  0.00  0.00    +0.000 A 
ATOM      6  C   UNL     1       2.813   3.861  19.730  0.00  0.00    +0.000 A 
ATOM      7  H   UNL     1       1.167   5.490  21.104  0.00  0.00    +0.000 HD
ENDROOT
BRANCH   1  11
ATOM      8  C   UNL     1       0.970  10.010  19.691  0.00  0.00    +0.000 A 
ATOM      9  C   UNL     1       0.756   9.517  20.985  0.00  0.00    +0.000 A 
ATOM     10  C   UNL     1       1.091   8.200  21.314  0.00  0.00    +0.000 A 
ATOM     11  C   UNL     1       1.648   7.321  20.375  0.00  0.00    +0.000 A 
ATOM     12  C   UNL     1       1.859   7.800  19.083  0.00  0.00    +0.000 A 
ATOM     13  C   UNL     1       1.526   9.123  18.747  0.00  0.00    +0.000 A 
BRANCH   8  15
ATOM     14  C   UNL     1       1.940  11.955  18.514  0.00  0.00    +0.000 C 
ATOM     15  C   UNL     1       0.731  11.491  19.353  0.00  0.00    +0.000 C 
ATOM     16  C   UNL     1       0.631  12.419  20.587  0.00  0.00    +0.000 C 
BRANCH  15  17
ATOM     17  C   UNL     1      -0.563  11.711  18.549  0.00  0.00    +0.000 C 
ATOM     18  O   UNL     1      -1.533  10.961  18.560  0.00  0.00    +0.000 OA
BRANCH  17  19
ATOM     19  O   UNL     1      -0.556  12.836  17.790  0.00  0.00    +0.000 OA
ATOM     20  H   UNL     1       0.242  12.925  17.231  0.00  0.00    +0.000 HD
ENDBRANCH  17  19
ENDBRANCH  15  17
ENDBRANCH   8  15
ENDBRANCH   1  11
BRANCH   4  21
ATOM     21  C   UNL     1       5.840   5.116  18.152  0.00  0.00    +0.000 C 
ATOM     22  C   UNL     1       6.315   3.902  17.333  0.00  0.00    +0.000 C 
ATOM     23  C   UNL     1       5.566   3.710  16.013  0.00  0.00    +0.000 C 
ATOM     24  C   UNL     1       5.555   4.968  15.128  0.00  0.00    +0.000 C 
ATOM     25  C   UNL     1       5.022   6.172  15.931  0.00  0.00    +0.000 C 
ATOM     26  C   UNL     1       5.638   6.395  17.319  0.00  0.00    +0.000 C 
BRANCH  24  27
ATOM     27  N   UNL     1       6.906   5.189  14.577  0.00  0.00    +0.000 NA
ATOM     28  C   UNL     1       7.243   4.076  13.637  0.00  0.00    +0.000 C 
ATOM     29  C   UNL     1       7.745   5.114  12.634  0.00  0.00    +0.000 C 
ATOM     30  C   UNL     1       6.873   6.113  13.408  0.00  0.00    +0.000 C 
ENDBRANCH  24  27
BRANCH  26  31
ATOM     31  C   UNL     1       6.901   7.148  17.242  0.00  0.00    +0.000 C 
ATOM     32  N   UNL     1       7.852   7.807  17.137  0.00  0.00    +0.000 NA
ENDBRANCH  26  31
ENDBRANCH   4  21
BRANCH   6  33
ATOM     33  C   UNL     1       1.756   2.933  20.075  0.00  0.00    +0.000 C 
ATOM     34  N   UNL     1       1.525   1.926  19.179  0.00  0.00    +0.000 N 
ATOM     35  O   UNL     1       1.102   3.017  21.109  0.00  0.00    +0.000 OA
ATOM     36  H   UNL     1       2.073   1.783  18.343  0.00  0.00    +0.000 HD
ATOM     37  H   UNL     1       0.813   1.248  19.410  0.00  0.00    +0.000 HD
ENDBRANCH   6  33
TORSDOF 8
ENDMDL
MODEL 7
REMARK VINA RESULT:      -7.5      1.216      1.543
REMARK  Name = 
REMARK  10 active torsions:
REMARK  status: ('A' for Active; 'I' for Inactive)
REMARK    1  A    between atoms: C_1  and  C_2
REMARK    2  A    between atoms: C_2  and  C_3
REMARK    3  A    between atoms: C_2  and  C_4
REMARK    4  A    between atoms: C_2  and  C_7
REMARK    5  A    between atoms: C_4  and  O_6
REMARK    6  A    between atoms: C_10  and  N_11
REMARK    7  A    between atoms: N_14  and  C_15
REMARK    8  A    between atoms: C_18  and  N_19
REMARK    9  A    between atoms: C_24  and  C_25
REMARK   10  A    between atoms: C_28  and  C_29
REMARK                            x       y       z     vdW  Elec       q    Type
REMARK                         _______ _______ _______ _____ _____    ______ ____
ROOT
ATOM      1  N   UNL     1       1.011   8.165  19.629  0.00  0.00    +0.000 N 
ATOM      2  C   UNL     1       0.892   9.466  20.005  0.00  0.00    +0.000 A 
ATOM      3  N   UNL     1       1.374  10.476  19.281  0.00  0.00    +0.000 NA
ATOM      4  N   UNL     1       1.257  11.549  20.053  0.00  0.00    +0.000 N 
ATOM      5  C   UNL     1       0.576  11.304  21.207  0.00  0.00    +0.000 A 
ATOM      6  C   UNL     1       0.287   9.944  21.205  0.00  0.00    +0.000 A 
ATOM      7  H   UNL     1       0.524   7.464  20.187  0.00  0.00    +0.000 HD
ENDROOT
BRANCH   1  11
ATOM      8  C   UNL     1       4.510   6.547  17.779  0.00  0.00    +0.000 A 
ATOM      9  C   UNL     1       3.979   5.980  18.945  0.00  0.00    +0.000 A 
ATOM     10  C   UNL     1       2.832   6.511  19.541  0.00  0.00    +0.000 A 
ATOM     11  C   UNL     1       2.168   7.625  19.008  0.00  0.00    +0.000 A 
ATOM     12  C   UNL     1       2.692   8.200  17.852  0.00  0.00    +0.000 A 
ATOM     13  C   UNL     1       3.844   7.670  17.247  0.00  0.00    +0.000 A 
BRANCH   8  15
ATOM     14  C   UNL     1       6.892   6.850  17.190  0.00  0.00    +0.000 C 
ATOM     15  C   UNL     1       5.691   5.893  17.040  0.00  0.00    +0.000 C 
ATOM     16  C   UNL     1       5.452   5.672  15.528  0.00  0.00    +0.000 C 
BRANCH  15  17
ATOM     17  C   UNL     1       6.059   4.517  17.621  0.00  0.00    +0.000 C 
ATOM     18  O   UNL     1       6.891   4.325  18.501  0.00  0.00    +0.000 OA
BRANCH  17  19
ATOM     19  O   UNL     1       5.375   3.483  17.067  0.00  0.00    +0.000 OA
ATOM     20  H   UNL     1       5.406   2.664  17.602  0.00  0.00    +0.000 HD
ENDBRANCH  17  19
ENDBRANCH  15  17
ENDBRANCH   8  15
ENDBRANCH   1  11
BRANCH   4  21
ATOM     21  C   UNL     1       1.832  12.814  19.589  0.00  0.00    +0.000 C 
ATOM     22  C   UNL     1       1.106  13.322  18.330  0.00  0.00    +0.000 C 
ATOM     23  C   UNL     1      -0.220  14.029  18.618  0.00  0.00    +0.000 C 
ATOM     24  C   UNL     1      -0.095  15.165  19.647  0.00  0.00    +0.000 C 
ATOM     25  C   UNL     1       0.578  14.641  20.932  0.00  0.00    +0.000 C 
ATOM     26  C   UNL     1       1.866  13.828  20.746  0.00  0.00    +0.000 C 
BRANCH  24  27
ATOM     27  N   UNL     1       0.623  16.300  19.037  0.00  0.00    +0.000 NA
ATOM     28  C   UNL     1      -0.308  17.044  18.134  0.00  0.00    +0.000 C 
ATOM     29  C   UNL     1       0.184  18.352  18.753  0.00  0.00    +0.000 C 
ATOM     30  C   UNL     1       0.634  17.486  19.938  0.00  0.00    +0.000 C 
ENDBRANCH  24  27
BRANCH  26  31
ATOM     31  C   UNL     1       3.048  14.698  20.615  0.00  0.00    +0.000 C 
ATOM     32  N   UNL     1       3.926  15.444  20.469  0.00  0.00    +0.000 NA
ENDBRANCH  26  31
ENDBRANCH   4  21
BRANCH   6  33
ATOM     33  C   UNL     1      -0.406   9.179  22.219  0.00  0.00    +0.000 C 
ATOM     34  N   UNL     1      -0.617   9.815  23.412  0.00  0.00    +0.000 N 
ATOM     35  O   UNL     1      -0.802   8.032  22.040  0.00  0.00    +0.000 OA
ATOM     36  H   UNL     1      -0.360  10.774  23.588  0.00  0.00    +0.000 HD
ATOM     37  H   UNL     1      -1.125   9.312  24.127  0.00  0.00    +0.000 HD
ENDBRANCH   6  33
TORSDOF 8
ENDMDL
MODEL 8
REMARK VINA RESULT:      -7.4      1.346      1.575
REMARK  Name = 
REMARK  10 active torsions:
REMARK  status: ('A' for Active; 'I' for Inactive)
REMARK    1  A    between atoms: C_1  and  C_2
REMARK    2  A    between atoms: C_2  and  C_3
REMARK    3  A    between atoms: C_2  and  C_4
REMARK    4  A    between atoms: C_2  and  C_7
REMARK    5  A    between atoms: C_4  and  O_6
REMARK    6  A    between atoms: C_10  and  N_11
REMARK    7  A    between atoms: N_14  and  C_15
REMARK    8  A    between atoms: C_18  and  N_19
REMARK    9  A    between atoms: C_24  and  C_25
REMARK   10  A    between atoms: C_28  and  C_29
REMARK                            x       y       z     vdW  Elec       q    Type
REMARK                         _______ _______ _______ _____ _____    ______ ____
ROOT
ATOM      1  N   UNL     1       1.079   8.075  19.651  0.00  0.00    +0.000 N 
ATOM      2  C   UNL     1       0.955   9.385  19.989  0.00  0.00    +0.000 A 
ATOM      3  N   UNL     1       1.439  10.375  19.238  0.00  0.00    +0.000 NA
ATOM      4  N   UNL     1       1.315  11.469  19.980  0.00  0.00    +0.000 N 
ATOM      5  C   UNL     1       0.629  11.256  21.137  0.00  0.00    +0.000 A 
ATOM      6  C   UNL     1       0.344   9.896  21.172  0.00  0.00    +0.000 A 
ATOM      7  H   UNL     1       0.591   7.388  20.226  0.00  0.00    +0.000 HD
ENDROOT
BRANCH   1  11
ATOM      8  C   UNL     1       4.559   6.390  17.825  0.00  0.00    +0.000 A 
ATOM      9  C   UNL     1       3.905   7.492  17.258  0.00  0.00    +0.000 A 
ATOM     10  C   UNL     1       2.771   8.040  17.864  0.00  0.00    +0.000 A 
ATOM     11  C   UNL     1       2.239   7.519  19.052  0.00  0.00    +0.000 A 
ATOM     12  C   UNL     1       2.879   6.419  19.620  0.00  0.00    +0.000 A 
ATOM     13  C   UNL     1       4.021   5.863  19.017  0.00  0.00    +0.000 A 
BRANCH   8  15
ATOM     14  C   UNL     1       5.686   5.765  15.715  0.00  0.00    +0.000 C 
ATOM     15  C   UNL     1       5.881   5.862  17.243  0.00  0.00    +0.000 C 
ATOM     16  C   UNL     1       6.287   4.459  17.754  0.00  0.00    +0.000 C 
BRANCH  15  17
ATOM     17  C   UNL     1       7.071   6.788  17.548  0.00  0.00    +0.000 C 
ATOM     18  O   UNL     1       7.364   7.791  16.905  0.00  0.00    +0.000 OA
BRANCH  17  19
ATOM     19  O   UNL     1       7.809   6.404  18.620  0.00  0.00    +0.000 OA
ATOM     20  H   UNL     1       8.735   6.720  18.589  0.00  0.00    +0.000 HD
ENDBRANCH  17  19
ENDBRANCH  15  17
ENDBRANCH   8  15
ENDBRANCH   1  11
BRANCH   4  21
ATOM     21  C   UNL     1       1.890  12.722  19.481  0.00  0.00    +0.000 C 
ATOM     22  C   UNL     1       1.075  13.272  18.298  0.00  0.00    +0.000 C 
ATOM     23  C   UNL     1      -0.196  14.018  18.711  0.00  0.00    +0.000 C 
ATOM     24  C   UNL     1       0.056  15.134  19.739  0.00  0.00    +0.000 C 
ATOM     25  C   UNL     1       0.821  14.568  20.952  0.00  0.00    +0.000 C 
ATOM     26  C   UNL     1       2.060  13.717  20.644  0.00  0.00    +0.000 C 
BRANCH  24  27
ATOM     27  N   UNL     1       0.757  16.254  19.081  0.00  0.00    +0.000 NA
ATOM     28  C   UNL     1      -0.210  17.003  18.221  0.00  0.00    +0.000 C 
ATOM     29  C   UNL     1       0.330  18.309  18.801  0.00  0.00    +0.000 C 
ATOM     30  C   UNL     1       0.830  17.448  19.970  0.00  0.00    +0.000 C 
ENDBRANCH  24  27
BRANCH  26  31
ATOM     31  C   UNL     1       3.254  14.549  20.420  0.00  0.00    +0.000 C 
ATOM     32  N   UNL     1       4.141  15.278  20.244  0.00  0.00    +0.000 NA
ENDBRANCH  26  31
ENDBRANCH   4  21
BRANCH   6  33
ATOM     33  C   UNL     1      -0.353   9.159  22.205  0.00  0.00    +0.000 C 
ATOM     34  N   UNL     1      -0.484   9.792  23.410  0.00  0.00    +0.000 N 
ATOM     35  O   UNL     1      -0.818   8.038  22.029  0.00  0.00    +0.000 OA
ATOM     36  H   UNL     1      -0.168  10.733  23.586  0.00  0.00    +0.000 HD
ATOM     37  H   UNL     1      -0.993   9.310  24.139  0.00  0.00    +0.000 HD
ENDBRANCH   6  33
TORSDOF 8
ENDMDL
MODEL 9
REMARK VINA RESULT:      -7.4      3.989      9.077
REMARK  Name = 
REMARK  10 active torsions:
REMARK  status: ('A' for Active; 'I' for Inactive)
REMARK    1  A    between atoms: C_1  and  C_2
REMARK    2  A    between atoms: C_2  and  C_3
REMARK    3  A    between atoms: C_2  and  C_4
REMARK    4  A    between atoms: C_2  and  C_7
REMARK    5  A    between atoms: C_4  and  O_6
REMARK    6  A    between atoms: C_10  and  N_11
REMARK    7  A    between atoms: N_14  and  C_15
REMARK    8  A    between atoms: C_18  and  N_19
REMARK    9  A    between atoms: C_24  and  C_25
REMARK   10  A    between atoms: C_28  and  C_29
REMARK                            x       y       z     vdW  Elec       q    Type
REMARK                         _______ _______ _______ _____ _____    ______ ____
ROOT
ATOM      1  N   UNL     1       1.839   6.324  20.940  0.00  0.00    +0.000 N 
ATOM      2  C   UNL     1       2.752   5.529  20.322  0.00  0.00    +0.000 A 
ATOM      3  N   UNL     1       3.897   5.994  19.823  0.00  0.00    +0.000 NA
ATOM      4  N   UNL     1       4.412   4.986  19.129  0.00  0.00    +0.000 N 
ATOM      5  C   UNL     1       3.716   3.825  19.277  0.00  0.00    +0.000 A 
ATOM      6  C   UNL     1       2.625   4.128  20.083  0.00  0.00    +0.000 A 
ATOM      7  H   UNL     1       1.039   5.872  21.384  0.00  0.00    +0.000 HD
ENDROOT
BRANCH   1  11
ATOM      8  C   UNL     1       0.910  10.297  19.662  0.00  0.00    +0.000 A 
ATOM      9  C   UNL     1       1.523   9.383  18.796  0.00  0.00    +0.000 A 
ATOM     10  C   UNL     1       1.819   8.084  19.219  0.00  0.00    +0.000 A 
ATOM     11  C   UNL     1       1.521   7.641  20.515  0.00  0.00    +0.000 A 
ATOM     12  C   UNL     1       0.917   8.545  21.387  0.00  0.00    +0.000 A 
ATOM     13  C   UNL     1       0.616   9.853  20.967  0.00  0.00    +0.000 A 
BRANCH   8  15
ATOM     14  C   UNL     1       1.622  12.255  18.330  0.00  0.00    +0.000 C 
ATOM     15  C   UNL     1       0.460  11.683  19.170  0.00  0.00    +0.000 C 
ATOM     16  C   UNL     1       0.157  12.694  20.301  0.00  0.00    +0.000 C 
BRANCH  15  17
ATOM     17  C   UNL     1      -0.811  11.617  18.304  0.00  0.00    +0.000 C 
ATOM     18  O   UNL     1      -1.571  10.655  18.243  0.00  0.00    +0.000 OA
BRANCH  17  19
ATOM     19  O   UNL     1      -1.044  12.740  17.579  0.00  0.00    +0.000 OA
ATOM     20  H   UNL     1      -1.747  12.631  16.906  0.00  0.00    +0.000 HD
ENDBRANCH  17  19
ENDBRANCH  15  17
ENDBRANCH   8  15
ENDBRANCH   1  11
BRANCH   4  21
ATOM     21  C   UNL     1       5.620   5.227  18.336  0.00  0.00    +0.000 C 
ATOM     22  C   UNL     1       5.964   4.005  17.467  0.00  0.00    +0.000 C 
ATOM     23  C   UNL     1       5.140   3.901  16.182  0.00  0.00    +0.000 C 
ATOM     24  C   UNL     1       5.178   5.180  15.328  0.00  0.00    +0.000 C 
ATOM     25  C   UNL     1       4.774   6.397  16.185  0.00  0.00    +0.000 C 
ATOM     26  C   UNL     1       5.473   6.539  17.544  0.00  0.00    +0.000 C 
BRANCH  24  27
ATOM     27  N   UNL     1       6.513   5.318  14.715  0.00  0.00    +0.000 NA
ATOM     28  C   UNL     1       6.968   3.982  14.220  0.00  0.00    +0.000 C 
ATOM     29  C   UNL     1       7.391   4.644  12.910  0.00  0.00    +0.000 C 
ATOM     30  C   UNL     1       6.417   5.766  13.297  0.00  0.00    +0.000 C 
ENDBRANCH  24  27
BRANCH  26  31
ATOM     31  C   UNL     1       6.782   7.200  17.420  0.00  0.00    +0.000 C 
ATOM     32  N   UNL     1       7.771   7.798  17.297  0.00  0.00    +0.000 NA
ENDBRANCH  26  31
ENDBRANCH   4  21
BRANCH   6  33
ATOM     33  C   UNL     1       1.568   3.242  20.521  0.00  0.00    +0.000 C 
ATOM     34  N   UNL     1       1.632   2.827  21.823  0.00  0.00    +0.000 N 
ATOM     35  O   UNL     1       0.650   2.882  19.791  0.00  0.00    +0.000 OA
ATOM     36  H   UNL     1       2.335   3.140  22.476  0.00  0.00    +0.000 HD
ATOM     37  H   UNL     1       0.889   2.232  22.162  0.00  0.00    +0.000 HD
ENDBRANCH   6  33
TORSDOF 8
ENDMDL
