MODEL 1
REMARK VINA RESULT:      -7.1      0.000      0.000
REMARK  Name = 
REMARK  1 active torsions:
REMARK  status: ('A' for Active; 'I' for Inactive)
REMARK    1  A    between atoms: C_2  and  C_3
REMARK                            x       y       z     vdW  Elec       q    Type
REMARK                         _______ _______ _______ _____ _____    ______ ____
ROOT
ATOM      1  C   UNL     1       2.831   3.385  19.257  0.00  0.00    +0.000 A 
ATOM      2  C   UNL     1       2.213   3.465  20.513  0.00  0.00    +0.000 A 
ATOM      3  C   UNL     1       1.777   4.697  21.008  0.00  0.00    +0.000 A 
ATOM      4  C   UNL     1       1.952   5.854  20.249  0.00  0.00    +0.000 A 
ATOM      5  C   UNL     1       2.589   5.781  19.008  0.00  0.00    +0.000 A 
ATOM      6  C   UNL     1       3.033   4.553  18.512  0.00  0.00    +0.000 A 
ATOM      7  O   UNL     1       3.628   4.456  17.276  0.00  0.00    +0.000 OA
ATOM      8  C   UNL     1       4.820   5.138  17.199  0.00  0.00    +0.000 A 
ATOM      9  C   UNL     1       5.972   4.376  16.986  0.00  0.00    +0.000 A 
ATOM     10  C   UNL     1       7.213   5.004  16.934  0.00  0.00    +0.000 A 
ATOM     11  C   UNL     1       7.295   6.388  17.075  0.00  0.00    +0.000 A 
ATOM     12  C   UNL     1       6.133   7.145  17.257  0.00  0.00    +0.000 A 
ATOM     13  C   UNL     1       4.878   6.533  17.326  0.00  0.00    +0.000 A 
ATOM     14  N   UNL     1       3.755   7.365  17.483  0.00  0.00    +0.000 NA
ATOM     15  C   UNL     1       2.758   7.024  18.240  0.00  0.00    +0.000 C 
ENDROOT
BRANCH   1  17
ATOM     16  N   UNL     1       3.641   1.081  18.383  0.00  0.00    +0.000 NA
ATOM     17  C   UNL     1       3.269   2.112  18.767  0.00  0.00    +0.000 C 
ENDBRANCH   1  17
TORSDOF 1
ENDMDL
MODEL 2
REMARK VINA RESULT:      -7.0      1.821      3.457
REMARK  Name = 
REMARK  1 active torsions:
REMARK  status: ('A' for Active; 'I' for Inactive)
REMARK    1  A    between atoms: C_2  and  C_3
REMARK                            x       y       z     vdW  Elec       q    Type
REMARK                         _______ _______ _______ _____ _____    ______ ____
ROOT
ATOM      1  C   UNL     1       1.966   5.400  20.321  0.00  0.00    +0.000 A 
ATOM      2  C   UNL     1       0.886   4.562  20.627  0.00  0.00    +0.000 A 
ATOM      3  C   UNL     1       1.032   3.174  20.573  0.00  0.00    +0.000 A 
ATOM      4  C   UNL     1       2.260   2.616  20.217  0.00  0.00    +0.000 A 
ATOM      5  C   UNL     1       3.332   3.449  19.888  0.00  0.00    +0.000 A 
ATOM      6  C   UNL     1       3.188   4.838  19.935  0.00  0.00    +0.000 A 
ATOM      7  O   UNL     1       4.243   5.674  19.651  0.00  0.00    +0.000 OA
ATOM      8  C   UNL     1       4.678   5.567  18.351  0.00  0.00    +0.000 A 
ATOM      9  C   UNL     1       4.534   6.698  17.541  0.00  0.00    +0.000 A 
ATOM     10  C   UNL     1       4.922   6.642  16.205  0.00  0.00    +0.000 A 
ATOM     11  C   UNL     1       5.470   5.468  15.692  0.00  0.00    +0.000 A 
ATOM     12  C   UNL     1       5.637   4.352  16.519  0.00  0.00    +0.000 A 
ATOM     13  C   UNL     1       5.241   4.382  17.859  0.00  0.00    +0.000 A 
ATOM     14  N   UNL     1       5.469   3.229  18.631  0.00  0.00    +0.000 NA
ATOM     15  C   UNL     1       4.609   2.823  19.514  0.00  0.00    +0.000 C 
ENDROOT
BRANCH   1  17
ATOM     16  N   UNL     1       1.645   7.971  20.455  0.00  0.00    +0.000 NA
ATOM     17  C   UNL     1       1.795   6.822  20.385  0.00  0.00    +0.000 C 
ENDBRANCH   1  17
TORSDOF 1
ENDMDL
MODEL 3
REMARK VINA RESULT:      -6.9      2.029      3.865
REMARK  Name = 
REMARK  1 active torsions:
REMARK  status: ('A' for Active; 'I' for Inactive)
REMARK    1  A    between atoms: C_2  and  C_3
REMARK                            x       y       z     vdW  Elec       q    Type
REMARK                         _______ _______ _______ _____ _____    ______ ____
ROOT
ATOM      1  C   UNL     1       2.576   3.230  19.689  0.00  0.00    +0.000 A 
ATOM      2  C   UNL     1       2.221   2.121  18.909  0.00  0.00    +0.000 A 
ATOM      3  C   UNL     1       2.531   2.086  17.548  0.00  0.00    +0.000 A 
ATOM      4  C   UNL     1       3.202   3.157  16.958  0.00  0.00    +0.000 A 
ATOM      5  C   UNL     1       3.536   4.275  17.727  0.00  0.00    +0.000 A 
ATOM      6  C   UNL     1       3.222   4.317  19.088  0.00  0.00    +0.000 A 
ATOM      7  O   UNL     1       3.576   5.392  19.869  0.00  0.00    +0.000 OA
ATOM      8  C   UNL     1       2.955   6.559  19.490  0.00  0.00    +0.000 A 
ATOM      9  C   UNL     1       2.073   7.133  20.410  0.00  0.00    +0.000 A 
ATOM     10  C   UNL     1       1.385   8.295  20.072  0.00  0.00    +0.000 A 
ATOM     11  C   UNL     1       1.597   8.888  18.829  0.00  0.00    +0.000 A 
ATOM     12  C   UNL     1       2.504   8.321  17.927  0.00  0.00    +0.000 A 
ATOM     13  C   UNL     1       3.195   7.148  18.241  0.00  0.00    +0.000 A 
ATOM     14  N   UNL     1       4.110   6.657  17.293  0.00  0.00    +0.000 NA
ATOM     15  C   UNL     1       4.239   5.386  17.068  0.00  0.00    +0.000 C 
ENDROOT
BRANCH   1  17
ATOM     16  N   UNL     1       1.984   3.235  22.214  0.00  0.00    +0.000 NA
ATOM     17  C   UNL     1       2.251   3.244  21.084  0.00  0.00    +0.000 C 
ENDBRANCH   1  17
TORSDOF 1
ENDMDL
MODEL 4
REMARK VINA RESULT:      -6.8      1.177      5.312
REMARK  Name = 
REMARK  1 active torsions:
REMARK  status: ('A' for Active; 'I' for Inactive)
REMARK    1  A    between atoms: C_2  and  C_3
REMARK                            x       y       z     vdW  Elec       q    Type
REMARK                         _______ _______ _______ _____ _____    ______ ____
ROOT
ATOM      1  C   UNL     1       4.005   6.677  17.452  0.00  0.00    +0.000 A 
ATOM      2  C   UNL     1       5.299   7.019  17.037  0.00  0.00    +0.000 A 
ATOM      3  C   UNL     1       6.200   6.027  16.643  0.00  0.00    +0.000 A 
ATOM      4  C   UNL     1       5.811   4.687  16.658  0.00  0.00    +0.000 A 
ATOM      5  C   UNL     1       4.530   4.341  17.094  0.00  0.00    +0.000 A 
ATOM      6  C   UNL     1       3.628   5.330  17.495  0.00  0.00    +0.000 A 
ATOM      7  O   UNL     1       2.350   5.010  17.891  0.00  0.00    +0.000 OA
ATOM      8  C   UNL     1       2.317   4.244  19.032  0.00  0.00    +0.000 A 
ATOM      9  C   UNL     1       1.724   4.816  20.161  0.00  0.00    +0.000 A 
ATOM     10  C   UNL     1       1.692   4.105  21.358  0.00  0.00    +0.000 A 
ATOM     11  C   UNL     1       2.233   2.821  21.415  0.00  0.00    +0.000 A 
ATOM     12  C   UNL     1       2.797   2.247  20.271  0.00  0.00    +0.000 A 
ATOM     13  C   UNL     1       2.852   2.948  19.063  0.00  0.00    +0.000 A 
ATOM     14  N   UNL     1       3.410   2.291  17.953  0.00  0.00    +0.000 NA
ATOM     15  C   UNL     1       4.160   2.917  17.099  0.00  0.00    +0.000 C 
ENDROOT
BRANCH   1  17
ATOM     16  N   UNL     1       2.341   8.535  18.166  0.00  0.00    +0.000 NA
ATOM     17  C   UNL     1       3.095   7.711  17.849  0.00  0.00    +0.000 C 
ENDBRANCH   1  17
TORSDOF 1
ENDMDL
MODEL 5
REMARK VINA RESULT:      -6.7      2.045      4.606
REMARK  Name = 
REMARK  1 active torsions:
REMARK  status: ('A' for Active; 'I' for Inactive)
REMARK    1  A    between atoms: C_2  and  C_3
REMARK                            x       y       z     vdW  Elec       q    Type
REMARK                         _______ _______ _______ _____ _____    ______ ____
ROOT
ATOM      1  C   UNL     1       3.670   7.191  17.628  0.00  0.00    +0.000 A 
ATOM      2  C   UNL     1       3.032   8.417  17.396  0.00  0.00    +0.000 A 
ATOM      3  C   UNL     1       2.050   8.879  18.276  0.00  0.00    +0.000 A 
ATOM      4  C   UNL     1       1.703   8.121  19.394  0.00  0.00    +0.000 A 
ATOM      5  C   UNL     1       2.320   6.887  19.615  0.00  0.00    +0.000 A 
ATOM      6  C   UNL     1       3.298   6.418  18.734  0.00  0.00    +0.000 A 
ATOM      7  O   UNL     1       3.943   5.223  18.956  0.00  0.00    +0.000 OA
ATOM      8  C   UNL     1       3.098   4.139  18.904  0.00  0.00    +0.000 A 
ATOM      9  C   UNL     1       3.321   3.213  17.881  0.00  0.00    +0.000 A 
ATOM     10  C   UNL     1       2.477   2.113  17.753  0.00  0.00    +0.000 A 
ATOM     11  C   UNL     1       1.432   1.933  18.657  0.00  0.00    +0.000 A 
ATOM     12  C   UNL     1       1.237   2.850  19.695  0.00  0.00    +0.000 A 
ATOM     13  C   UNL     1       2.063   3.969  19.834  0.00  0.00    +0.000 A 
ATOM     14  N   UNL     1       1.819   4.828  20.919  0.00  0.00    +0.000 NA
ATOM     15  C   UNL     1       1.924   6.116  20.803  0.00  0.00    +0.000 C 
ENDROOT
BRANCH   1  17
ATOM     16  N   UNL     1       5.476   6.364  15.961  0.00  0.00    +0.000 NA
ATOM     17  C   UNL     1       4.676   6.736  16.715  0.00  0.00    +0.000 C 
ENDBRANCH   1  17
TORSDOF 1
ENDMDL
MODEL 6
REMARK VINA RESULT:      -6.7      1.718      2.001
REMARK  Name = 
REMARK  1 active torsions:
REMARK  status: ('A' for Active; 'I' for Inactive)
REMARK    1  A    between atoms: C_2  and  C_3
REMARK                            x       y       z     vdW  Elec       q    Type
REMARK                         _______ _______ _______ _____ _____    ______ ____
ROOT
ATOM      1  C   UNL     1       3.385   2.513  20.680  0.00  0.00    +0.000 A 
ATOM      2  C   UNL     1       2.360   2.600  21.632  0.00  0.00    +0.000 A 
ATOM      3  C   UNL     1       1.188   3.305  21.345  0.00  0.00    +0.000 A 
ATOM      4  C   UNL     1       1.032   3.922  20.104  0.00  0.00    +0.000 A 
ATOM      5  C   UNL     1       2.062   3.857  19.162  0.00  0.00    +0.000 A 
ATOM      6  C   UNL     1       3.239   3.159  19.447  0.00  0.00    +0.000 A 
ATOM      7  O   UNL     1       4.247   3.052  18.518  0.00  0.00    +0.000 OA
ATOM      8  C   UNL     1       4.813   4.264  18.198  0.00  0.00    +0.000 A 
ATOM      9  C   UNL     1       6.157   4.443  18.536  0.00  0.00    +0.000 A 
ATOM     10  C   UNL     1       6.778   5.661  18.272  0.00  0.00    +0.000 A 
ATOM     11  C   UNL     1       6.061   6.684  17.654  0.00  0.00    +0.000 A 
ATOM     12  C   UNL     1       4.724   6.483  17.293  0.00  0.00    +0.000 A 
ATOM     13  C   UNL     1       4.078   5.274  17.561  0.00  0.00    +0.000 A 
ATOM     14  N   UNL     1       2.743   5.141  17.142  0.00  0.00    +0.000 NA
ATOM     15  C   UNL     1       1.861   4.524  17.866  0.00  0.00    +0.000 C 
ENDROOT
BRANCH   1  17
ATOM     16  N   UNL     1       5.535   1.185  21.265  0.00  0.00    +0.000 NA
ATOM     17  C   UNL     1       4.578   1.783  20.993  0.00  0.00    +0.000 C 
ENDBRANCH   1  17
TORSDOF 1
ENDMDL
MODEL 7
REMARK VINA RESULT:      -6.6      1.157      1.171
REMARK  Name = 
REMARK  1 active torsions:
REMARK  status: ('A' for Active; 'I' for Inactive)
REMARK    1  A    between atoms: C_2  and  C_3
REMARK                            x       y       z     vdW  Elec       q    Type
REMARK                         _______ _______ _______ _____ _____    ______ ____
ROOT
ATOM      1  C   UNL     1       3.532   3.291  20.118  0.00  0.00    +0.000 A 
ATOM      2  C   UNL     1       2.564   3.512  21.107  0.00  0.00    +0.000 A 
ATOM      3  C   UNL     1       1.687   4.595  21.008  0.00  0.00    +0.000 A 
ATOM      4  C   UNL     1       1.768   5.460  19.916  0.00  0.00    +0.000 A 
ATOM      5  C   UNL     1       2.747   5.256  18.941  0.00  0.00    +0.000 A 
ATOM      6  C   UNL     1       3.631   4.178  19.040  0.00  0.00    +0.000 A 
ATOM      7  O   UNL     1       4.576   3.940  18.069  0.00  0.00    +0.000 OA
ATOM      8  C   UNL     1       5.508   4.947  17.968  0.00  0.00    +0.000 A 
ATOM      9  C   UNL     1       6.830   4.618  18.282  0.00  0.00    +0.000 A 
ATOM     10  C   UNL     1       7.814   5.602  18.235  0.00  0.00    +0.000 A 
ATOM     11  C   UNL     1       7.477   6.900  17.855  0.00  0.00    +0.000 A 
ATOM     12  C   UNL     1       6.157   7.211  17.514  0.00  0.00    +0.000 A 
ATOM     13  C   UNL     1       5.151   6.242  17.568  0.00  0.00    +0.000 A 
ATOM     14  N   UNL     1       3.854   6.626  17.183  0.00  0.00    +0.000 NA
ATOM     15  C   UNL     1       2.804   6.192  17.808  0.00  0.00    +0.000 C 
ENDROOT
BRANCH   1  17
ATOM     16  N   UNL     1       5.154   1.280  20.347  0.00  0.00    +0.000 NA
ATOM     17  C   UNL     1       4.420   2.173  20.238  0.00  0.00    +0.000 C 
ENDBRANCH   1  17
TORSDOF 1
ENDMDL
MODEL 8
REMARK VINA RESULT:      -6.2      1.891      3.584
REMARK  Name = 
REMARK  1 active torsions:
REMARK  status: ('A' for Active; 'I' for Inactive)
REMARK    1  A    between atoms: C_2  and  C_3
REMARK                            x       y       z     vdW  Elec       q    Type
REMARK                         _______ _______ _______ _____ _____    ______ ____
ROOT
ATOM      1  C   UNL     1       2.710   6.786  18.787  0.00  0.00    +0.000 A 
ATOM      2  C   UNL     1       1.682   6.245  19.570  0.00  0.00    +0.000 A 
ATOM      3  C   UNL     1       1.890   5.070  20.296  0.00  0.00    +0.000 A 
ATOM      4  C   UNL     1       3.129   4.431  20.247  0.00  0.00    +0.000 A 
ATOM      5  C   UNL     1       4.149   4.954  19.448  0.00  0.00    +0.000 A 
ATOM      6  C   UNL     1       3.942   6.126  18.715  0.00  0.00    +0.000 A 
ATOM      7  O   UNL     1       4.946   6.676  17.953  0.00  0.00    +0.000 OA
ATOM      8  C   UNL     1       5.339   5.864  16.915  0.00  0.00    +0.000 A 
ATOM      9  C   UNL     1       5.114   6.340  15.620  0.00  0.00    +0.000 A 
ATOM     10  C   UNL     1       5.456   5.550  14.526  0.00  0.00    +0.000 A 
ATOM     11  C   UNL     1       6.039   4.300  14.730  0.00  0.00    +0.000 A 
ATOM     12  C   UNL     1       6.287   3.846  16.030  0.00  0.00    +0.000 A 
ATOM     13  C   UNL     1       5.939   4.617  17.142  0.00  0.00    +0.000 A 
ATOM     14  N   UNL     1       6.246   4.103  18.414  0.00  0.00    +0.000 NA
ATOM     15  C   UNL     1       5.439   4.249  19.419  0.00  0.00    +0.000 C 
ENDROOT
BRANCH   1  17
ATOM     16  N   UNL     1       2.268   8.964  17.450  0.00  0.00    +0.000 NA
ATOM     17  C   UNL     1       2.476   7.994  18.052  0.00  0.00    +0.000 C 
ENDBRANCH   1  17
TORSDOF 1
ENDMDL
MODEL 9
REMARK VINA RESULT:      -6.1      1.772      2.164
REMARK  Name = 
REMARK  1 active torsions:
REMARK  status: ('A' for Active; 'I' for Inactive)
REMARK    1  A    between atoms: C_2  and  C_3
REMARK                            x       y       z     vdW  Elec       q    Type
REMARK                         _______ _______ _______ _____ _____    ______ ____
ROOT
ATOM      1  C   UNL     1       3.801   3.143  19.481  0.00  0.00    +0.000 A 
ATOM      2  C   UNL     1       2.438   3.309  19.762  0.00  0.00    +0.000 A 
ATOM      3  C   UNL     1       1.634   4.086  18.924  0.00  0.00    +0.000 A 
ATOM      4  C   UNL     1       2.187   4.699  17.800  0.00  0.00    +0.000 A 
ATOM      5  C   UNL     1       3.551   4.556  17.531  0.00  0.00    +0.000 A 
ATOM      6  C   UNL     1       4.360   3.785  18.370  0.00  0.00    +0.000 A 
ATOM      7  O   UNL     1       5.696   3.602  18.100  0.00  0.00    +0.000 OA
ATOM      8  C   UNL     1       6.419   4.770  18.153  0.00  0.00    +0.000 A 
ATOM      9  C   UNL     1       7.398   4.862  19.146  0.00  0.00    +0.000 A 
ATOM     10  C   UNL     1       8.140   6.034  19.276  0.00  0.00    +0.000 A 
ATOM     11  C   UNL     1       7.916   7.095  18.401  0.00  0.00    +0.000 A 
ATOM     12  C   UNL     1       6.954   6.980  17.391  0.00  0.00    +0.000 A 
ATOM     13  C   UNL     1       6.189   5.819  17.253  0.00  0.00    +0.000 A 
ATOM     14  N   UNL     1       5.263   5.771  16.196  0.00  0.00    +0.000 NA
ATOM     15  C   UNL     1       4.097   5.222  16.339  0.00  0.00    +0.000 C 
ENDROOT
BRANCH   1  17
ATOM     16  N   UNL     1       5.243   1.684  21.069  0.00  0.00    +0.000 NA
ATOM     17  C   UNL     1       4.608   2.339  20.351  0.00  0.00    +0.000 C 
ENDBRANCH   1  17
TORSDOF 1
ENDMDL
