MODEL 1
REMARK VINA RESULT:      -7.9      0.000      0.000
REMARK  Name = 
REMARK  9 active torsions:
REMARK  status: ('A' for Active; 'I' for Inactive)
REMARK    1  A    between atoms: C_1  and  O_2
REMARK    2  A    between atoms: O_2  and  C_3
REMARK    3  A    between atoms: C_7  and  C_8
REMARK    4  A    between atoms: C_11  and  N_12
REMARK    5  A    between atoms: C_13  and  C_15
REMARK    6  A    between atoms: C_18  and  C_19
REMARK    7  A    between atoms: C_29  and  O_30
REMARK    8  A    between atoms: C_31  and  O_32
REMARK    9  A    between atoms: O_32  and  C_33
REMARK                            x       y       z     vdW  Elec       q    Type
REMARK                         _______ _______ _______ _____ _____    ______ ____
ROOT
ATOM      1  C   UNL     1       0.444   9.642  20.721  0.00  0.00    +0.000 A 
ATOM      2  C   UNL     1       0.201   9.560  22.096  0.00  0.00    +0.000 A 
ATOM      3  C   UNL     1      -0.529  10.547  22.753  0.00  0.00    +0.000 A 
ATOM      4  C   UNL     1      -1.021  11.655  22.066  0.00  0.00    +0.000 A 
ATOM      5  C   UNL     1      -0.818  11.733  20.685  0.00  0.00    +0.000 A 
ATOM      6  C   UNL     1      -0.076  10.744  20.024  0.00  0.00    +0.000 A 
ENDROOT
BRANCH   1  11
ATOM      7  C   UNL     1       2.773   4.100  20.347  0.00  0.00    +0.000 A 
ATOM      8  C   UNL     1       2.148   5.227  20.899  0.00  0.00    +0.000 A 
ATOM      9  C   UNL     1       2.087   6.408  20.184  0.00  0.00    +0.000 A 
ATOM     10  O   UNL     1       1.417   7.450  20.767  0.00  0.00    +0.000 OA
ATOM     11  C   UNL     1       1.275   8.625  20.045  0.00  0.00    +0.000 A 
ATOM     12  C   UNL     1       1.813   8.829  18.835  0.00  0.00    +0.000 A 
ATOM     13  C   UNL     1       2.565   7.739  18.200  0.00  0.00    +0.000 A 
ATOM     14  O   UNL     1       3.078   7.838  17.086  0.00  0.00    +0.000 OA
ATOM     15  C   UNL     1       2.675   6.483  18.931  0.00  0.00    +0.000 A 
ATOM     16  C   UNL     1       3.342   5.383  18.371  0.00  0.00    +0.000 A 
ATOM     17  C   UNL     1       3.410   4.173  19.080  0.00  0.00    +0.000 A 
BRANCH   7  19
ATOM     18  C   UNL     1       1.569   2.543  21.650  0.00  0.00    +0.000 C 
ATOM     19  O   UNL     1       2.802   2.899  21.023  0.00  0.00    +0.000 OA
ENDBRANCH   7  19
BRANCH  16  20
ATOM     20  O   UNL     1       3.899   5.527  17.122  0.00  0.00    +0.000 OA
ATOM     21  H   UNL     1       4.180   6.456  16.968  0.00  0.00    +0.000 HD
ENDBRANCH  16  20
BRANCH  17  22
ATOM     22  O   UNL     1       4.024   3.016  18.669  0.00  0.00    +0.000 OA
ATOM     23  C   UNL     1       3.296   2.111  17.847  0.00  0.00    +0.000 C 
ENDBRANCH  17  22
ENDBRANCH   1  11
BRANCH   4  24
ATOM     24  N   UNL     1      -1.719  12.697  22.712  0.00  0.00    +0.000 N 
ATOM     25  C   UNL     1      -3.049  13.020  22.479  0.00  0.00    +0.000 C 
ATOM     26  O   UNL     1      -3.822  12.409  21.747  0.00  0.00    +0.000 OA
ATOM     27  H   UNL     1      -1.208  13.200  23.422  0.00  0.00    +0.000 HD
BRANCH  25  28
ATOM     28  C   UNL     1      -3.586  14.218  23.178  0.00  0.00    +0.000 A 
ATOM     29  C   UNL     1      -2.792  14.774  24.194  0.00  0.00    +0.000 A 
ATOM     30  C   UNL     1      -3.232  15.886  24.913  0.00  0.00    +0.000 A 
ATOM     31  C   UNL     1      -4.469  16.459  24.612  0.00  0.00    +0.000 A 
ATOM     32  C   UNL     1      -5.253  15.927  23.579  0.00  0.00    +0.000 A 
ATOM     33  C   UNL     1      -4.812  14.811  22.858  0.00  0.00    +0.000 A 
BRANCH  31  34
ATOM     34  C   UNL     1      -4.938  17.590  25.359  0.00  0.00    +0.000 C 
ATOM     35  N   UNL     1      -5.313  18.507  25.954  0.00  0.00    +0.000 NA
ENDBRANCH  31  34
ENDBRANCH  25  28
ENDBRANCH   4  24
TORSDOF 7
ENDMDL
MODEL 2
REMARK VINA RESULT:      -7.8      0.976      1.019
REMARK  Name = 
REMARK  9 active torsions:
REMARK  status: ('A' for Active; 'I' for Inactive)
REMARK    1  A    between atoms: C_1  and  O_2
REMARK    2  A    between atoms: O_2  and  C_3
REMARK    3  A    between atoms: C_7  and  C_8
REMARK    4  A    between atoms: C_11  and  N_12
REMARK    5  A    between atoms: C_13  and  C_15
REMARK    6  A    between atoms: C_18  and  C_19
REMARK    7  A    between atoms: C_29  and  O_30
REMARK    8  A    between atoms: C_31  and  O_32
REMARK    9  A    between atoms: O_32  and  C_33
REMARK                            x       y       z     vdW  Elec       q    Type
REMARK                         _______ _______ _______ _____ _____    ______ ____
ROOT
ATOM      1  C   UNL     1       0.531   9.394  20.491  0.00  0.00    +0.000 A 
ATOM      2  C   UNL     1       0.217   9.385  21.853  0.00  0.00    +0.000 A 
ATOM      3  C   UNL     1      -0.556  10.397  22.416  0.00  0.00    +0.000 A 
ATOM      4  C   UNL     1      -1.021  11.459  21.645  0.00  0.00    +0.000 A 
ATOM      5  C   UNL     1      -0.746  11.465  20.273  0.00  0.00    +0.000 A 
ATOM      6  C   UNL     1       0.038  10.449  19.707  0.00  0.00    +0.000 A 
ENDROOT
BRANCH   1  11
ATOM      7  C   UNL     1       2.735   3.790  20.397  0.00  0.00    +0.000 A 
ATOM      8  C   UNL     1       2.082   4.936  20.872  0.00  0.00    +0.000 A 
ATOM      9  C   UNL     1       2.136   6.115  20.152  0.00  0.00    +0.000 A 
ATOM     10  O   UNL     1       1.433   7.177  20.652  0.00  0.00    +0.000 OA
ATOM     11  C   UNL     1       1.406   8.352  19.917  0.00  0.00    +0.000 A 
ATOM     12  C   UNL     1       2.085   8.535  18.775  0.00  0.00    +0.000 A 
ATOM     13  C   UNL     1       2.874   7.422  18.233  0.00  0.00    +0.000 A 
ATOM     14  O   UNL     1       3.514   7.502  17.185  0.00  0.00    +0.000 OA
ATOM     15  C   UNL     1       2.865   6.167  18.974  0.00  0.00    +0.000 A 
ATOM     16  C   UNL     1       3.562   5.047  18.496  0.00  0.00    +0.000 A 
ATOM     17  C   UNL     1       3.515   3.839  19.211  0.00  0.00    +0.000 A 
BRANCH   7  19
ATOM     18  C   UNL     1       1.563   2.503  21.991  0.00  0.00    +0.000 C 
ATOM     19  O   UNL     1       2.655   2.592  21.074  0.00  0.00    +0.000 OA
ENDBRANCH   7  19
BRANCH  16  20
ATOM     20  O   UNL     1       4.262   5.170  17.319  0.00  0.00    +0.000 OA
ATOM     21  H   UNL     1       4.125   4.384  16.746  0.00  0.00    +0.000 HD
ENDBRANCH  16  20
BRANCH  17  22
ATOM     22  O   UNL     1       4.140   2.664  18.875  0.00  0.00    +0.000 OA
ATOM     23  C   UNL     1       3.442   1.726  18.065  0.00  0.00    +0.000 C 
ENDBRANCH  17  22
ENDBRANCH   1  11
BRANCH   4  24
ATOM     24  N   UNL     1      -1.762  12.527  22.195  0.00  0.00    +0.000 N 
ATOM     25  C   UNL     1      -1.208  13.624  22.839  0.00  0.00    +0.000 C 
ATOM     26  O   UNL     1      -0.009  13.862  22.956  0.00  0.00    +0.000 OA
ATOM     27  H   UNL     1      -2.761  12.490  22.058  0.00  0.00    +0.000 HD
BRANCH  25  28
ATOM     28  C   UNL     1      -2.151  14.599  23.447  0.00  0.00    +0.000 A 
ATOM     29  C   UNL     1      -1.638  15.455  24.435  0.00  0.00    +0.000 A 
ATOM     30  C   UNL     1      -2.461  16.385  25.070  0.00  0.00    +0.000 A 
ATOM     31  C   UNL     1      -3.808  16.474  24.711  0.00  0.00    +0.000 A 
ATOM     32  C   UNL     1      -4.320  15.644  23.705  0.00  0.00    +0.000 A 
ATOM     33  C   UNL     1      -3.493  14.711  23.069  0.00  0.00    +0.000 A 
BRANCH  31  34
ATOM     34  C   UNL     1      -4.666  17.414  25.372  0.00  0.00    +0.000 C 
ATOM     35  N   UNL     1      -5.350  18.176  25.908  0.00  0.00    +0.000 NA
ENDBRANCH  31  34
ENDBRANCH  25  28
ENDBRANCH   4  24
TORSDOF 7
ENDMDL
MODEL 3
REMARK VINA RESULT:      -7.6      0.418      1.218
REMARK  Name = 
REMARK  9 active torsions:
REMARK  status: ('A' for Active; 'I' for Inactive)
REMARK    1  A    between atoms: C_1  and  O_2
REMARK    2  A    between atoms: O_2  and  C_3
REMARK    3  A    between atoms: C_7  and  C_8
REMARK    4  A    between atoms: C_11  and  N_12
REMARK    5  A    between atoms: C_13  and  C_15
REMARK    6  A    between atoms: C_18  and  C_19
REMARK    7  A    between atoms: C_29  and  O_30
REMARK    8  A    between atoms: C_31  and  O_32
REMARK    9  A    between atoms: O_32  and  C_33
REMARK                            x       y       z     vdW  Elec       q    Type
REMARK                         _______ _______ _______ _____ _____    ______ ____
ROOT
ATOM      1  C   UNL     1       0.822   9.725  20.947  0.00  0.00    +0.000 A 
ATOM      2  C   UNL     1       0.839  11.042  20.479  0.00  0.00    +0.000 A 
ATOM      3  C   UNL     1       0.142  12.047  21.145  0.00  0.00    +0.000 A 
ATOM      4  C   UNL     1      -0.609  11.768  22.284  0.00  0.00    +0.000 A 
ATOM      5  C   UNL     1      -0.608  10.462  22.786  0.00  0.00    +0.000 A 
ATOM      6  C   UNL     1       0.088   9.448  22.112  0.00  0.00    +0.000 A 
ENDROOT
BRANCH   1  11
ATOM      7  C   UNL     1       2.654   4.020  20.338  0.00  0.00    +0.000 A 
ATOM      8  C   UNL     1       2.169   5.185  20.949  0.00  0.00    +0.000 A 
ATOM      9  C   UNL     1       2.147   6.378  20.251  0.00  0.00    +0.000 A 
ATOM     10  O   UNL     1       1.614   7.461  20.895  0.00  0.00    +0.000 OA
ATOM     11  C   UNL     1       1.510   8.655  20.198  0.00  0.00    +0.000 A 
ATOM     12  C   UNL     1       1.964   8.832  18.949  0.00  0.00    +0.000 A 
ATOM     13  C   UNL     1       2.571   7.695  18.246  0.00  0.00    +0.000 A 
ATOM     14  O   UNL     1       2.999   7.770  17.095  0.00  0.00    +0.000 OA
ATOM     15  C   UNL     1       2.637   6.423  18.955  0.00  0.00    +0.000 A 
ATOM     16  C   UNL     1       3.164   5.282  18.333  0.00  0.00    +0.000 A 
ATOM     17  C   UNL     1       3.191   4.060  19.024  0.00  0.00    +0.000 A 
BRANCH   7  19
ATOM     18  C   UNL     1       1.421   2.527  21.689  0.00  0.00    +0.000 C 
ATOM     19  O   UNL     1       2.639   2.810  20.999  0.00  0.00    +0.000 OA
ENDBRANCH   7  19
BRANCH  16  20
ATOM     20  O   UNL     1       3.630   5.400  17.045  0.00  0.00    +0.000 OA
ATOM     21  H   UNL     1       3.523   4.555  16.554  0.00  0.00    +0.000 HD
ENDBRANCH  16  20
BRANCH  17  22
ATOM     22  O   UNL     1       3.673   2.864  18.555  0.00  0.00    +0.000 OA
ATOM     23  C   UNL     1       2.799   2.016  17.818  0.00  0.00    +0.000 C 
ENDBRANCH  17  22
ENDBRANCH   1  11
BRANCH   4  24
ATOM     24  N   UNL     1      -1.368  12.753  22.951  0.00  0.00    +0.000 N 
ATOM     25  C   UNL     1      -2.569  13.272  22.489  0.00  0.00    +0.000 C 
ATOM     26  O   UNL     1      -3.178  12.903  21.489  0.00  0.00    +0.000 OA
ATOM     27  H   UNL     1      -1.015  13.054  23.847  0.00  0.00    +0.000 HD
BRANCH  25  28
ATOM     28  C   UNL     1      -3.174  14.380  23.275  0.00  0.00    +0.000 A 
ATOM     29  C   UNL     1      -4.343  14.964  22.761  0.00  0.00    +0.000 A 
ATOM     30  C   UNL     1      -4.962  16.022  23.427  0.00  0.00    +0.000 A 
ATOM     31  C   UNL     1      -4.421  16.499  24.622  0.00  0.00    +0.000 A 
ATOM     32  C   UNL     1      -3.271  15.901  25.156  0.00  0.00    +0.000 A 
ATOM     33  C   UNL     1      -2.650  14.839  24.487  0.00  0.00    +0.000 A 
BRANCH  31  34
ATOM     34  C   UNL     1      -5.039  17.599  25.303  0.00  0.00    +0.000 C 
ATOM     35  N   UNL     1      -5.542  18.489  25.843  0.00  0.00    +0.000 NA
ENDBRANCH  31  34
ENDBRANCH  25  28
ENDBRANCH   4  24
TORSDOF 7
ENDMDL
MODEL 4
REMARK VINA RESULT:      -7.5      3.486     11.870
REMARK  Name = 
REMARK  9 active torsions:
REMARK  status: ('A' for Active; 'I' for Inactive)
REMARK    1  A    between atoms: C_1  and  O_2
REMARK    2  A    between atoms: O_2  and  C_3
REMARK    3  A    between atoms: C_7  and  C_8
REMARK    4  A    between atoms: C_11  and  N_12
REMARK    5  A    between atoms: C_13  and  C_15
REMARK    6  A    between atoms: C_18  and  C_19
REMARK    7  A    between atoms: C_29  and  O_30
REMARK    8  A    between atoms: C_31  and  O_32
REMARK    9  A    between atoms: O_32  and  C_33
REMARK                            x       y       z     vdW  Elec       q    Type
REMARK                         _______ _______ _______ _____ _____    ______ ____
ROOT
ATOM      1  C   UNL     1      -0.429  11.198  20.936  0.00  0.00    +0.000 A 
ATOM      2  C   UNL     1      -0.120   9.932  21.443  0.00  0.00    +0.000 A 
ATOM      3  C   UNL     1       0.662   9.041  20.713  0.00  0.00    +0.000 A 
ATOM      4  C   UNL     1       1.142   9.375  19.448  0.00  0.00    +0.000 A 
ATOM      5  C   UNL     1       0.872  10.650  18.942  0.00  0.00    +0.000 A 
ATOM      6  C   UNL     1       0.077  11.545  19.674  0.00  0.00    +0.000 A 
ENDROOT
BRANCH   1  11
ATOM      7  C   UNL     1      -5.875  13.407  22.255  0.00  0.00    +0.000 A 
ATOM      8  C   UNL     1      -4.869  12.723  21.558  0.00  0.00    +0.000 A 
ATOM      9  C   UNL     1      -3.551  12.824  21.962  0.00  0.00    +0.000 A 
ATOM     10  O   UNL     1      -2.633  12.088  21.264  0.00  0.00    +0.000 OA
ATOM     11  C   UNL     1      -1.314  12.110  21.689  0.00  0.00    +0.000 A 
ATOM     12  C   UNL     1      -0.868  12.865  22.703  0.00  0.00    +0.000 A 
ATOM     13  C   UNL     1      -1.827  13.690  23.449  0.00  0.00    +0.000 A 
ATOM     14  O   UNL     1      -1.503  14.399  24.400  0.00  0.00    +0.000 OA
ATOM     15  C   UNL     1      -3.225  13.632  23.040  0.00  0.00    +0.000 A 
ATOM     16  C   UNL     1      -4.204  14.360  23.731  0.00  0.00    +0.000 A 
ATOM     17  C   UNL     1      -5.550  14.266  23.338  0.00  0.00    +0.000 A 
BRANCH   7  19
ATOM     18  C   UNL     1      -7.727  11.961  22.037  0.00  0.00    +0.000 C 
ATOM     19  O   UNL     1      -7.201  13.282  21.899  0.00  0.00    +0.000 OA
ENDBRANCH   7  19
BRANCH  16  20
ATOM     20  O   UNL     1      -3.809  15.139  24.792  0.00  0.00    +0.000 OA
ATOM     21  H   UNL     1      -2.853  15.014  24.983  0.00  0.00    +0.000 HD
ENDBRANCH  16  20
BRANCH  17  22
ATOM     22  O   UNL     1      -6.617  14.913  23.910  0.00  0.00    +0.000 OA
ATOM     23  C   UNL     1      -6.887  16.256  23.526  0.00  0.00    +0.000 C 
ENDBRANCH  17  22
ENDBRANCH   1  11
BRANCH   4  24
ATOM     24  N   UNL     1       1.893   8.476  18.662  0.00  0.00    +0.000 N 
ATOM     25  C   UNL     1       2.335   7.231  19.089  0.00  0.00    +0.000 C 
ATOM     26  O   UNL     1       2.077   6.706  20.168  0.00  0.00    +0.000 OA
ATOM     27  H   UNL     1       2.071   8.760  17.710  0.00  0.00    +0.000 HD
BRANCH  25  28
ATOM     28  C   UNL     1       3.204   6.465  18.157  0.00  0.00    +0.000 A 
ATOM     29  C   UNL     1       4.120   7.201  17.387  0.00  0.00    +0.000 A 
ATOM     30  C   UNL     1       4.958   6.560  16.474  0.00  0.00    +0.000 A 
ATOM     31  C   UNL     1       4.892   5.173  16.329  0.00  0.00    +0.000 A 
ATOM     32  C   UNL     1       4.000   4.431  17.114  0.00  0.00    +0.000 A 
ATOM     33  C   UNL     1       3.160   5.073  18.031  0.00  0.00    +0.000 A 
BRANCH  31  34
ATOM     34  C   UNL     1       5.735   4.510  15.377  0.00  0.00    +0.000 C 
ATOM     35  N   UNL     1       6.408   3.978  14.603  0.00  0.00    +0.000 NA
ENDBRANCH  31  34
ENDBRANCH  25  28
ENDBRANCH   4  24
TORSDOF 7
ENDMDL
MODEL 5
REMARK VINA RESULT:      -7.5      1.293      1.609
REMARK  Name = 
REMARK  9 active torsions:
REMARK  status: ('A' for Active; 'I' for Inactive)
REMARK    1  A    between atoms: C_1  and  O_2
REMARK    2  A    between atoms: O_2  and  C_3
REMARK    3  A    between atoms: C_7  and  C_8
REMARK    4  A    between atoms: C_11  and  N_12
REMARK    5  A    between atoms: C_13  and  C_15
REMARK    6  A    between atoms: C_18  and  C_19
REMARK    7  A    between atoms: C_29  and  O_30
REMARK    8  A    between atoms: C_31  and  O_32
REMARK    9  A    between atoms: O_32  and  C_33
REMARK                            x       y       z     vdW  Elec       q    Type
REMARK                         _______ _______ _______ _____ _____    ______ ____
ROOT
ATOM      1  C   UNL     1       0.804   9.598  19.839  0.00  0.00    +0.000 A 
ATOM      2  C   UNL     1      -0.138  10.141  18.959  0.00  0.00    +0.000 A 
ATOM      3  C   UNL     1      -0.991  11.164  19.367  0.00  0.00    +0.000 A 
ATOM      4  C   UNL     1      -0.946  11.662  20.667  0.00  0.00    +0.000 A 
ATOM      5  C   UNL     1       0.015  11.155  21.548  0.00  0.00    +0.000 A 
ATOM      6  C   UNL     1       0.869  10.120  21.140  0.00  0.00    +0.000 A 
ENDROOT
BRANCH   1  11
ATOM      7  C   UNL     1       2.834   3.964  20.478  0.00  0.00    +0.000 A 
ATOM      8  C   UNL     1       2.207   5.178  20.794  0.00  0.00    +0.000 A 
ATOM      9  C   UNL     1       2.313   6.258  19.939  0.00  0.00    +0.000 A 
ATOM     10  O   UNL     1       1.632   7.392  20.289  0.00  0.00    +0.000 OA
ATOM     11  C   UNL     1       1.658   8.470  19.418  0.00  0.00    +0.000 A 
ATOM     12  C   UNL     1       2.368   8.494  18.280  0.00  0.00    +0.000 A 
ATOM     13  C   UNL     1       3.135   7.302  17.897  0.00  0.00    +0.000 A 
ATOM     14  O   UNL     1       3.800   7.237  16.864  0.00  0.00    +0.000 OA
ATOM     15  C   UNL     1       3.070   6.147  18.783  0.00  0.00    +0.000 A 
ATOM     16  C   UNL     1       3.742   4.959  18.462  0.00  0.00    +0.000 A 
ATOM     17  C   UNL     1       3.642   3.848  19.315  0.00  0.00    +0.000 A 
BRANCH   7  19
ATOM     18  C   UNL     1       1.355   2.556  21.661  0.00  0.00    +0.000 C 
ATOM     19  O   UNL     1       2.701   2.859  21.291  0.00  0.00    +0.000 OA
ENDBRANCH   7  19
BRANCH  16  20
ATOM     20  O   UNL     1       4.473   4.918  17.298  0.00  0.00    +0.000 OA
ATOM     21  H   UNL     1       4.593   5.820  16.927  0.00  0.00    +0.000 HD
ENDBRANCH  16  20
BRANCH  17  22
ATOM     22  O   UNL     1       4.238   2.623  19.140  0.00  0.00    +0.000 OA
ATOM     23  C   UNL     1       3.602   1.668  18.298  0.00  0.00    +0.000 C 
ENDBRANCH  17  22
ENDBRANCH   1  11
BRANCH   4  24
ATOM     24  N   UNL     1      -1.831  12.661  21.126  0.00  0.00    +0.000 N 
ATOM     25  C   UNL     1      -2.559  12.590  22.305  0.00  0.00    +0.000 C 
ATOM     26  O   UNL     1      -2.485  11.700  23.146  0.00  0.00    +0.000 OA
ATOM     27  H   UNL     1      -1.887  13.497  20.563  0.00  0.00    +0.000 HD
BRANCH  25  28
ATOM     28  C   UNL     1      -3.521  13.693  22.573  0.00  0.00    +0.000 A 
ATOM     29  C   UNL     1      -4.667  13.374  23.320  0.00  0.00    +0.000 A 
ATOM     30  C   UNL     1      -5.628  14.346  23.598  0.00  0.00    +0.000 A 
ATOM     31  C   UNL     1      -5.445  15.651  23.139  0.00  0.00    +0.000 A 
ATOM     32  C   UNL     1      -4.290  15.983  22.418  0.00  0.00    +0.000 A 
ATOM     33  C   UNL     1      -3.325  15.008  22.139  0.00  0.00    +0.000 A 
BRANCH  31  34
ATOM     34  C   UNL     1      -6.437  16.652  23.403  0.00  0.00    +0.000 C 
ATOM     35  N   UNL     1      -7.233  17.464  23.610  0.00  0.00    +0.000 NA
ENDBRANCH  31  34
ENDBRANCH  25  28
ENDBRANCH   4  24
TORSDOF 7
ENDMDL
MODEL 6
REMARK VINA RESULT:      -7.4      1.770      3.134
REMARK  Name = 
REMARK  9 active torsions:
REMARK  status: ('A' for Active; 'I' for Inactive)
REMARK    1  A    between atoms: C_1  and  O_2
REMARK    2  A    between atoms: O_2  and  C_3
REMARK    3  A    between atoms: C_7  and  C_8
REMARK    4  A    between atoms: C_11  and  N_12
REMARK    5  A    between atoms: C_13  and  C_15
REMARK    6  A    between atoms: C_18  and  C_19
REMARK    7  A    between atoms: C_29  and  O_30
REMARK    8  A    between atoms: C_31  and  O_32
REMARK    9  A    between atoms: O_32  and  C_33
REMARK                            x       y       z     vdW  Elec       q    Type
REMARK                         _______ _______ _______ _____ _____    ______ ____
ROOT
ATOM      1  C   UNL     1       0.696   8.571  20.960  0.00  0.00    +0.000 A 
ATOM      2  C   UNL     1       0.434   8.642  22.331  0.00  0.00    +0.000 A 
ATOM      3  C   UNL     1      -0.280   9.710  22.869  0.00  0.00    +0.000 A 
ATOM      4  C   UNL     1      -0.736  10.749  22.061  0.00  0.00    +0.000 A 
ATOM      5  C   UNL     1      -0.514  10.675  20.682  0.00  0.00    +0.000 A 
ATOM      6  C   UNL     1       0.212   9.603  20.141  0.00  0.00    +0.000 A 
ENDROOT
BRANCH   1  11
ATOM      7  C   UNL     1       5.054   6.489  17.363  0.00  0.00    +0.000 A 
ATOM      8  C   UNL     1       4.102   7.367  17.899  0.00  0.00    +0.000 A 
ATOM      9  C   UNL     1       3.222   6.929  18.870  0.00  0.00    +0.000 A 
ATOM     10  O   UNL     1       2.355   7.856  19.382  0.00  0.00    +0.000 OA
ATOM     11  C   UNL     1       1.509   7.469  20.409  0.00  0.00    +0.000 A 
ATOM     12  C   UNL     1       1.440   6.218  20.888  0.00  0.00    +0.000 A 
ATOM     13  C   UNL     1       2.336   5.195  20.334  0.00  0.00    +0.000 A 
ATOM     14  O   UNL     1       2.347   4.030  20.727  0.00  0.00    +0.000 OA
ATOM     15  C   UNL     1       3.265   5.609  19.290  0.00  0.00    +0.000 A 
ATOM     16  C   UNL     1       4.180   4.698  18.742  0.00  0.00    +0.000 A 
ATOM     17  C   UNL     1       5.086   5.125  17.757  0.00  0.00    +0.000 A 
BRANCH   7  19
ATOM     18  C   UNL     1       7.200   7.397  16.982  0.00  0.00    +0.000 C 
ATOM     19  O   UNL     1       5.973   6.917  16.428  0.00  0.00    +0.000 OA
ENDBRANCH   7  19
BRANCH  16  20
ATOM     20  O   UNL     1       4.168   3.404  19.207  0.00  0.00    +0.000 OA
ATOM     21  H   UNL     1       3.339   3.215  19.699  0.00  0.00    +0.000 HD
ENDBRANCH  16  20
BRANCH  17  22
ATOM     22  O   UNL     1       6.035   4.358  17.129  0.00  0.00    +0.000 OA
ATOM     23  C   UNL     1       5.681   3.683  15.927  0.00  0.00    +0.000 C 
ENDBRANCH  17  22
ENDBRANCH   1  11
BRANCH   4  24
ATOM     24  N   UNL     1      -1.417  11.870  22.582  0.00  0.00    +0.000 N 
ATOM     25  C   UNL     1      -0.846  13.120  22.777  0.00  0.00    +0.000 C 
ATOM     26  O   UNL     1       0.293  13.451  22.460  0.00  0.00    +0.000 OA
ATOM     27  H   UNL     1      -2.398  11.742  22.776  0.00  0.00    +0.000 HD
BRANCH  25  28
ATOM     28  C   UNL     1      -1.689  14.153  23.434  0.00  0.00    +0.000 A 
ATOM     29  C   UNL     1      -3.072  13.911  23.486  0.00  0.00    +0.000 A 
ATOM     30  C   UNL     1      -3.936  14.839  24.067  0.00  0.00    +0.000 A 
ATOM     31  C   UNL     1      -3.421  16.017  24.612  0.00  0.00    +0.000 A 
ATOM     32  C   UNL     1      -2.040  16.252  24.589  0.00  0.00    +0.000 A 
ATOM     33  C   UNL     1      -1.172  15.320  24.006  0.00  0.00    +0.000 A 
BRANCH  31  34
ATOM     34  C   UNL     1      -4.304  16.986  25.193  0.00  0.00    +0.000 C 
ATOM     35  N   UNL     1      -5.017  17.771  25.652  0.00  0.00    +0.000 NA
ENDBRANCH  31  34
ENDBRANCH  25  28
ENDBRANCH   4  24
TORSDOF 7
ENDMDL
MODEL 7
REMARK VINA RESULT:      -7.4      1.066      1.143
REMARK  Name = 
REMARK  9 active torsions:
REMARK  status: ('A' for Active; 'I' for Inactive)
REMARK    1  A    between atoms: C_1  and  O_2
REMARK    2  A    between atoms: O_2  and  C_3
REMARK    3  A    between atoms: C_7  and  C_8
REMARK    4  A    between atoms: C_11  and  N_12
REMARK    5  A    between atoms: C_13  and  C_15
REMARK    6  A    between atoms: C_18  and  C_19
REMARK    7  A    between atoms: C_29  and  O_30
REMARK    8  A    between atoms: C_31  and  O_32
REMARK    9  A    between atoms: O_32  and  C_33
REMARK                            x       y       z     vdW  Elec       q    Type
REMARK                         _______ _______ _______ _____ _____    ______ ____
ROOT
ATOM      1  C   UNL     1       0.579   9.490  20.188  0.00  0.00    +0.000 A 
ATOM      2  C   UNL     1       0.694   9.953  21.502  0.00  0.00    +0.000 A 
ATOM      3  C   UNL     1      -0.104  10.996  21.966  0.00  0.00    +0.000 A 
ATOM      4  C   UNL     1      -1.024  11.624  21.129  0.00  0.00    +0.000 A 
ATOM      5  C   UNL     1      -1.176  11.149  19.822  0.00  0.00    +0.000 A 
ATOM      6  C   UNL     1      -0.368  10.104  19.353  0.00  0.00    +0.000 A 
ENDROOT
BRANCH   1  11
ATOM      7  C   UNL     1       2.829   3.909  20.428  0.00  0.00    +0.000 A 
ATOM      8  C   UNL     1       2.156   5.071  20.829  0.00  0.00    +0.000 A 
ATOM      9  C   UNL     1       2.217   6.212  20.051  0.00  0.00    +0.000 A 
ATOM     10  O   UNL     1       1.494   7.292  20.481  0.00  0.00    +0.000 OA
ATOM     11  C   UNL     1       1.474   8.428  19.687  0.00  0.00    +0.000 A 
ATOM     12  C   UNL     1       2.178   8.559  18.553  0.00  0.00    +0.000 A 
ATOM     13  C   UNL     1       2.988   7.427  18.086  0.00  0.00    +0.000 A 
ATOM     14  O   UNL     1       3.650   7.460  17.050  0.00  0.00    +0.000 OA
ATOM     15  C   UNL     1       2.972   6.211  18.889  0.00  0.00    +0.000 A 
ATOM     16  C   UNL     1       3.688   5.075  18.484  0.00  0.00    +0.000 A 
ATOM     17  C   UNL     1       3.635   3.904  19.258  0.00  0.00    +0.000 A 
BRANCH   7  19
ATOM     18  C   UNL     1       1.458   2.506  21.741  0.00  0.00    +0.000 C 
ATOM     19  O   UNL     1       2.742   2.745  21.162  0.00  0.00    +0.000 OA
ENDBRANCH   7  19
BRANCH  16  20
ATOM     20  O   UNL     1       4.414   5.144  17.319  0.00  0.00    +0.000 OA
ATOM     21  H   UNL     1       5.351   4.891  17.474  0.00  0.00    +0.000 HD
ENDBRANCH  16  20
BRANCH  17  22
ATOM     22  O   UNL     1       4.276   2.719  18.997  0.00  0.00    +0.000 OA
ATOM     23  C   UNL     1       3.625   1.756  18.177  0.00  0.00    +0.000 C 
ENDBRANCH  17  22
ENDBRANCH   1  11
BRANCH   4  24
ATOM     24  N   UNL     1      -1.810  12.717  21.552  0.00  0.00    +0.000 N 
ATOM     25  C   UNL     1      -2.757  12.663  22.566  0.00  0.00    +0.000 C 
ATOM     26  O   UNL     1      -2.993  11.695  23.282  0.00  0.00    +0.000 OA
ATOM     27  H   UNL     1      -1.620  13.600  21.103  0.00  0.00    +0.000 HD
BRANCH  25  28
ATOM     28  C   UNL     1      -3.563  13.890  22.803  0.00  0.00    +0.000 A 
ATOM     29  C   UNL     1      -3.280  15.006  21.998  0.00  0.00    +0.000 A 
ATOM     30  C   UNL     1      -3.977  16.202  22.170  0.00  0.00    +0.000 A 
ATOM     31  C   UNL     1      -4.972  16.289  23.145  0.00  0.00    +0.000 A 
ATOM     32  C   UNL     1      -5.279  15.171  23.932  0.00  0.00    +0.000 A 
ATOM     33  C   UNL     1      -4.580  13.970  23.759  0.00  0.00    +0.000 A 
BRANCH  31  34
ATOM     34  C   UNL     1      -5.678  17.521  23.343  0.00  0.00    +0.000 C 
ATOM     35  N   UNL     1      -6.248  18.513  23.511  0.00  0.00    +0.000 NA
ENDBRANCH  31  34
ENDBRANCH  25  28
ENDBRANCH   4  24
TORSDOF 7
ENDMDL
MODEL 8
REMARK VINA RESULT:      -7.4      3.753     12.059
REMARK  Name = 
REMARK  9 active torsions:
REMARK  status: ('A' for Active; 'I' for Inactive)
REMARK    1  A    between atoms: C_1  and  O_2
REMARK    2  A    between atoms: O_2  and  C_3
REMARK    3  A    between atoms: C_7  and  C_8
REMARK    4  A    between atoms: C_11  and  N_12
REMARK    5  A    between atoms: C_13  and  C_15
REMARK    6  A    between atoms: C_18  and  C_19
REMARK    7  A    between atoms: C_29  and  O_30
REMARK    8  A    between atoms: C_31  and  O_32
REMARK    9  A    between atoms: O_32  and  C_33
REMARK                            x       y       z     vdW  Elec       q    Type
REMARK                         _______ _______ _______ _____ _____    ______ ____
ROOT
ATOM      1  C   UNL     1       0.021  10.791  21.415  0.00  0.00    +0.000 A 
ATOM      2  C   UNL     1       0.289   9.478  21.811  0.00  0.00    +0.000 A 
ATOM      3  C   UNL     1       1.006   8.614  20.987  0.00  0.00    +0.000 A 
ATOM      4  C   UNL     1       1.459   9.025  19.735  0.00  0.00    +0.000 A 
ATOM      5  C   UNL     1       1.230  10.347  19.339  0.00  0.00    +0.000 A 
ATOM      6  C   UNL     1       0.502  11.215  20.166  0.00  0.00    +0.000 A 
ENDROOT
BRANCH   1  11
ATOM      7  C   UNL     1      -1.202  16.179  23.811  0.00  0.00    +0.000 A 
ATOM      8  C   UNL     1      -0.486  15.162  23.166  0.00  0.00    +0.000 A 
ATOM      9  C   UNL     1      -1.003  13.881  23.102  0.00  0.00    +0.000 A 
ATOM     10  O   UNL     1      -0.271  12.953  22.412  0.00  0.00    +0.000 OA
ATOM     11  C   UNL     1      -0.795  11.679  22.267  0.00  0.00    +0.000 A 
ATOM     12  C   UNL     1      -1.949  11.278  22.821  0.00  0.00    +0.000 A 
ATOM     13  C   UNL     1      -2.738  12.244  23.594  0.00  0.00    +0.000 A 
ATOM     14  O   UNL     1      -3.812  11.962  24.123  0.00  0.00    +0.000 OA
ATOM     15  C   UNL     1      -2.217  13.601  23.708  0.00  0.00    +0.000 A 
ATOM     16  C   UNL     1      -2.936  14.590  24.395  0.00  0.00    +0.000 A 
ATOM     17  C   UNL     1      -2.430  15.898  24.466  0.00  0.00    +0.000 A 
BRANCH   7  19
ATOM     18  C   UNL     1       0.395  17.715  22.995  0.00  0.00    +0.000 C 
ATOM     19  O   UNL     1      -0.728  17.474  23.845  0.00  0.00    +0.000 OA
ENDBRANCH   7  19
BRANCH  16  20
ATOM     20  O   UNL     1      -4.136  14.242  24.970  0.00  0.00    +0.000 OA
ATOM     21  H   UNL     1      -4.560  13.504  24.478  0.00  0.00    +0.000 HD
ENDBRANCH  16  20
BRANCH  17  22
ATOM     22  O   UNL     1      -3.012  16.968  25.099  0.00  0.00    +0.000 OA
ATOM     23  C   UNL     1      -4.127  17.603  24.484  0.00  0.00    +0.000 C 
ENDBRANCH  17  22
ENDBRANCH   1  11
BRANCH   4  24
ATOM     24  N   UNL     1       2.143   8.159  18.856  0.00  0.00    +0.000 N 
ATOM     25  C   UNL     1       2.515   6.857  19.160  0.00  0.00    +0.000 C 
ATOM     26  O   UNL     1       2.241   6.251  20.192  0.00  0.00    +0.000 OA
ATOM     27  H   UNL     1       2.323   8.518  17.930  0.00  0.00    +0.000 HD
BRANCH  25  28
ATOM     28  C   UNL     1       3.321   6.129  18.144  0.00  0.00    +0.000 A 
ATOM     29  C   UNL     1       4.186   6.896  17.346  0.00  0.00    +0.000 A 
ATOM     30  C   UNL     1       4.963   6.293  16.356  0.00  0.00    +0.000 A 
ATOM     31  C   UNL     1       4.887   4.913  16.163  0.00  0.00    +0.000 A 
ATOM     32  C   UNL     1       4.048   4.138  16.974  0.00  0.00    +0.000 A 
ATOM     33  C   UNL     1       3.269   4.743  17.968  0.00  0.00    +0.000 A 
BRANCH  31  34
ATOM     34  C   UNL     1       5.667   4.288  15.134  0.00  0.00    +0.000 C 
ATOM     35  N   UNL     1       6.298   3.778  14.311  0.00  0.00    +0.000 NA
ENDBRANCH  31  34
ENDBRANCH  25  28
ENDBRANCH   4  24
TORSDOF 7
ENDMDL
MODEL 9
REMARK VINA RESULT:      -7.3      1.681      3.032
REMARK  Name = 
REMARK  9 active torsions:
REMARK  status: ('A' for Active; 'I' for Inactive)
REMARK    1  A    between atoms: C_1  and  O_2
REMARK    2  A    between atoms: O_2  and  C_3
REMARK    3  A    between atoms: C_7  and  C_8
REMARK    4  A    between atoms: C_11  and  N_12
REMARK    5  A    between atoms: C_13  and  C_15
REMARK    6  A    between atoms: C_18  and  C_19
REMARK    7  A    between atoms: C_29  and  O_30
REMARK    8  A    between atoms: C_31  and  O_32
REMARK    9  A    between atoms: O_32  and  C_33
REMARK                            x       y       z     vdW  Elec       q    Type
REMARK                         _______ _______ _______ _____ _____    ______ ____
ROOT
ATOM      1  C   UNL     1       0.771   8.910  20.866  0.00  0.00    +0.000 A 
ATOM      2  C   UNL     1       0.452   9.976  20.019  0.00  0.00    +0.000 A 
ATOM      3  C   UNL     1      -0.271  11.070  20.487  0.00  0.00    +0.000 A 
ATOM      4  C   UNL     1      -0.716  11.127  21.805  0.00  0.00    +0.000 A 
ATOM      5  C   UNL     1      -0.375  10.086  22.675  0.00  0.00    +0.000 A 
ATOM      6  C   UNL     1       0.346   8.980  22.202  0.00  0.00    +0.000 A 
ENDROOT
BRANCH   1  11
ATOM      7  C   UNL     1       4.889   6.348  17.296  0.00  0.00    +0.000 A 
ATOM      8  C   UNL     1       4.022   7.321  17.812  0.00  0.00    +0.000 A 
ATOM      9  C   UNL     1       3.121   6.992  18.807  0.00  0.00    +0.000 A 
ATOM     10  O   UNL     1       2.342   8.006  19.296  0.00  0.00    +0.000 OA
ATOM     11  C   UNL     1       1.481   7.725  20.344  0.00  0.00    +0.000 A 
ATOM     12  C   UNL     1       1.312   6.502  20.866  0.00  0.00    +0.000 A 
ATOM     13  C   UNL     1       2.110   5.388  20.338  0.00  0.00    +0.000 A 
ATOM     14  O   UNL     1       2.027   4.240  20.769  0.00  0.00    +0.000 OA
ATOM     15  C   UNL     1       3.057   5.687  19.270  0.00  0.00    +0.000 A 
ATOM     16  C   UNL     1       3.884   4.684  18.744  0.00  0.00    +0.000 A 
ATOM     17  C   UNL     1       4.809   5.000  17.736  0.00  0.00    +0.000 A 
BRANCH   7  19
ATOM     18  C   UNL     1       7.089   7.085  16.863  0.00  0.00    +0.000 C 
ATOM     19  O   UNL     1       5.828   6.665  16.338  0.00  0.00    +0.000 OA
ENDBRANCH   7  19
BRANCH  16  20
ATOM     20  O   UNL     1       3.768   3.411  19.252  0.00  0.00    +0.000 OA
ATOM     21  H   UNL     1       4.435   2.812  18.852  0.00  0.00    +0.000 HD
ENDBRANCH  16  20
BRANCH  17  22
ATOM     22  O   UNL     1       5.681   4.134  17.123  0.00  0.00    +0.000 OA
ATOM     23  C   UNL     1       5.323   3.582  15.862  0.00  0.00    +0.000 C 
ENDBRANCH  17  22
ENDBRANCH   1  11
BRANCH   4  24
ATOM     24  N   UNL     1      -1.495  12.197  22.296  0.00  0.00    +0.000 N 
ATOM     25  C   UNL     1      -0.984  13.418  22.716  0.00  0.00    +0.000 C 
ATOM     26  O   UNL     1       0.190  13.769  22.651  0.00  0.00    +0.000 OA
ATOM     27  H   UNL     1      -2.494  12.058  22.290  0.00  0.00    +0.000 HD
BRANCH  25  28
ATOM     28  C   UNL     1      -1.948  14.388  23.300  0.00  0.00    +0.000 A 
ATOM     29  C   UNL     1      -1.525  15.106  24.431  0.00  0.00    +0.000 A 
ATOM     30  C   UNL     1      -2.375  16.021  25.052  0.00  0.00    +0.000 A 
ATOM     31  C   UNL     1      -3.656  16.233  24.539  0.00  0.00    +0.000 A 
ATOM     32  C   UNL     1      -4.074  15.541  23.395  0.00  0.00    +0.000 A 
ATOM     33  C   UNL     1      -3.221  14.623  22.771  0.00  0.00    +0.000 A 
BRANCH  31  34
ATOM     34  C   UNL     1      -4.544  17.157  25.183  0.00  0.00    +0.000 C 
ATOM     35  N   UNL     1      -5.253  17.903  25.709  0.00  0.00    +0.000 NA
ENDBRANCH  31  34
ENDBRANCH  25  28
ENDBRANCH   4  24
TORSDOF 7
ENDMDL
