MODEL 1
REMARK VINA RESULT:      -8.0      0.000      0.000
REMARK  Name = 
REMARK  7 active torsions:
REMARK  status: ('A' for Active; 'I' for Inactive)
REMARK    1  A    between atoms: C_1  and  C_2
REMARK    2  A    between atoms: C_4  and  O_5
REMARK    3  A    between atoms: C_6  and  C_7
REMARK    4  A    between atoms: C_7  and  C_9
REMARK    5  A    between atoms: C_14  and  O_15
REMARK    6  A    between atoms: C_17  and  C_18
REMARK    7  A    between atoms: C_18  and  O_20
REMARK                            x       y       z     vdW  Elec       q    Type
REMARK                         _______ _______ _______ _____ _____    ______ ____
ROOT
ATOM      1  C   UNL     1       7.770   5.480  12.608  0.00  0.00    +0.000 C 
ATOM      2  C   UNL     1       7.160   5.022  13.901  0.00  0.00    +0.000 A 
ATOM      3  N   UNL     1       7.672   5.629  15.007  0.00  0.00    +0.000 NA
ATOM      4  C   UNL     1       7.149   5.294  16.200  0.00  0.00    +0.000 A 
ATOM      5  C   UNL     1       6.096   4.415  16.381  0.00  0.00    +0.000 A 
ATOM      6  C   UNL     1       5.604   3.768  15.239  0.00  0.00    +0.000 A 
ATOM      7  C   UNL     1       6.158   4.047  13.983  0.00  0.00    +0.000 A 
ENDROOT
BRANCH   4   8
ATOM      8  O   UNL     1       7.802   5.910  17.212  0.00  0.00    +0.000 OA
ATOM      9  H   UNL     1       8.640   5.415  17.198  0.00  0.00    +0.000 HD
ENDBRANCH   4   8
BRANCH   5  10
ATOM     10  C   UNL     1       5.477   4.102  17.694  0.00  0.00    +0.000 C 
ATOM     11  O   UNL     1       6.204   4.053  18.683  0.00  0.00    +0.000 OA
BRANCH  10  12
ATOM     12  C   UNL     1       4.021   3.874  17.842  0.00  0.00    +0.000 A 
ATOM     13  C   UNL     1       3.178   4.992  17.755  0.00  0.00    +0.000 A 
ATOM     14  C   UNL     1       1.791   4.826  17.764  0.00  0.00    +0.000 A 
ATOM     15  C   UNL     1       1.243   3.549  17.868  0.00  0.00    +0.000 A 
ATOM     16  C   UNL     1       2.075   2.437  18.009  0.00  0.00    +0.000 A 
ATOM     17  C   UNL     1       3.460   2.605  18.023  0.00  0.00    +0.000 A 
BRANCH  17  18
ATOM     18  O   UNL     1       4.263   1.514  18.208  0.00  0.00    +0.000 OA
ATOM     19  H   UNL     1       4.634   1.248  17.350  0.00  0.00    +0.000 HD
ENDBRANCH  17  18
ENDBRANCH  10  12
ENDBRANCH   5  10
BRANCH   7  20
ATOM     20  C   UNL     1       5.660   3.345  12.771  0.00  0.00    +0.000 C 
ATOM     21  O   UNL     1       4.574   3.567  12.265  0.00  0.00    +0.000 OA
BRANCH  20  22
ATOM     22  O   UNL     1       6.528   2.450  12.253  0.00  0.00    +0.000 OA
ATOM     23  H   UNL     1       6.416   2.211  11.314  0.00  0.00    +0.000 HD
ENDBRANCH  20  22
ENDBRANCH   7  20
TORSDOF 6
ENDMDL
MODEL 2
REMARK VINA RESULT:      -7.8      0.847      1.533
REMARK  Name = 
REMARK  7 active torsions:
REMARK  status: ('A' for Active; 'I' for Inactive)
REMARK    1  A    between atoms: C_1  and  C_2
REMARK    2  A    between atoms: C_4  and  O_5
REMARK    3  A    between atoms: C_6  and  C_7
REMARK    4  A    between atoms: C_7  and  C_9
REMARK    5  A    between atoms: C_14  and  O_15
REMARK    6  A    between atoms: C_17  and  C_18
REMARK    7  A    between atoms: C_18  and  O_20
REMARK                            x       y       z     vdW  Elec       q    Type
REMARK                         _______ _______ _______ _____ _____    ______ ____
ROOT
ATOM      1  C   UNL     1       7.823   5.414  12.505  0.00  0.00    +0.000 C 
ATOM      2  C   UNL     1       7.185   4.983  13.795  0.00  0.00    +0.000 A 
ATOM      3  N   UNL     1       7.693   5.594  14.901  0.00  0.00    +0.000 NA
ATOM      4  C   UNL     1       7.147   5.283  16.090  0.00  0.00    +0.000 A 
ATOM      5  C   UNL     1       6.075   4.426  16.266  0.00  0.00    +0.000 A 
ATOM      6  C   UNL     1       5.587   3.774  15.125  0.00  0.00    +0.000 A 
ATOM      7  C   UNL     1       6.164   4.027  13.873  0.00  0.00    +0.000 A 
ENDROOT
BRANCH   4   8
ATOM      8  O   UNL     1       7.796   5.899  17.104  0.00  0.00    +0.000 OA
ATOM      9  H   UNL     1       7.040   6.129  17.674  0.00  0.00    +0.000 HD
ENDBRANCH   4   8
BRANCH   5  10
ATOM     10  C   UNL     1       5.431   4.140  17.573  0.00  0.00    +0.000 C 
ATOM     11  O   UNL     1       6.135   4.137  18.580  0.00  0.00    +0.000 OA
BRANCH  10  12
ATOM     12  C   UNL     1       3.977   3.886  17.694  0.00  0.00    +0.000 A 
ATOM     13  C   UNL     1       3.556   2.550  17.766  0.00  0.00    +0.000 A 
ATOM     14  C   UNL     1       2.212   2.251  18.002  0.00  0.00    +0.000 A 
ATOM     15  C   UNL     1       1.286   3.281  18.158  0.00  0.00    +0.000 A 
ATOM     16  C   UNL     1       1.688   4.612  18.034  0.00  0.00    +0.000 A 
ATOM     17  C   UNL     1       3.026   4.910  17.775  0.00  0.00    +0.000 A 
BRANCH  17  18
ATOM     18  O   UNL     1       3.399   6.215  17.610  0.00  0.00    +0.000 OA
ATOM     19  H   UNL     1       2.681   6.693  17.162  0.00  0.00    +0.000 HD
ENDBRANCH  17  18
ENDBRANCH  10  12
ENDBRANCH   5  10
BRANCH   7  20
ATOM     20  C   UNL     1       5.672   3.321  12.663  0.00  0.00    +0.000 C 
ATOM     21  O   UNL     1       4.608   3.573  12.124  0.00  0.00    +0.000 OA
BRANCH  20  22
ATOM     22  O   UNL     1       6.518   2.383  12.186  0.00  0.00    +0.000 OA
ATOM     23  H   UNL     1       6.155   1.490  12.033  0.00  0.00    +0.000 HD
ENDBRANCH  20  22
ENDBRANCH   7  20
TORSDOF 6
ENDMDL
MODEL 3
REMARK VINA RESULT:      -7.3      2.177      5.639
REMARK  Name = 
REMARK  7 active torsions:
REMARK  status: ('A' for Active; 'I' for Inactive)
REMARK    1  A    between atoms: C_1  and  C_2
REMARK    2  A    between atoms: C_4  and  O_5
REMARK    3  A    between atoms: C_6  and  C_7
REMARK    4  A    between atoms: C_7  and  C_9
REMARK    5  A    between atoms: C_14  and  O_15
REMARK    6  A    between atoms: C_17  and  C_18
REMARK    7  A    between atoms: C_18  and  O_20
REMARK                            x       y       z     vdW  Elec       q    Type
REMARK                         _______ _______ _______ _____ _____    ______ ____
ROOT
ATOM      1  C   UNL     1       3.769   3.122  20.095  0.00  0.00    +0.000 C 
ATOM      2  C   UNL     1       4.483   3.764  18.940  0.00  0.00    +0.000 A 
ATOM      3  N   UNL     1       5.814   3.962  19.146  0.00  0.00    +0.000 NA
ATOM      4  C   UNL     1       6.526   4.502  18.141  0.00  0.00    +0.000 A 
ATOM      5  C   UNL     1       6.015   4.824  16.896  0.00  0.00    +0.000 A 
ATOM      6  C   UNL     1       4.637   4.652  16.710  0.00  0.00    +0.000 A 
ATOM      7  C   UNL     1       3.847   4.144  17.751  0.00  0.00    +0.000 A 
ENDROOT
BRANCH   4   8
ATOM      8  O   UNL     1       7.811   4.713  18.508  0.00  0.00    +0.000 OA
ATOM      9  H   UNL     1       7.997   3.871  18.961  0.00  0.00    +0.000 HD
ENDBRANCH   4   8
BRANCH   5  10
ATOM     10  C   UNL     1       6.821   5.354  15.767  0.00  0.00    +0.000 C 
ATOM     11  O   UNL     1       7.562   6.310  15.980  0.00  0.00    +0.000 OA
BRANCH  10  12
ATOM     12  C   UNL     1       6.770   4.752  14.415  0.00  0.00    +0.000 A 
ATOM     13  C   UNL     1       5.755   3.818  14.159  0.00  0.00    +0.000 A 
ATOM     14  C   UNL     1       5.582   3.307  12.871  0.00  0.00    +0.000 A 
ATOM     15  C   UNL     1       6.423   3.720  11.839  0.00  0.00    +0.000 A 
ATOM     16  C   UNL     1       7.469   4.607  12.096  0.00  0.00    +0.000 A 
ATOM     17  C   UNL     1       7.656   5.099  13.389  0.00  0.00    +0.000 A 
BRANCH  17  18
ATOM     18  O   UNL     1       8.712   5.932  13.640  0.00  0.00    +0.000 OA
ATOM     19  H   UNL     1       8.627   6.283  14.543  0.00  0.00    +0.000 HD
ENDBRANCH  17  18
ENDBRANCH  10  12
ENDBRANCH   5  10
BRANCH   7  20
ATOM     20  C   UNL     1       2.381   3.984  17.571  0.00  0.00    +0.000 C 
ATOM     21  O   UNL     1       1.867   2.983  17.103  0.00  0.00    +0.000 OA
BRANCH  20  22
ATOM     22  O   UNL     1       1.653   5.038  17.997  0.00  0.00    +0.000 OA
ATOM     23  H   UNL     1       0.822   4.844  18.470  0.00  0.00    +0.000 HD
ENDBRANCH  20  22
ENDBRANCH   7  20
TORSDOF 6
ENDMDL
MODEL 4
REMARK VINA RESULT:      -7.3      2.093      5.640
REMARK  Name = 
REMARK  7 active torsions:
REMARK  status: ('A' for Active; 'I' for Inactive)
REMARK    1  A    between atoms: C_1  and  C_2
REMARK    2  A    between atoms: C_4  and  O_5
REMARK    3  A    between atoms: C_6  and  C_7
REMARK    4  A    between atoms: C_7  and  C_9
REMARK    5  A    between atoms: C_14  and  O_15
REMARK    6  A    between atoms: C_17  and  C_18
REMARK    7  A    between atoms: C_18  and  O_20
REMARK                            x       y       z     vdW  Elec       q    Type
REMARK                         _______ _______ _______ _____ _____    ______ ____
ROOT
ATOM      1  C   UNL     1       4.172   2.503  20.219  0.00  0.00    +0.000 C 
ATOM      2  C   UNL     1       4.428   3.297  18.971  0.00  0.00    +0.000 A 
ATOM      3  N   UNL     1       5.640   3.916  18.941  0.00  0.00    +0.000 NA
ATOM      4  C   UNL     1       5.954   4.619  17.838  0.00  0.00    +0.000 A 
ATOM      5  C   UNL     1       5.155   4.718  16.712  0.00  0.00    +0.000 A 
ATOM      6  C   UNL     1       3.894   4.109  16.770  0.00  0.00    +0.000 A 
ATOM      7  C   UNL     1       3.505   3.413  17.923  0.00  0.00    +0.000 A 
ENDROOT
BRANCH   4   8
ATOM      8  O   UNL     1       7.147   5.242  17.976  0.00  0.00    +0.000 OA
ATOM      9  H   UNL     1       7.068   5.914  17.275  0.00  0.00    +0.000 HD
ENDBRANCH   4   8
BRANCH   5  10
ATOM     10  C   UNL     1       5.537   5.437  15.470  0.00  0.00    +0.000 C 
ATOM     11  O   UNL     1       5.500   6.664  15.474  0.00  0.00    +0.000 OA
BRANCH  10  12
ATOM     12  C   UNL     1       5.980   4.720  14.251  0.00  0.00    +0.000 A 
ATOM     13  C   UNL     1       5.067   3.841  13.650  0.00  0.00    +0.000 A 
ATOM     14  C   UNL     1       5.381   3.230  12.434  0.00  0.00    +0.000 A 
ATOM     15  C   UNL     1       6.606   3.487  11.821  0.00  0.00    +0.000 A 
ATOM     16  C   UNL     1       7.541   4.318  12.440  0.00  0.00    +0.000 A 
ATOM     17  C   UNL     1       7.236   4.910  13.666  0.00  0.00    +0.000 A 
BRANCH  17  18
ATOM     18  O   UNL     1       8.178   5.685  14.286  0.00  0.00    +0.000 OA
ATOM     19  H   UNL     1       7.727   6.389  14.783  0.00  0.00    +0.000 HD
ENDBRANCH  17  18
ENDBRANCH  10  12
ENDBRANCH   5  10
BRANCH   7  20
ATOM     20  C   UNL     1       2.160   2.788  18.003  0.00  0.00    +0.000 C 
ATOM     21  O   UNL     1       1.121   3.424  17.968  0.00  0.00    +0.000 OA
BRANCH  20  22
ATOM     22  O   UNL     1       2.179   1.442  18.093  0.00  0.00    +0.000 OA
ATOM     23  H   UNL     1       1.745   1.040  18.870  0.00  0.00    +0.000 HD
ENDBRANCH  20  22
ENDBRANCH   7  20
TORSDOF 6
ENDMDL
MODEL 5
REMARK VINA RESULT:      -7.2      1.045      1.378
REMARK  Name = 
REMARK  7 active torsions:
REMARK  status: ('A' for Active; 'I' for Inactive)
REMARK    1  A    between atoms: C_1  and  C_2
REMARK    2  A    between atoms: C_4  and  O_5
REMARK    3  A    between atoms: C_6  and  C_7
REMARK    4  A    between atoms: C_7  and  C_9
REMARK    5  A    between atoms: C_14  and  O_15
REMARK    6  A    between atoms: C_17  and  C_18
REMARK    7  A    between atoms: C_18  and  O_20
REMARK                            x       y       z     vdW  Elec       q    Type
REMARK                         _______ _______ _______ _____ _____    ______ ____
ROOT
ATOM      1  C   UNL     1       8.093   4.979  12.865  0.00  0.00    +0.000 C 
ATOM      2  C   UNL     1       7.124   4.977  14.012  0.00  0.00    +0.000 A 
ATOM      3  N   UNL     1       7.551   5.663  15.107  0.00  0.00    +0.000 NA
ATOM      4  C   UNL     1       6.720   5.733  16.163  0.00  0.00    +0.000 A 
ATOM      5  C   UNL     1       5.443   5.201  16.198  0.00  0.00    +0.000 A 
ATOM      6  C   UNL     1       5.030   4.465  15.080  0.00  0.00    +0.000 A 
ATOM      7  C   UNL     1       5.887   4.319  13.980  0.00  0.00    +0.000 A 
ENDROOT
BRANCH   4   8
ATOM      8  O   UNL     1       7.301   6.374  17.203  0.00  0.00    +0.000 OA
ATOM      9  H   UNL     1       6.773   6.016  17.938  0.00  0.00    +0.000 HD
ENDBRANCH   4   8
BRANCH   5  10
ATOM     10  C   UNL     1       4.504   5.342  17.340  0.00  0.00    +0.000 C 
ATOM     11  O   UNL     1       4.317   6.463  17.804  0.00  0.00    +0.000 OA
BRANCH  10  12
ATOM     12  C   UNL     1       3.779   4.182  17.908  0.00  0.00    +0.000 A 
ATOM     13  C   UNL     1       2.413   4.064  17.613  0.00  0.00    +0.000 A 
ATOM     14  C   UNL     1       1.705   2.930  18.018  0.00  0.00    +0.000 A 
ATOM     15  C   UNL     1       2.354   1.918  18.723  0.00  0.00    +0.000 A 
ATOM     16  C   UNL     1       3.700   2.053  19.066  0.00  0.00    +0.000 A 
ATOM     17  C   UNL     1       4.401   3.196  18.682  0.00  0.00    +0.000 A 
BRANCH  17  18
ATOM     18  O   UNL     1       5.707   3.339  19.064  0.00  0.00    +0.000 OA
ATOM     19  H   UNL     1       6.174   3.867  18.395  0.00  0.00    +0.000 HD
ENDBRANCH  17  18
ENDBRANCH  10  12
ENDBRANCH   5  10
BRANCH   7  20
ATOM     20  C   UNL     1       5.467   3.517  12.803  0.00  0.00    +0.000 C 
ATOM     21  O   UNL     1       4.461   3.750  12.156  0.00  0.00    +0.000 OA
BRANCH  20  22
ATOM     22  O   UNL     1       6.313   2.514  12.485  0.00  0.00    +0.000 OA
ATOM     23  H   UNL     1       7.201   2.534  12.890  0.00  0.00    +0.000 HD
ENDBRANCH  20  22
ENDBRANCH   7  20
TORSDOF 6
ENDMDL
MODEL 6
REMARK VINA RESULT:      -7.2      5.297      7.926
REMARK  Name = 
REMARK  7 active torsions:
REMARK  status: ('A' for Active; 'I' for Inactive)
REMARK    1  A    between atoms: C_1  and  C_2
REMARK    2  A    between atoms: C_4  and  O_5
REMARK    3  A    between atoms: C_6  and  C_7
REMARK    4  A    between atoms: C_7  and  C_9
REMARK    5  A    between atoms: C_14  and  O_15
REMARK    6  A    between atoms: C_17  and  C_18
REMARK    7  A    between atoms: C_18  and  O_20
REMARK                            x       y       z     vdW  Elec       q    Type
REMARK                         _______ _______ _______ _____ _____    ______ ____
ROOT
ATOM      1  C   UNL     1       0.213  11.347  20.556  0.00  0.00    +0.000 C 
ATOM      2  C   UNL     1       0.795   9.999  20.246  0.00  0.00    +0.000 A 
ATOM      3  N   UNL     1       1.257   9.868  18.972  0.00  0.00    +0.000 NA
ATOM      4  C   UNL     1       1.824   8.697  18.632  0.00  0.00    +0.000 A 
ATOM      5  C   UNL     1       2.017   7.633  19.496  0.00  0.00    +0.000 A 
ATOM      6  C   UNL     1       1.503   7.766  20.793  0.00  0.00    +0.000 A 
ATOM      7  C   UNL     1       0.855   8.949  21.172  0.00  0.00    +0.000 A 
ENDROOT
BRANCH   4   8
ATOM      8  O   UNL     1       2.165   8.679  17.323  0.00  0.00    +0.000 OA
ATOM      9  H   UNL     1       2.388   9.618  17.193  0.00  0.00    +0.000 HD
ENDBRANCH   4   8
BRANCH   5  10
ATOM     10  C   UNL     1       2.707   6.369  19.133  0.00  0.00    +0.000 C 
ATOM     11  O   UNL     1       3.714   6.436  18.433  0.00  0.00    +0.000 OA
BRANCH  10  12
ATOM     12  C   UNL     1       2.230   5.050  19.609  0.00  0.00    +0.000 A 
ATOM     13  C   UNL     1       2.486   4.713  20.946  0.00  0.00    +0.000 A 
ATOM     14  C   UNL     1       1.956   3.538  21.485  0.00  0.00    +0.000 A 
ATOM     15  C   UNL     1       1.178   2.696  20.692  0.00  0.00    +0.000 A 
ATOM     16  C   UNL     1       0.964   2.998  19.346  0.00  0.00    +0.000 A 
ATOM     17  C   UNL     1       1.513   4.159  18.802  0.00  0.00    +0.000 A 
BRANCH  17  18
ATOM     18  O   UNL     1       1.337   4.421  17.471  0.00  0.00    +0.000 OA
ATOM     19  H   UNL     1       1.987   5.089  17.194  0.00  0.00    +0.000 HD
ENDBRANCH  17  18
ENDBRANCH  10  12
ENDBRANCH   5  10
BRANCH   7  20
ATOM     20  C   UNL     1       0.283   9.087  22.536  0.00  0.00    +0.000 C 
ATOM     21  O   UNL     1       0.833   9.696  23.436  0.00  0.00    +0.000 OA
BRANCH  20  22
ATOM     22  O   UNL     1      -0.923   8.499  22.693  0.00  0.00    +0.000 OA
ATOM     23  H   UNL     1      -1.382   8.200  21.886  0.00  0.00    +0.000 HD
ENDBRANCH  20  22
ENDBRANCH   7  20
TORSDOF 6
ENDMDL
MODEL 7
REMARK VINA RESULT:      -7.0      2.464      5.958
REMARK  Name = 
REMARK  7 active torsions:
REMARK  status: ('A' for Active; 'I' for Inactive)
REMARK    1  A    between atoms: C_1  and  C_2
REMARK    2  A    between atoms: C_4  and  O_5
REMARK    3  A    between atoms: C_6  and  C_7
REMARK    4  A    between atoms: C_7  and  C_9
REMARK    5  A    between atoms: C_14  and  O_15
REMARK    6  A    between atoms: C_17  and  C_18
REMARK    7  A    between atoms: C_18  and  O_20
REMARK                            x       y       z     vdW  Elec       q    Type
REMARK                         _______ _______ _______ _____ _____    ______ ____
ROOT
ATOM      1  C   UNL     1       3.511   2.172  20.809  0.00  0.00    +0.000 C 
ATOM      2  C   UNL     1       3.790   3.112  19.672  0.00  0.00    +0.000 A 
ATOM      3  N   UNL     1       5.113   3.338  19.444  0.00  0.00    +0.000 NA
ATOM      4  C   UNL     1       5.440   4.144  18.418  0.00  0.00    +0.000 A 
ATOM      5  C   UNL     1       4.532   4.721  17.547  0.00  0.00    +0.000 A 
ATOM      6  C   UNL     1       3.173   4.512  17.816  0.00  0.00    +0.000 A 
ATOM      7  C   UNL     1       2.787   3.724  18.909  0.00  0.00    +0.000 A 
ENDROOT
BRANCH   4   8
ATOM      8  O   UNL     1       6.777   4.342  18.357  0.00  0.00    +0.000 OA
ATOM      9  H   UNL     1       7.086   3.420  18.405  0.00  0.00    +0.000 HD
ENDBRANCH   4   8
BRANCH   5  10
ATOM     10  C   UNL     1       4.903   5.553  16.375  0.00  0.00    +0.000 C 
ATOM     11  O   UNL     1       4.615   6.747  16.394  0.00  0.00    +0.000 OA
BRANCH  10  12
ATOM     12  C   UNL     1       5.623   4.990  15.209  0.00  0.00    +0.000 A 
ATOM     13  C   UNL     1       4.907   4.137  14.356  0.00  0.00    +0.000 A 
ATOM     14  C   UNL     1       5.494   3.673  13.177  0.00  0.00    +0.000 A 
ATOM     15  C   UNL     1       6.795   4.052  12.849  0.00  0.00    +0.000 A 
ATOM     16  C   UNL     1       7.532   4.858  13.719  0.00  0.00    +0.000 A 
ATOM     17  C   UNL     1       6.954   5.302  14.908  0.00  0.00    +0.000 A 
BRANCH  17  18
ATOM     18  O   UNL     1       7.700   6.052  15.775  0.00  0.00    +0.000 OA
ATOM     19  H   UNL     1       8.612   5.715  15.776  0.00  0.00    +0.000 HD
ENDBRANCH  17  18
ENDBRANCH  10  12
ENDBRANCH   5  10
BRANCH   7  20
ATOM     20  C   UNL     1       1.348   3.521  19.216  0.00  0.00    +0.000 C 
ATOM     21  O   UNL     1       0.762   4.111  20.107  0.00  0.00    +0.000 OA
BRANCH  20  22
ATOM     22  O   UNL     1       0.727   2.640  18.404  0.00  0.00    +0.000 OA
ATOM     23  H   UNL     1      -0.242   2.717  18.319  0.00  0.00    +0.000 HD
ENDBRANCH  20  22
ENDBRANCH   7  20
TORSDOF 6
ENDMDL
MODEL 8
REMARK VINA RESULT:      -6.9      2.188      5.772
REMARK  Name = 
REMARK  7 active torsions:
REMARK  status: ('A' for Active; 'I' for Inactive)
REMARK    1  A    between atoms: C_1  and  C_2
REMARK    2  A    between atoms: C_4  and  O_5
REMARK    3  A    between atoms: C_6  and  C_7
REMARK    4  A    between atoms: C_7  and  C_9
REMARK    5  A    between atoms: C_14  and  O_15
REMARK    6  A    between atoms: C_17  and  C_18
REMARK    7  A    between atoms: C_18  and  O_20
REMARK                            x       y       z     vdW  Elec       q    Type
REMARK                         _______ _______ _______ _____ _____    ______ ____
ROOT
ATOM      1  C   UNL     1       2.308   4.741  19.454  0.00  0.00    +0.000 C 
ATOM      2  C   UNL     1       3.418   4.806  18.445  0.00  0.00    +0.000 A 
ATOM      3  N   UNL     1       3.537   6.009  17.820  0.00  0.00    +0.000 NA
ATOM      4  C   UNL     1       4.532   6.153  16.927  0.00  0.00    +0.000 A 
ATOM      5  C   UNL     1       5.474   5.184  16.634  0.00  0.00    +0.000 A 
ATOM      6  C   UNL     1       5.319   3.936  17.254  0.00  0.00    +0.000 A 
ATOM      7  C   UNL     1       4.261   3.726  18.149  0.00  0.00    +0.000 A 
ENDROOT
BRANCH   4   8
ATOM      8  O   UNL     1       4.484   7.366  16.330  0.00  0.00    +0.000 OA
ATOM      9  H   UNL     1       5.262   7.786  16.738  0.00  0.00    +0.000 HD
ENDBRANCH   4   8
BRANCH   5  10
ATOM     10  C   UNL     1       6.613   5.372  15.699  0.00  0.00    +0.000 C 
ATOM     11  O   UNL     1       7.560   6.060  16.067  0.00  0.00    +0.000 OA
BRANCH  10  12
ATOM     12  C   UNL     1       6.642   4.739  14.360  0.00  0.00    +0.000 A 
ATOM     13  C   UNL     1       5.639   3.804  14.063  0.00  0.00    +0.000 A 
ATOM     14  C   UNL     1       5.543   3.265  12.778  0.00  0.00    +0.000 A 
ATOM     15  C   UNL     1       6.448   3.650  11.791  0.00  0.00    +0.000 A 
ATOM     16  C   UNL     1       7.481   4.538  12.093  0.00  0.00    +0.000 A 
ATOM     17  C   UNL     1       7.592   5.059  13.383  0.00  0.00    +0.000 A 
BRANCH  17  18
ATOM     18  O   UNL     1       8.635   5.892  13.680  0.00  0.00    +0.000 OA
ATOM     19  H   UNL     1       9.435   5.357  13.819  0.00  0.00    +0.000 HD
ENDBRANCH  17  18
ENDBRANCH  10  12
ENDBRANCH   5  10
BRANCH   7  20
ATOM     20  C   UNL     1       4.073   2.399  18.790  0.00  0.00    +0.000 C 
ATOM     21  O   UNL     1       3.256   1.579  18.408  0.00  0.00    +0.000 OA
BRANCH  20  22
ATOM     22  O   UNL     1       4.907   2.160  19.824  0.00  0.00    +0.000 OA
ATOM     23  H   UNL     1       5.758   1.727  19.620  0.00  0.00    +0.000 HD
ENDBRANCH  20  22
ENDBRANCH   7  20
TORSDOF 6
ENDMDL
MODEL 9
REMARK VINA RESULT:      -6.9      3.261      4.208
REMARK  Name = 
REMARK  7 active torsions:
REMARK  status: ('A' for Active; 'I' for Inactive)
REMARK    1  A    between atoms: C_1  and  C_2
REMARK    2  A    between atoms: C_4  and  O_5
REMARK    3  A    between atoms: C_6  and  C_7
REMARK    4  A    between atoms: C_7  and  C_9
REMARK    5  A    between atoms: C_14  and  O_15
REMARK    6  A    between atoms: C_17  and  C_18
REMARK    7  A    between atoms: C_18  and  O_20
REMARK                            x       y       z     vdW  Elec       q    Type
REMARK                         _______ _______ _______ _____ _____    ______ ____
ROOT
ATOM      1  C   UNL     1       7.478   7.673  17.195  0.00  0.00    +0.000 C 
ATOM      2  C   UNL     1       6.257   6.858  17.509  0.00  0.00    +0.000 A 
ATOM      3  N   UNL     1       5.084   7.539  17.388  0.00  0.00    +0.000 NA
ATOM      4  C   UNL     1       3.944   6.864  17.620  0.00  0.00    +0.000 A 
ATOM      5  C   UNL     1       3.875   5.516  17.925  0.00  0.00    +0.000 A 
ATOM      6  C   UNL     1       5.089   4.836  18.085  0.00  0.00    +0.000 A 
ATOM      7  C   UNL     1       6.302   5.516  17.907  0.00  0.00    +0.000 A 
ENDROOT
BRANCH   4   8
ATOM      8  O   UNL     1       2.867   7.677  17.541  0.00  0.00    +0.000 OA
ATOM      9  H   UNL     1       3.306   8.545  17.592  0.00  0.00    +0.000 HD
ENDBRANCH   4   8
BRANCH   5  10
ATOM     10  C   UNL     1       2.610   4.759  18.112  0.00  0.00    +0.000 C 
ATOM     11  O   UNL     1       1.765   4.810  17.222  0.00  0.00    +0.000 OA
BRANCH  10  12
ATOM     12  C   UNL     1       2.358   3.938  19.319  0.00  0.00    +0.000 A 
ATOM     13  C   UNL     1       2.485   4.565  20.567  0.00  0.00    +0.000 A 
ATOM     14  C   UNL     1       2.142   3.877  21.733  0.00  0.00    +0.000 A 
ATOM     15  C   UNL     1       1.680   2.564  21.658  0.00  0.00    +0.000 A 
ATOM     16  C   UNL     1       1.602   1.916  20.424  0.00  0.00    +0.000 A 
ATOM     17  C   UNL     1       1.967   2.595  19.262  0.00  0.00    +0.000 A 
BRANCH  17  18
ATOM     18  O   UNL     1       1.931   1.936  18.064  0.00  0.00    +0.000 OA
ATOM     19  H   UNL     1       2.839   1.840  17.731  0.00  0.00    +0.000 HD
ENDBRANCH  17  18
ENDBRANCH  10  12
ENDBRANCH   5  10
BRANCH   7  20
ATOM     20  C   UNL     1       7.594   4.809  18.102  0.00  0.00    +0.000 C 
ATOM     21  O   UNL     1       8.214   4.820  19.151  0.00  0.00    +0.000 OA
BRANCH  20  22
ATOM     22  O   UNL     1       8.019   4.124  17.019  0.00  0.00    +0.000 OA
ATOM     23  H   UNL     1       8.830   3.590  17.119  0.00  0.00    +0.000 HD
ENDBRANCH  20  22
ENDBRANCH   7  20
TORSDOF 6
ENDMDL
