MODEL 1
REMARK VINA RESULT:      -6.8      0.000      0.000
REMARK  Name = 
REMARK  4 active torsions:
REMARK  status: ('A' for Active; 'I' for Inactive)
REMARK    1  A    between atoms: C_1  and  C_2
REMARK    2  A    between atoms: C_2  and  C_3
REMARK    3  A    between atoms: C_2  and  N_6
REMARK    4  A    between atoms: C_10  and  C_12
REMARK                            x       y       z     vdW  Elec       q    Type
REMARK                         _______ _______ _______ _____ _____    ______ ____
ROOT
ATOM      1  N   UNL     1       3.049   2.730  19.385  0.00  0.00    +0.000 NA
ATOM      2  C   UNL     1       3.624   2.079  18.172  0.00  0.00    +0.000 C 
ATOM      3  C   UNL     1       4.052   3.008  17.003  0.00  0.00    +0.000 C 
ATOM      4  N   UNL     1       4.797   4.181  17.479  0.00  0.00    +0.000 N 
ATOM      5  C   UNL     1       5.982   4.551  16.845  0.00  0.00    +0.000 C 
ATOM      6  O   UNL     1       6.405   3.970  15.846  0.00  0.00    +0.000 OA
ATOM      7  C   UNL     1       4.121   4.872  18.575  0.00  0.00    +0.000 C 
ATOM      8  C   UNL     1       3.941   3.874  19.734  0.00  0.00    +0.000 C 
ENDROOT
BRANCH   5   9
ATOM      9  C   UNL     1       6.785   5.708  17.347  0.00  0.00    +0.000 A 
ATOM     10  C   UNL     1       7.656   5.613  18.438  0.00  0.00    +0.000 A 
ATOM     11  C   UNL     1       8.289   6.751  18.943  0.00  0.00    +0.000 A 
ATOM     12  C   UNL     1       8.137   7.973  18.290  0.00  0.00    +0.000 A 
ATOM     13 BR   UNL     1       8.991   9.512  18.975  0.00  0.00    +0.000 Br
ATOM     14  C   UNL     1       7.367   8.060  17.131  0.00  0.00    +0.000 A 
ATOM     15  C   UNL     1       6.686   6.930  16.665  0.00  0.00    +0.000 A 
ENDBRANCH   5   9
BRANCH   1  17
ATOM     16  C   UNL     1       0.670   2.094  18.758  0.00  0.00    +0.000 C 
ATOM     17  C   UNL     1       1.639   3.190  19.209  0.00  0.00    +0.000 C 
BRANCH  17  18
ATOM     18  C   UNL     1       1.124   3.766  20.552  0.00  0.00    +0.000 C 
ATOM     19  N   UNL     1       0.947   2.865  21.565  0.00  0.00    +0.000 N 
ATOM     20  O   UNL     1       0.957   4.969  20.744  0.00  0.00    +0.000 OA
ATOM     21  H   UNL     1       1.427   1.975  21.510  0.00  0.00    +0.000 HD
ATOM     22  H   UNL     1       0.767   3.248  22.484  0.00  0.00    +0.000 HD
ENDBRANCH  17  18
ENDBRANCH   1  17
TORSDOF 3
ENDMDL
MODEL 2
REMARK VINA RESULT:      -6.5      0.433      1.162
REMARK  Name = 
REMARK  4 active torsions:
REMARK  status: ('A' for Active; 'I' for Inactive)
REMARK    1  A    between atoms: C_1  and  C_2
REMARK    2  A    between atoms: C_2  and  C_3
REMARK    3  A    between atoms: C_2  and  N_6
REMARK    4  A    between atoms: C_10  and  C_12
REMARK                            x       y       z     vdW  Elec       q    Type
REMARK                         _______ _______ _______ _____ _____    ______ ____
ROOT
ATOM      1  N   UNL     1       3.302   2.980  19.431  0.00  0.00    +0.000 NA
ATOM      2  C   UNL     1       4.004   2.336  18.284  0.00  0.00    +0.000 C 
ATOM      3  C   UNL     1       4.428   3.254  17.104  0.00  0.00    +0.000 C 
ATOM      4  N   UNL     1       5.043   4.502  17.574  0.00  0.00    +0.000 N 
ATOM      5  C   UNL     1       6.232   4.946  16.998  0.00  0.00    +0.000 C 
ATOM      6  O   UNL     1       6.763   4.366  16.052  0.00  0.00    +0.000 OA
ATOM      7  C   UNL     1       4.244   5.173  18.598  0.00  0.00    +0.000 C 
ATOM      8  C   UNL     1       4.073   4.208  19.785  0.00  0.00    +0.000 C 
ENDROOT
BRANCH   5   9
ATOM      9  C   UNL     1       6.904   6.185  17.499  0.00  0.00    +0.000 A 
ATOM     10  C   UNL     1       6.677   7.450  16.946  0.00  0.00    +0.000 A 
ATOM     11  C   UNL     1       7.421   8.554  17.370  0.00  0.00    +0.000 A 
ATOM     12  C   UNL     1       8.321   8.416  18.424  0.00  0.00    +0.000 A 
ATOM     13 BR   UNL     1       9.329   9.909  18.994  0.00  0.00    +0.000 Br
ATOM     14  C   UNL     1       8.472   7.188  19.065  0.00  0.00    +0.000 A 
ATOM     15  C   UNL     1       7.770   6.072  18.597  0.00  0.00    +0.000 A 
ENDBRANCH   5   9
BRANCH   1  17
ATOM     16  C   UNL     1       1.045   2.141  18.615  0.00  0.00    +0.000 C 
ATOM     17  C   UNL     1       1.873   3.313  19.151  0.00  0.00    +0.000 C 
BRANCH  17  18
ATOM     18  C   UNL     1       1.206   3.817  20.456  0.00  0.00    +0.000 C 
ATOM     19  N   UNL     1       0.963   2.870  21.412  0.00  0.00    +0.000 N 
ATOM     20  O   UNL     1       0.976   5.005  20.674  0.00  0.00    +0.000 OA
ATOM     21  H   UNL     1       1.480   2.000  21.373  0.00  0.00    +0.000 HD
ATOM     22  H   UNL     1       0.680   3.209  22.322  0.00  0.00    +0.000 HD
ENDBRANCH  17  18
ENDBRANCH   1  17
TORSDOF 3
ENDMDL
MODEL 3
REMARK VINA RESULT:      -6.1      1.135      1.228
REMARK  Name = 
REMARK  4 active torsions:
REMARK  status: ('A' for Active; 'I' for Inactive)
REMARK    1  A    between atoms: C_1  and  C_2
REMARK    2  A    between atoms: C_2  and  C_3
REMARK    3  A    between atoms: C_2  and  N_6
REMARK    4  A    between atoms: C_10  and  C_12
REMARK                            x       y       z     vdW  Elec       q    Type
REMARK                         _______ _______ _______ _____ _____    ______ ____
ROOT
ATOM      1  N   UNL     1       3.243   3.530  19.386  0.00  0.00    +0.000 NA
ATOM      2  C   UNL     1       3.922   2.825  18.261  0.00  0.00    +0.000 C 
ATOM      3  C   UNL     1       4.468   3.700  17.100  0.00  0.00    +0.000 C 
ATOM      4  N   UNL     1       5.178   4.887  17.595  0.00  0.00    +0.000 N 
ATOM      5  C   UNL     1       6.422   5.221  17.061  0.00  0.00    +0.000 C 
ATOM      6  O   UNL     1       6.930   4.595  16.131  0.00  0.00    +0.000 OA
ATOM      7  C   UNL     1       4.410   5.628  18.593  0.00  0.00    +0.000 C 
ATOM      8  C   UNL     1       4.111   4.682  19.770  0.00  0.00    +0.000 C 
ENDROOT
BRANCH   5   9
ATOM      9  C   UNL     1       7.187   6.392  17.588  0.00  0.00    +0.000 A 
ATOM     10  C   UNL     1       8.004   6.320  18.722  0.00  0.00    +0.000 A 
ATOM     11  C   UNL     1       8.599   7.470  19.244  0.00  0.00    +0.000 A 
ATOM     12  C   UNL     1       8.466   8.683  18.570  0.00  0.00    +0.000 A 
ATOM     13 BR   UNL     1       9.270  10.239  19.278  0.00  0.00    +0.000 Br
ATOM     14  C   UNL     1       7.754   8.749  17.374  0.00  0.00    +0.000 A 
ATOM     15  C   UNL     1       7.108   7.606  16.888  0.00  0.00    +0.000 A 
ENDBRANCH   5   9
BRANCH   1  17
ATOM     16  C   UNL     1       1.580   4.130  17.560  0.00  0.00    +0.000 C 
ATOM     17  C   UNL     1       1.861   3.993  19.060  0.00  0.00    +0.000 C 
BRANCH  17  18
ATOM     18  C   UNL     1       0.839   2.991  19.651  0.00  0.00    +0.000 C 
ATOM     19  N   UNL     1       0.773   2.933  21.016  0.00  0.00    +0.000 N 
ATOM     20  O   UNL     1       0.064   2.336  18.956  0.00  0.00    +0.000 OA
ATOM     21  H   UNL     1       1.131   3.714  21.551  0.00  0.00    +0.000 HD
ATOM     22  H   UNL     1       0.003   2.406  21.409  0.00  0.00    +0.000 HD
ENDBRANCH  17  18
ENDBRANCH   1  17
TORSDOF 3
ENDMDL
MODEL 4
REMARK VINA RESULT:      -6.1      4.625      5.831
REMARK  Name = 
REMARK  4 active torsions:
REMARK  status: ('A' for Active; 'I' for Inactive)
REMARK    1  A    between atoms: C_1  and  C_2
REMARK    2  A    between atoms: C_2  and  C_3
REMARK    3  A    between atoms: C_2  and  N_6
REMARK    4  A    between atoms: C_10  and  C_12
REMARK                            x       y       z     vdW  Elec       q    Type
REMARK                         _______ _______ _______ _____ _____    ______ ____
ROOT
ATOM      1  N   UNL     1       4.118   4.350  19.211  0.00  0.00    +0.000 NA
ATOM      2  C   UNL     1       4.414   5.229  18.043  0.00  0.00    +0.000 C 
ATOM      3  C   UNL     1       3.250   6.099  17.495  0.00  0.00    +0.000 C 
ATOM      4  N   UNL     1       2.496   6.750  18.574  0.00  0.00    +0.000 N 
ATOM      5  C   UNL     1       2.186   8.106  18.480  0.00  0.00    +0.000 C 
ATOM      6  O   UNL     1       2.461   8.778  17.487  0.00  0.00    +0.000 OA
ATOM      7  C   UNL     1       2.101   5.818  19.628  0.00  0.00    +0.000 C 
ATOM      8  C   UNL     1       3.377   5.178  20.207  0.00  0.00    +0.000 C 
ENDROOT
BRANCH   5   9
ATOM      9  C   UNL     1       1.468   8.801  19.592  0.00  0.00    +0.000 A 
ATOM     10  C   UNL     1       1.558   8.394  20.928  0.00  0.00    +0.000 A 
ATOM     11  C   UNL     1       0.772   9.001  21.910  0.00  0.00    +0.000 A 
ATOM     12  C   UNL     1      -0.029  10.092  21.577  0.00  0.00    +0.000 A 
ATOM     13 BR   UNL     1      -1.094  10.910  22.906  0.00  0.00    +0.000 Br
ATOM     14  C   UNL     1      -0.040  10.585  20.274  0.00  0.00    +0.000 A 
ATOM     15  C   UNL     1       0.702   9.935  19.281  0.00  0.00    +0.000 A 
ENDBRANCH   5   9
BRANCH   1  17
ATOM     16  C   UNL     1       3.016   2.990  17.368  0.00  0.00    +0.000 C 
ATOM     17  C   UNL     1       3.342   3.123  18.858  0.00  0.00    +0.000 C 
BRANCH  17  18
ATOM     18  C   UNL     1       4.149   1.873  19.288  0.00  0.00    +0.000 C 
ATOM     19  N   UNL     1       4.048   0.781  18.471  0.00  0.00    +0.000 N 
ATOM     20  O   UNL     1       4.906   1.866  20.257  0.00  0.00    +0.000 OA
ATOM     21  H   UNL     1       3.736   0.918  17.518  0.00  0.00    +0.000 HD
ATOM     22  H   UNL     1       4.691   0.021  18.652  0.00  0.00    +0.000 HD
ENDBRANCH  17  18
ENDBRANCH   1  17
TORSDOF 3
ENDMDL
MODEL 5
REMARK VINA RESULT:      -6.1      4.700      6.103
REMARK  Name = 
REMARK  4 active torsions:
REMARK  status: ('A' for Active; 'I' for Inactive)
REMARK    1  A    between atoms: C_1  and  C_2
REMARK    2  A    between atoms: C_2  and  C_3
REMARK    3  A    between atoms: C_2  and  N_6
REMARK    4  A    between atoms: C_10  and  C_12
REMARK                            x       y       z     vdW  Elec       q    Type
REMARK                         _______ _______ _______ _____ _____    ______ ____
ROOT
ATOM      1  N   UNL     1       4.359   4.972  18.898  0.00  0.00    +0.000 NA
ATOM      2  C   UNL     1       4.672   5.988  17.852  0.00  0.00    +0.000 C 
ATOM      3  C   UNL     1       3.482   6.804  17.276  0.00  0.00    +0.000 C 
ATOM      4  N   UNL     1       2.576   7.273  18.332  0.00  0.00    +0.000 N 
ATOM      5  C   UNL     1       2.146   8.599  18.336  0.00  0.00    +0.000 C 
ATOM      6  O   UNL     1       2.442   9.390  17.441  0.00  0.00    +0.000 OA
ATOM      7  C   UNL     1       2.181   6.207  19.251  0.00  0.00    +0.000 C 
ATOM      8  C   UNL     1       3.455   5.625  19.890  0.00  0.00    +0.000 C 
ENDROOT
BRANCH   5   9
ATOM      9  C   UNL     1       1.268   9.112  19.432  0.00  0.00    +0.000 A 
ATOM     10  C   UNL     1       0.185   9.967  19.203  0.00  0.00    +0.000 A 
ATOM     11  C   UNL     1      -0.528  10.514  20.272  0.00  0.00    +0.000 A 
ATOM     12  C   UNL     1      -0.227  10.121  21.575  0.00  0.00    +0.000 A 
ATOM     13 BR   UNL     1      -1.190  10.864  23.021  0.00  0.00    +0.000 Br
ATOM     14  C   UNL     1       0.771   9.179  21.813  0.00  0.00    +0.000 A 
ATOM     15  C   UNL     1       1.523   8.680  20.743  0.00  0.00    +0.000 A 
ENDBRANCH   5   9
BRANCH   1  17
ATOM     16  C   UNL     1       4.403   3.192  17.084  0.00  0.00    +0.000 C 
ATOM     17  C   UNL     1       3.739   3.724  18.358  0.00  0.00    +0.000 C 
BRANCH  17  18
ATOM     18  C   UNL     1       3.811   2.616  19.437  0.00  0.00    +0.000 C 
ATOM     19  N   UNL     1       5.065   2.216  19.808  0.00  0.00    +0.000 N 
ATOM     20  O   UNL     1       2.815   2.165  20.002  0.00  0.00    +0.000 OA
ATOM     21  H   UNL     1       5.845   2.834  19.618  0.00  0.00    +0.000 HD
ATOM     22  H   UNL     1       5.127   1.614  20.619  0.00  0.00    +0.000 HD
ENDBRANCH  17  18
ENDBRANCH   1  17
TORSDOF 3
ENDMDL
MODEL 6
REMARK VINA RESULT:      -6.0      3.801      6.443
REMARK  Name = 
REMARK  4 active torsions:
REMARK  status: ('A' for Active; 'I' for Inactive)
REMARK    1  A    between atoms: C_1  and  C_2
REMARK    2  A    between atoms: C_2  and  C_3
REMARK    3  A    between atoms: C_2  and  N_6
REMARK    4  A    between atoms: C_10  and  C_12
REMARK                            x       y       z     vdW  Elec       q    Type
REMARK                         _______ _______ _______ _____ _____    ______ ____
ROOT
ATOM      1  N   UNL     1       5.181   4.844  16.160  0.00  0.00    +0.000 NA
ATOM      2  C   UNL     1       4.775   3.988  17.312  0.00  0.00    +0.000 C 
ATOM      3  C   UNL     1       4.653   4.676  18.700  0.00  0.00    +0.000 C 
ATOM      4  N   UNL     1       3.948   5.962  18.614  0.00  0.00    +0.000 N 
ATOM      5  C   UNL     1       2.936   6.256  19.527  0.00  0.00    +0.000 C 
ATOM      6  O   UNL     1       2.648   5.504  20.457  0.00  0.00    +0.000 OA
ATOM      7  C   UNL     1       4.477   6.827  17.562  0.00  0.00    +0.000 C 
ATOM      8  C   UNL     1       4.352   6.083  16.220  0.00  0.00    +0.000 C 
ENDROOT
BRANCH   5   9
ATOM      9  C   UNL     1       2.168   7.535  19.425  0.00  0.00    +0.000 A 
ATOM     10  C   UNL     1       1.998   8.226  18.220  0.00  0.00    +0.000 A 
ATOM     11  C   UNL     1       1.377   9.477  18.200  0.00  0.00    +0.000 A 
ATOM     12  C   UNL     1       0.825   9.993  19.372  0.00  0.00    +0.000 A 
ATOM     13 BR   UNL     1      -0.012  11.686  19.344  0.00  0.00    +0.000 Br
ATOM     14  C   UNL     1       0.881   9.262  20.557  0.00  0.00    +0.000 A 
ATOM     15  C   UNL     1       1.558   8.037  20.585  0.00  0.00    +0.000 A 
ENDBRANCH   5   9
BRANCH   1  17
ATOM     16  C   UNL     1       7.474   4.402  17.162  0.00  0.00    +0.000 C 
ATOM     17  C   UNL     1       6.636   5.180  16.143  0.00  0.00    +0.000 C 
BRANCH  17  18
ATOM     18  C   UNL     1       7.205   4.891  14.731  0.00  0.00    +0.000 C 
ATOM     19  N   UNL     1       6.625   3.859  14.048  0.00  0.00    +0.000 N 
ATOM     20  O   UNL     1       8.071   5.587  14.203  0.00  0.00    +0.000 OA
ATOM     21  H   UNL     1       5.702   3.551  14.329  0.00  0.00    +0.000 HD
ATOM     22  H   UNL     1       6.876   3.766  13.071  0.00  0.00    +0.000 HD
ENDBRANCH  17  18
ENDBRANCH   1  17
TORSDOF 3
ENDMDL
MODEL 7
REMARK VINA RESULT:      -6.0      1.216      1.711
REMARK  Name = 
REMARK  4 active torsions:
REMARK  status: ('A' for Active; 'I' for Inactive)
REMARK    1  A    between atoms: C_1  and  C_2
REMARK    2  A    between atoms: C_2  and  C_3
REMARK    3  A    between atoms: C_2  and  N_6
REMARK    4  A    between atoms: C_10  and  C_12
REMARK                            x       y       z     vdW  Elec       q    Type
REMARK                         _______ _______ _______ _____ _____    ______ ____
ROOT
ATOM      1  N   UNL     1       3.264   3.604  19.362  0.00  0.00    +0.000 NA
ATOM      2  C   UNL     1       4.048   2.886  18.317  0.00  0.00    +0.000 C 
ATOM      3  C   UNL     1       4.598   3.730  17.135  0.00  0.00    +0.000 C 
ATOM      4  N   UNL     1       5.200   4.989  17.593  0.00  0.00    +0.000 N 
ATOM      5  C   UNL     1       6.446   5.378  17.103  0.00  0.00    +0.000 C 
ATOM      6  O   UNL     1       7.044   4.737  16.240  0.00  0.00    +0.000 OA
ATOM      7  C   UNL     1       4.331   5.731  18.505  0.00  0.00    +0.000 C 
ATOM      8  C   UNL     1       4.031   4.834  19.720  0.00  0.00    +0.000 C 
ENDROOT
BRANCH   5   9
ATOM      9  C   UNL     1       7.102   6.627  17.598  0.00  0.00    +0.000 A 
ATOM     10  C   UNL     1       6.861   7.886  17.037  0.00  0.00    +0.000 A 
ATOM     11  C   UNL     1       7.591   9.002  17.454  0.00  0.00    +0.000 A 
ATOM     12  C   UNL     1       8.490   8.882  18.512  0.00  0.00    +0.000 A 
ATOM     13 BR   UNL     1       9.478  10.390  19.075  0.00  0.00    +0.000 Br
ATOM     14  C   UNL     1       8.654   7.659  19.161  0.00  0.00    +0.000 A 
ATOM     15  C   UNL     1       7.966   6.532  18.699  0.00  0.00    +0.000 A 
ENDBRANCH   5   9
BRANCH   1  17
ATOM     16  C   UNL     1       1.661   3.961  17.422  0.00  0.00    +0.000 C 
ATOM     17  C   UNL     1       1.874   3.951  18.939  0.00  0.00    +0.000 C 
BRANCH  17  18
ATOM     18  C   UNL     1       0.887   2.930  19.557  0.00  0.00    +0.000 C 
ATOM     19  N   UNL     1       0.776   2.949  20.919  0.00  0.00    +0.000 N 
ATOM     20  O   UNL     1       0.174   2.194  18.877  0.00  0.00    +0.000 OA
ATOM     21  H   UNL     1       1.073   3.779  21.417  0.00  0.00    +0.000 HD
ATOM     22  H   UNL     1       0.023   2.403  21.319  0.00  0.00    +0.000 HD
ENDBRANCH  17  18
ENDBRANCH   1  17
TORSDOF 3
ENDMDL
MODEL 8
REMARK VINA RESULT:      -6.0      5.627      6.891
REMARK  Name = 
REMARK  4 active torsions:
REMARK  status: ('A' for Active; 'I' for Inactive)
REMARK    1  A    between atoms: C_1  and  C_2
REMARK    2  A    between atoms: C_2  and  C_3
REMARK    3  A    between atoms: C_2  and  N_6
REMARK    4  A    between atoms: C_10  and  C_12
REMARK                            x       y       z     vdW  Elec       q    Type
REMARK                         _______ _______ _______ _____ _____    ______ ____
ROOT
ATOM      1  N   UNL     1      -0.443   9.950  20.552  0.00  0.00    +0.000 NA
ATOM      2  C   UNL     1       0.023  10.421  19.216  0.00  0.00    +0.000 C 
ATOM      3  C   UNL     1       1.474  10.053  18.799  0.00  0.00    +0.000 C 
ATOM      4  N   UNL     1       1.791   8.651  19.099  0.00  0.00    +0.000 N 
ATOM      5  C   UNL     1       2.411   7.861  18.131  0.00  0.00    +0.000 C 
ATOM      6  O   UNL     1       2.770   8.311  17.044  0.00  0.00    +0.000 OA
ATOM      7  C   UNL     1       1.449   8.275  20.469  0.00  0.00    +0.000 C 
ATOM      8  C   UNL     1      -0.059   8.513  20.671  0.00  0.00    +0.000 C 
ENDROOT
BRANCH   5   9
ATOM      9  C   UNL     1       2.693   6.417  18.395  0.00  0.00    +0.000 A 
ATOM     10  C   UNL     1       3.809   5.979  19.117  0.00  0.00    +0.000 A 
ATOM     11  C   UNL     1       4.092   4.616  19.230  0.00  0.00    +0.000 A 
ATOM     12  C   UNL     1       3.200   3.680  18.712  0.00  0.00    +0.000 A 
ATOM     13 BR   UNL     1       3.585   1.837  18.863  0.00  0.00    +0.000 Br
ATOM     14  C   UNL     1       2.023   4.097  18.094  0.00  0.00    +0.000 A 
ATOM     15  C   UNL     1       1.774   5.465  17.929  0.00  0.00    +0.000 A 
ENDBRANCH   5   9
BRANCH   1  17
ATOM     16  C   UNL     1       0.061  12.259  21.488  0.00  0.00    +0.000 C 
ATOM     17  C   UNL     1       0.106  10.742  21.694  0.00  0.00    +0.000 C 
BRANCH  17  18
ATOM     18  C   UNL     1      -0.697  10.406  22.975  0.00  0.00    +0.000 C 
ATOM     19  N   UNL     1      -0.190   9.406  23.758  0.00  0.00    +0.000 N 
ATOM     20  O   UNL     1      -1.687  11.043  23.331  0.00  0.00    +0.000 OA
ATOM     21  H   UNL     1       0.786   9.159  23.655  0.00  0.00    +0.000 HD
ATOM     22  H   UNL     1      -0.613   9.288  24.670  0.00  0.00    +0.000 HD
ENDBRANCH  17  18
ENDBRANCH   1  17
TORSDOF 3
ENDMDL
MODEL 9
REMARK VINA RESULT:      -6.0      3.841      6.414
REMARK  Name = 
REMARK  4 active torsions:
REMARK  status: ('A' for Active; 'I' for Inactive)
REMARK    1  A    between atoms: C_1  and  C_2
REMARK    2  A    between atoms: C_2  and  C_3
REMARK    3  A    between atoms: C_2  and  N_6
REMARK    4  A    between atoms: C_10  and  C_12
REMARK                            x       y       z     vdW  Elec       q    Type
REMARK                         _______ _______ _______ _____ _____    ______ ____
ROOT
ATOM      1  N   UNL     1       5.150   4.930  16.027  0.00  0.00    +0.000 NA
ATOM      2  C   UNL     1       4.715   4.027  17.131  0.00  0.00    +0.000 C 
ATOM      3  C   UNL     1       4.600   4.645  18.552  0.00  0.00    +0.000 C 
ATOM      4  N   UNL     1       3.927   5.951  18.528  0.00  0.00    +0.000 N 
ATOM      5  C   UNL     1       2.916   6.224  19.448  0.00  0.00    +0.000 C 
ATOM      6  O   UNL     1       2.602   5.433  20.337  0.00  0.00    +0.000 OA
ATOM      7  C   UNL     1       4.486   6.855  17.526  0.00  0.00    +0.000 C 
ATOM      8  C   UNL     1       4.352   6.185  16.146  0.00  0.00    +0.000 C 
ENDROOT
BRANCH   5   9
ATOM      9  C   UNL     1       2.181   7.525  19.407  0.00  0.00    +0.000 A 
ATOM     10  C   UNL     1       1.639   8.129  20.547  0.00  0.00    +0.000 A 
ATOM     11  C   UNL     1       0.856   9.281  20.437  0.00  0.00    +0.000 A 
ATOM     12  C   UNL     1       0.702   9.895  19.196  0.00  0.00    +0.000 A 
ATOM     13 BR   UNL     1      -0.359  11.451  19.047  0.00  0.00    +0.000 Br
ATOM     14  C   UNL     1       1.334   9.372  18.069  0.00  0.00    +0.000 A 
ATOM     15  C   UNL     1       2.066   8.184  18.173  0.00  0.00    +0.000 A 
ENDBRANCH   5   9
BRANCH   1  17
ATOM     16  C   UNL     1       7.408   4.458  17.095  0.00  0.00    +0.000 C 
ATOM     17  C   UNL     1       6.614   5.229  16.036  0.00  0.00    +0.000 C 
BRANCH  17  18
ATOM     18  C   UNL     1       7.208   4.890  14.647  0.00  0.00    +0.000 C 
ATOM     19  N   UNL     1       6.640   3.834  13.991  0.00  0.00    +0.000 N 
ATOM     20  O   UNL     1       8.083   5.568  14.110  0.00  0.00    +0.000 OA
ATOM     21  H   UNL     1       5.713   3.535  14.266  0.00  0.00    +0.000 HD
ATOM     22  H   UNL     1       6.909   3.705  13.023  0.00  0.00    +0.000 HD
ENDBRANCH  17  18
ENDBRANCH   1  17
TORSDOF 3
ENDMDL
