MODEL 1
REMARK VINA RESULT:      -5.1      0.000      0.000
REMARK  Name = 
REMARK  4 active torsions:
REMARK  status: ('A' for Active; 'I' for Inactive)
REMARK    1  A    between atoms: C_1  and  C_2
REMARK    2  A    between atoms: C_2  and  C_3
REMARK    3  A    between atoms: C_2  and  C_5
REMARK    4  A    between atoms: C_3  and  N_4
REMARK                            x       y       z     vdW  Elec       q    Type
REMARK                         _______ _______ _______ _____ _____    ______ ____
ROOT
ATOM      1  C   UNL     1       3.506   6.819  17.947  0.00  0.00    +0.000 C 
ATOM      2  C   UNL     1       3.906   5.351  18.150  0.00  0.00    +0.000 C 
ENDROOT
BRANCH   2   3
ATOM      3  C   UNL     1       2.747   4.560  18.742  0.00  0.00    +0.000 A 
ATOM      4  C   UNL     1       2.314   4.828  20.048  0.00  0.00    +0.000 A 
ATOM      5  C   UNL     1       1.292   4.074  20.631  0.00  0.00    +0.000 A 
ATOM      6  C   UNL     1       0.689   3.044  19.913  0.00  0.00    +0.000 A 
ATOM      7  C   UNL     1       1.094   2.779  18.607  0.00  0.00    +0.000 A 
ATOM      8  C   UNL     1       2.113   3.535  18.023  0.00  0.00    +0.000 A 
ENDBRANCH   2   3
BRANCH   2   9
ATOM      9  C   UNL     1       5.184   5.205  19.003  0.00  0.00    +0.000 C 
BRANCH   9  10
ATOM     10  N   UNL     1       5.859   3.922  18.788  0.00  0.00    +0.000 NA
ATOM     11  H   UNL     1       6.018   3.782  17.792  0.00  0.00    +0.000 HD
ATOM     12  H   UNL     1       5.247   3.165  19.089  0.00  0.00    +0.000 HD
ENDBRANCH   9  10
ENDBRANCH   2   9
TORSDOF 3
ENDMDL
MODEL 2
REMARK VINA RESULT:      -5.1      0.795      1.701
REMARK  Name = 
REMARK  4 active torsions:
REMARK  status: ('A' for Active; 'I' for Inactive)
REMARK    1  A    between atoms: C_1  and  C_2
REMARK    2  A    between atoms: C_2  and  C_3
REMARK    3  A    between atoms: C_2  and  C_5
REMARK    4  A    between atoms: C_3  and  N_4
REMARK                            x       y       z     vdW  Elec       q    Type
REMARK                         _______ _______ _______ _____ _____    ______ ____
ROOT
ATOM      1  C   UNL     1       4.018   6.354  17.853  0.00  0.00    +0.000 C 
ATOM      2  C   UNL     1       3.653   4.922  17.442  0.00  0.00    +0.000 C 
ENDROOT
BRANCH   2   3
ATOM      3  C   UNL     1       2.648   4.327  18.419  0.00  0.00    +0.000 A 
ATOM      4  C   UNL     1       1.972   3.144  18.090  0.00  0.00    +0.000 A 
ATOM      5  C   UNL     1       1.003   2.613  18.947  0.00  0.00    +0.000 A 
ATOM      6  C   UNL     1       0.702   3.258  20.144  0.00  0.00    +0.000 A 
ATOM      7  C   UNL     1       1.380   4.423  20.494  0.00  0.00    +0.000 A 
ATOM      8  C   UNL     1       2.351   4.951  19.640  0.00  0.00    +0.000 A 
ENDBRANCH   2   3
BRANCH   2   9
ATOM      9  C   UNL     1       4.897   4.020  17.291  0.00  0.00    +0.000 C 
BRANCH   9  10
ATOM     10  N   UNL     1       5.581   3.790  18.567  0.00  0.00    +0.000 NA
ATOM     11  H   UNL     1       4.970   4.057  19.336  0.00  0.00    +0.000 HD
ATOM     12  H   UNL     1       6.397   4.398  18.625  0.00  0.00    +0.000 HD
ENDBRANCH   9  10
ENDBRANCH   2   9
TORSDOF 3
ENDMDL
MODEL 3
REMARK VINA RESULT:      -5.0      2.182      3.302
REMARK  Name = 
REMARK  4 active torsions:
REMARK  status: ('A' for Active; 'I' for Inactive)
REMARK    1  A    between atoms: C_1  and  C_2
REMARK    2  A    between atoms: C_2  and  C_3
REMARK    3  A    between atoms: C_2  and  C_5
REMARK    4  A    between atoms: C_3  and  N_4
REMARK                            x       y       z     vdW  Elec       q    Type
REMARK                         _______ _______ _______ _____ _____    ______ ____
ROOT
ATOM      1  C   UNL     1       5.945   4.931  14.794  0.00  0.00    +0.000 C 
ATOM      2  C   UNL     1       5.990   4.473  16.257  0.00  0.00    +0.000 C 
ENDROOT
BRANCH   2   3
ATOM      3  C   UNL     1       4.651   4.726  16.937  0.00  0.00    +0.000 A 
ATOM      4  C   UNL     1       3.719   3.685  17.052  0.00  0.00    +0.000 A 
ATOM      5  C   UNL     1       2.462   3.911  17.620  0.00  0.00    +0.000 A 
ATOM      6  C   UNL     1       2.123   5.181  18.081  0.00  0.00    +0.000 A 
ATOM      7  C   UNL     1       3.046   6.221  17.992  0.00  0.00    +0.000 A 
ATOM      8  C   UNL     1       4.304   5.993  17.430  0.00  0.00    +0.000 A 
ENDBRANCH   2   3
BRANCH   2   9
ATOM      9  C   UNL     1       7.152   5.123  17.039  0.00  0.00    +0.000 C 
BRANCH   9  10
ATOM     10  N   UNL     1       8.069   4.132  17.610  0.00  0.00    +0.000 NA
ATOM     11  H   UNL     1       7.987   3.255  17.097  0.00  0.00    +0.000 HD
ATOM     12  H   UNL     1       7.791   3.929  18.569  0.00  0.00    +0.000 HD
ENDBRANCH   9  10
ENDBRANCH   2   9
TORSDOF 3
ENDMDL
MODEL 4
REMARK VINA RESULT:      -5.0      1.889      2.588
REMARK  Name = 
REMARK  4 active torsions:
REMARK  status: ('A' for Active; 'I' for Inactive)
REMARK    1  A    between atoms: C_1  and  C_2
REMARK    2  A    between atoms: C_2  and  C_3
REMARK    3  A    between atoms: C_2  and  C_5
REMARK    4  A    between atoms: C_3  and  N_4
REMARK                            x       y       z     vdW  Elec       q    Type
REMARK                         _______ _______ _______ _____ _____    ______ ____
ROOT
ATOM      1  C   UNL     1       6.427   5.478  19.023  0.00  0.00    +0.000 C 
ATOM      2  C   UNL     1       5.873   5.459  17.592  0.00  0.00    +0.000 C 
ENDROOT
BRANCH   2   3
ATOM      3  C   UNL     1       4.415   5.017  17.591  0.00  0.00    +0.000 A 
ATOM      4  C   UNL     1       3.423   5.886  18.066  0.00  0.00    +0.000 A 
ATOM      5  C   UNL     1       2.087   5.478  18.128  0.00  0.00    +0.000 A 
ATOM      6  C   UNL     1       1.729   4.198  17.713  0.00  0.00    +0.000 A 
ATOM      7  C   UNL     1       2.700   3.330  17.220  0.00  0.00    +0.000 A 
ATOM      8  C   UNL     1       4.034   3.739  17.154  0.00  0.00    +0.000 A 
ENDBRANCH   2   3
BRANCH   2   9
ATOM      9  C   UNL     1       6.727   4.589  16.645  0.00  0.00    +0.000 C 
BRANCH   9  10
ATOM     10  N   UNL     1       7.991   4.168  17.256  0.00  0.00    +0.000 NA
ATOM     11  H   UNL     1       8.530   4.989  17.526  0.00  0.00    +0.000 HD
ATOM     12  H   UNL     1       8.551   3.673  16.563  0.00  0.00    +0.000 HD
ENDBRANCH   9  10
ENDBRANCH   2   9
TORSDOF 3
ENDMDL
MODEL 5
REMARK VINA RESULT:      -5.0      2.453      3.292
REMARK  Name = 
REMARK  4 active torsions:
REMARK  status: ('A' for Active; 'I' for Inactive)
REMARK    1  A    between atoms: C_1  and  C_2
REMARK    2  A    between atoms: C_2  and  C_3
REMARK    3  A    between atoms: C_2  and  C_5
REMARK    4  A    between atoms: C_3  and  N_4
REMARK                            x       y       z     vdW  Elec       q    Type
REMARK                         _______ _______ _______ _____ _____    ______ ____
ROOT
ATOM      1  C   UNL     1       5.501   4.319  14.485  0.00  0.00    +0.000 C 
ATOM      2  C   UNL     1       5.666   4.011  15.979  0.00  0.00    +0.000 C 
ENDROOT
BRANCH   2   3
ATOM      3  C   UNL     1       4.433   4.459  16.755  0.00  0.00    +0.000 A 
ATOM      4  C   UNL     1       4.322   5.790  17.179  0.00  0.00    +0.000 A 
ATOM      5  C   UNL     1       3.227   6.207  17.942  0.00  0.00    +0.000 A 
ATOM      6  C   UNL     1       2.231   5.298  18.287  0.00  0.00    +0.000 A 
ATOM      7  C   UNL     1       2.317   3.977  17.856  0.00  0.00    +0.000 A 
ATOM      8  C   UNL     1       3.408   3.561  17.090  0.00  0.00    +0.000 A 
ENDBRANCH   2   3
BRANCH   2   9
ATOM      9  C   UNL     1       6.955   4.624  16.566  0.00  0.00    +0.000 C 
BRANCH   9  10
ATOM     10  N   UNL     1       7.569   5.607  15.669  0.00  0.00    +0.000 NA
ATOM     11  H   UNL     1       6.907   6.358  15.481  0.00  0.00    +0.000 HD
ATOM     12  H   UNL     1       7.765   5.167  14.771  0.00  0.00    +0.000 HD
ENDBRANCH   9  10
ENDBRANCH   2   9
TORSDOF 3
ENDMDL
MODEL 6
REMARK VINA RESULT:      -4.9      1.831      2.636
REMARK  Name = 
REMARK  4 active torsions:
REMARK  status: ('A' for Active; 'I' for Inactive)
REMARK    1  A    between atoms: C_1  and  C_2
REMARK    2  A    between atoms: C_2  and  C_3
REMARK    3  A    between atoms: C_2  and  C_5
REMARK    4  A    between atoms: C_3  and  N_4
REMARK                            x       y       z     vdW  Elec       q    Type
REMARK                         _______ _______ _______ _____ _____    ______ ____
ROOT
ATOM      1  C   UNL     1       5.696   6.842  17.051  0.00  0.00    +0.000 C 
ATOM      2  C   UNL     1       5.666   5.309  17.018  0.00  0.00    +0.000 C 
ENDROOT
BRANCH   2   3
ATOM      3  C   UNL     1       4.276   4.795  17.372  0.00  0.00    +0.000 A 
ATOM      4  C   UNL     1       3.967   3.440  17.190  0.00  0.00    +0.000 A 
ATOM      5  C   UNL     1       2.680   2.960  17.453  0.00  0.00    +0.000 A 
ATOM      6  C   UNL     1       1.690   3.830  17.903  0.00  0.00    +0.000 A 
ATOM      7  C   UNL     1       1.988   5.175  18.108  0.00  0.00    +0.000 A 
ATOM      8  C   UNL     1       3.274   5.653  17.850  0.00  0.00    +0.000 A 
ENDBRANCH   2   3
BRANCH   2   9
ATOM      9  C   UNL     1       6.747   4.681  17.925  0.00  0.00    +0.000 C 
BRANCH   9  10
ATOM     10  N   UNL     1       7.919   4.228  17.170  0.00  0.00    +0.000 NA
ATOM     11  H   UNL     1       8.642   4.944  17.199  0.00  0.00    +0.000 HD
ATOM     12  H   UNL     1       7.665   4.117  16.189  0.00  0.00    +0.000 HD
ENDBRANCH   9  10
ENDBRANCH   2   9
TORSDOF 3
ENDMDL
MODEL 7
REMARK VINA RESULT:      -4.9      1.260      1.606
REMARK  Name = 
REMARK  4 active torsions:
REMARK  status: ('A' for Active; 'I' for Inactive)
REMARK    1  A    between atoms: C_1  and  C_2
REMARK    2  A    between atoms: C_2  and  C_3
REMARK    3  A    between atoms: C_2  and  C_5
REMARK    4  A    between atoms: C_3  and  N_4
REMARK                            x       y       z     vdW  Elec       q    Type
REMARK                         _______ _______ _______ _____ _____    ______ ____
ROOT
ATOM      1  C   UNL     1       3.679   5.561  17.535  0.00  0.00    +0.000 C 
ATOM      2  C   UNL     1       4.242   4.401  18.365  0.00  0.00    +0.000 C 
ENDROOT
BRANCH   2   3
ATOM      3  C   UNL     1       3.198   3.897  19.353  0.00  0.00    +0.000 A 
ATOM      4  C   UNL     1       1.885   4.383  19.289  0.00  0.00    +0.000 A 
ATOM      5  C   UNL     1       0.926   3.978  20.223  0.00  0.00    +0.000 A 
ATOM      6  C   UNL     1       1.270   3.079  21.230  0.00  0.00    +0.000 A 
ATOM      7  C   UNL     1       2.565   2.572  21.295  0.00  0.00    +0.000 A 
ATOM      8  C   UNL     1       3.522   2.973  20.359  0.00  0.00    +0.000 A 
ENDBRANCH   2   3
BRANCH   2   9
ATOM      9  C   UNL     1       5.559   4.774  19.078  0.00  0.00    +0.000 C 
BRANCH   9  10
ATOM     10  N   UNL     1       6.741   4.261  18.379  0.00  0.00    +0.000 NA
ATOM     11  H   UNL     1       7.549   4.838  18.605  0.00  0.00    +0.000 HD
ATOM     12  H   UNL     1       6.600   4.346  17.373  0.00  0.00    +0.000 HD
ENDBRANCH   9  10
ENDBRANCH   2   9
TORSDOF 3
ENDMDL
MODEL 8
REMARK VINA RESULT:      -4.9      1.121      1.223
REMARK  Name = 
REMARK  4 active torsions:
REMARK  status: ('A' for Active; 'I' for Inactive)
REMARK    1  A    between atoms: C_1  and  C_2
REMARK    2  A    between atoms: C_2  and  C_3
REMARK    3  A    between atoms: C_2  and  C_5
REMARK    4  A    between atoms: C_3  and  N_4
REMARK                            x       y       z     vdW  Elec       q    Type
REMARK                         _______ _______ _______ _____ _____    ______ ____
ROOT
ATOM      1  C   UNL     1       2.500   7.563  18.600  0.00  0.00    +0.000 C 
ATOM      2  C   UNL     1       2.875   6.223  17.953  0.00  0.00    +0.000 C 
ENDROOT
BRANCH   2   3
ATOM      3  C   UNL     1       2.144   5.077  18.641  0.00  0.00    +0.000 A 
ATOM      4  C   UNL     1       1.930   5.117  20.026  0.00  0.00    +0.000 A 
ATOM      5  C   UNL     1       1.314   4.049  20.684  0.00  0.00    +0.000 A 
ATOM      6  C   UNL     1       0.904   2.929  19.965  0.00  0.00    +0.000 A 
ATOM      7  C   UNL     1       1.091   2.883  18.586  0.00  0.00    +0.000 A 
ATOM      8  C   UNL     1       1.702   3.952  17.927  0.00  0.00    +0.000 A 
ENDBRANCH   2   3
BRANCH   2   9
ATOM      9  C   UNL     1       4.400   5.988  17.932  0.00  0.00    +0.000 C 
BRANCH   9  10
ATOM     10  N   UNL     1       4.853   5.349  16.693  0.00  0.00    +0.000 NA
ATOM     11  H   UNL     1       5.027   4.360  16.862  0.00  0.00    +0.000 HD
ATOM     12  H   UNL     1       5.746   5.753  16.412  0.00  0.00    +0.000 HD
ENDBRANCH   9  10
ENDBRANCH   2   9
TORSDOF 3
ENDMDL
MODEL 9
REMARK VINA RESULT:      -4.9      1.918      4.290
REMARK  Name = 
REMARK  4 active torsions:
REMARK  status: ('A' for Active; 'I' for Inactive)
REMARK    1  A    between atoms: C_1  and  C_2
REMARK    2  A    between atoms: C_2  and  C_3
REMARK    3  A    between atoms: C_2  and  C_5
REMARK    4  A    between atoms: C_3  and  N_4
REMARK                            x       y       z     vdW  Elec       q    Type
REMARK                         _______ _______ _______ _____ _____    ______ ____
ROOT
ATOM      1  C   UNL     1       1.600   3.617  18.154  0.00  0.00    +0.000 C 
ATOM      2  C   UNL     1       3.074   3.721  18.566  0.00  0.00    +0.000 C 
ENDROOT
BRANCH   2   3
ATOM      3  C   UNL     1       3.851   4.556  17.557  0.00  0.00    +0.000 A 
ATOM      4  C   UNL     1       4.562   3.923  16.527  0.00  0.00    +0.000 A 
ATOM      5  C   UNL     1       5.329   4.667  15.626  0.00  0.00    +0.000 A 
ATOM      6  C   UNL     1       5.392   6.053  15.743  0.00  0.00    +0.000 A 
ATOM      7  C   UNL     1       4.676   6.698  16.748  0.00  0.00    +0.000 A 
ATOM      8  C   UNL     1       3.906   5.955  17.645  0.00  0.00    +0.000 A 
ENDBRANCH   2   3
BRANCH   2   9
ATOM      9  C   UNL     1       3.724   2.336  18.773  0.00  0.00    +0.000 C 
BRANCH   9  10
ATOM     10  N   UNL     1       4.861   2.383  19.698  0.00  0.00    +0.000 NA
ATOM     11  H   UNL     1       4.599   1.954  20.583  0.00  0.00    +0.000 HD
ATOM     12  H   UNL     1       5.086   3.355  19.906  0.00  0.00    +0.000 HD
ENDBRANCH   9  10
ENDBRANCH   2   9
TORSDOF 3
ENDMDL
