MODEL 1
REMARK VINA RESULT:      -8.7      0.000      0.000
REMARK  Name = 
REMARK  8 active torsions:
REMARK  status: ('A' for Active; 'I' for Inactive)
REMARK    1  A    between atoms: C_1  and  O_2
REMARK    2  A    between atoms: O_2  and  C_3
REMARK    3  A    between atoms: C_5  and  C_6
REMARK    4  A    between atoms: C_9  and  C_10
REMARK    5  A    between atoms: C_21  and  O_22
REMARK    6  A    between atoms: O_22  and  C_23
REMARK    7  A    between atoms: C_23  and  C_24
REMARK    8  A    between atoms: C_27  and  C_28
REMARK                            x       y       z     vdW  Elec       q    Type
REMARK                         _______ _______ _______ _____ _____    ______ ____
ROOT
ATOM      1  C   UNL     1       2.844   5.243  19.952  0.00  0.00    +0.000 A 
ATOM      2  C   UNL     1       2.031   6.250  20.471  0.00  0.00    +0.000 A 
ATOM      3  C   UNL     1       1.894   7.489  19.841  0.00  0.00    +0.000 A 
ATOM      4  C   UNL     1       2.574   7.737  18.655  0.00  0.00    +0.000 A 
ATOM      5  C   UNL     1       3.394   6.766  18.118  0.00  0.00    +0.000 A 
ATOM      6  C   UNL     1       3.573   5.500  18.748  0.00  0.00    +0.000 A 
ENDROOT
BRANCH   3   7
ATOM      7  C   UNL     1       1.044   8.522  20.435  0.00  0.00    +0.000 A 
ATOM      8  N   UNL     1       0.060   8.292  21.324  0.00  0.00    +0.000 NA
ATOM      9  O   UNL     1      -0.445   9.461  21.585  0.00  0.00    +0.000 OA
ATOM     10  C   UNL     1       0.193  10.367  20.880  0.00  0.00    +0.000 A 
ATOM     11  N   UNL     1       1.150   9.819  20.128  0.00  0.00    +0.000 NA
BRANCH  10  12
ATOM     12  C   UNL     1      -0.106  11.831  20.895  0.00  0.00    +0.000 C 
ATOM     13  C   UNL     1      -0.641  12.213  22.278  0.00  0.00    +0.000 C 
ATOM     14  C   UNL     1      -1.250  13.558  21.970  0.00  0.00    +0.000 C 
ATOM     15  C   UNL     1      -1.998  13.250  20.675  0.00  0.00    +0.000 C 
ATOM     16  N   UNL     1      -1.177  12.255  20.008  0.00  0.00    +0.000 N 
ATOM     17  C   UNL     1      -1.549  11.639  18.758  0.00  0.00    +0.000 C 
ATOM     18  N   UNL     1      -2.714  11.846  18.243  0.00  0.00    +0.000 NA
ATOM     19  N   UNL     1      -0.657  10.786  18.055  0.00  0.00    +0.000 N 
ATOM     20  H   UNL     1      -3.429  12.437  18.685  0.00  0.00    +0.000 HD
ATOM     21  H   UNL     1       0.316  10.646  18.353  0.00  0.00    +0.000 HD
ATOM     22  H   UNL     1      -0.963  10.333  17.179  0.00  0.00    +0.000 HD
ENDBRANCH  10  12
ENDBRANCH   3   7
BRANCH   1  24
ATOM     23  C   UNL     1       1.916   3.511  21.479  0.00  0.00    +0.000 C 
ATOM     24  O   UNL     1       2.879   4.114  20.709  0.00  0.00    +0.000 OA
ENDBRANCH   1  24
BRANCH   6  25
ATOM     25  O   UNL     1       4.486   4.620  18.239  0.00  0.00    +0.000 OA
BRANCH  25  26
ATOM     26  C   UNL     1       5.708   5.077  17.745  0.00  0.00    +0.000 C 
BRANCH  26  27
ATOM     27  C   UNL     1       5.991   4.721  16.324  0.00  0.00    +0.000 A 
ATOM     28  C   UNL     1       7.133   5.158  15.649  0.00  0.00    +0.000 A 
ATOM     29  C   UNL     1       7.318   4.826  14.304  0.00  0.00    +0.000 A 
ATOM     30  C   UNL     1       6.351   4.065  13.617  0.00  0.00    +0.000 A 
ATOM     31  C   UNL     1       5.209   3.626  14.303  0.00  0.00    +0.000 A 
ATOM     32  C   UNL     1       5.037   3.942  15.648  0.00  0.00    +0.000 A 
BRANCH  30  33
ATOM     33  C   UNL     1       6.508   3.717  12.162  0.00  0.00    +0.000 C 
ATOM     34  F   UNL     1       7.090   2.474  11.996  0.00  0.00    +0.000 F 
ATOM     35  F   UNL     1       5.267   3.714  11.552  0.00  0.00    +0.000 F 
ATOM     36  F   UNL     1       7.310   4.665  11.552  0.00  0.00    +0.000 F 
ENDBRANCH  30  33
ENDBRANCH  26  27
ENDBRANCH  25  26
ENDBRANCH   6  25
TORSDOF 7
ENDMDL
MODEL 2
REMARK VINA RESULT:      -8.6      1.188      1.418
REMARK  Name = 
REMARK  8 active torsions:
REMARK  status: ('A' for Active; 'I' for Inactive)
REMARK    1  A    between atoms: C_1  and  O_2
REMARK    2  A    between atoms: O_2  and  C_3
REMARK    3  A    between atoms: C_5  and  C_6
REMARK    4  A    between atoms: C_9  and  C_10
REMARK    5  A    between atoms: C_21  and  O_22
REMARK    6  A    between atoms: O_22  and  C_23
REMARK    7  A    between atoms: C_23  and  C_24
REMARK    8  A    between atoms: C_27  and  C_28
REMARK                            x       y       z     vdW  Elec       q    Type
REMARK                         _______ _______ _______ _____ _____    ______ ____
ROOT
ATOM      1  C   UNL     1       3.007   5.513  19.563  0.00  0.00    +0.000 A 
ATOM      2  C   UNL     1       2.282   6.678  19.805  0.00  0.00    +0.000 A 
ATOM      3  C   UNL     1       2.364   7.790  18.964  0.00  0.00    +0.000 A 
ATOM      4  C   UNL     1       3.181   7.744  17.841  0.00  0.00    +0.000 A 
ATOM      5  C   UNL     1       3.921   6.610  17.576  0.00  0.00    +0.000 A 
ATOM      6  C   UNL     1       3.876   5.467  18.427  0.00  0.00    +0.000 A 
ENDROOT
BRANCH   3   7
ATOM      7  C   UNL     1       1.598   8.999  19.272  0.00  0.00    +0.000 A 
ATOM      8  N   UNL     1       0.677   9.098  20.247  0.00  0.00    +0.000 NA
ATOM      9  O   UNL     1       0.234  10.318  20.176  0.00  0.00    +0.000 OA
ATOM     10  C   UNL     1       0.848  10.937  19.193  0.00  0.00    +0.000 A 
ATOM     11  N   UNL     1       1.726  10.138  18.583  0.00  0.00    +0.000 NA
BRANCH  10  12
ATOM     12  C   UNL     1       0.602  12.353  18.786  0.00  0.00    +0.000 C 
ATOM     13  C   UNL     1       0.940  13.273  19.963  0.00  0.00    +0.000 C 
ATOM     14  C   UNL     1       0.256  14.541  19.520  0.00  0.00    +0.000 C 
ATOM     15  C   UNL     1      -1.091  13.999  19.049  0.00  0.00    +0.000 C 
ATOM     16  N   UNL     1      -0.785  12.687  18.507  0.00  0.00    +0.000 N 
ATOM     17  C   UNL     1      -1.796  11.793  17.995  0.00  0.00    +0.000 C 
ATOM     18  N   UNL     1      -3.048  12.070  18.132  0.00  0.00    +0.000 NA
ATOM     19  N   UNL     1      -1.452  10.585  17.332  0.00  0.00    +0.000 N 
ATOM     20  H   UNL     1      -3.391  12.914  18.608  0.00  0.00    +0.000 HD
ATOM     21  H   UNL     1      -0.480  10.342  17.105  0.00  0.00    +0.000 HD
ATOM     22  H   UNL     1      -2.197   9.949  17.006  0.00  0.00    +0.000 HD
ENDBRANCH  10  12
ENDBRANCH   3   7
BRANCH   1  24
ATOM     23  C   UNL     1       1.684   4.025  21.056  0.00  0.00    +0.000 C 
ATOM     24  O   UNL     1       2.826   4.543  20.498  0.00  0.00    +0.000 OA
ENDBRANCH   1  24
BRANCH   6  25
ATOM     25  O   UNL     1       4.716   4.416  18.184  0.00  0.00    +0.000 OA
BRANCH  25  26
ATOM     26  C   UNL     1       6.019   4.642  17.737  0.00  0.00    +0.000 C 
BRANCH  26  27
ATOM     27  C   UNL     1       6.235   4.425  16.278  0.00  0.00    +0.000 A 
ATOM     28  C   UNL     1       7.246   5.067  15.560  0.00  0.00    +0.000 A 
ATOM     29  C   UNL     1       7.369   4.854  14.184  0.00  0.00    +0.000 A 
ATOM     30  C   UNL     1       6.468   4.005  13.511  0.00  0.00    +0.000 A 
ATOM     31  C   UNL     1       5.459   3.359  14.239  0.00  0.00    +0.000 A 
ATOM     32  C   UNL     1       5.351   3.559  15.612  0.00  0.00    +0.000 A 
BRANCH  30  33
ATOM     33  C   UNL     1       6.557   3.779  12.026  0.00  0.00    +0.000 C 
ATOM     34  F   UNL     1       5.306   3.769  11.437  0.00  0.00    +0.000 F 
ATOM     35  F   UNL     1       7.312   4.784  11.451  0.00  0.00    +0.000 F 
ATOM     36  F   UNL     1       7.168   2.561  11.787  0.00  0.00    +0.000 F 
ENDBRANCH  30  33
ENDBRANCH  26  27
ENDBRANCH  25  26
ENDBRANCH   6  25
TORSDOF 7
ENDMDL
MODEL 3
REMARK VINA RESULT:      -8.5      6.932      8.613
REMARK  Name = 
REMARK  8 active torsions:
REMARK  status: ('A' for Active; 'I' for Inactive)
REMARK    1  A    between atoms: C_1  and  O_2
REMARK    2  A    between atoms: O_2  and  C_3
REMARK    3  A    between atoms: C_5  and  C_6
REMARK    4  A    between atoms: C_9  and  C_10
REMARK    5  A    between atoms: C_21  and  O_22
REMARK    6  A    between atoms: O_22  and  C_23
REMARK    7  A    between atoms: C_23  and  C_24
REMARK    8  A    between atoms: C_27  and  C_28
REMARK                            x       y       z     vdW  Elec       q    Type
REMARK                         _______ _______ _______ _____ _____    ______ ____
ROOT
ATOM      1  C   UNL     1       7.897   6.478  18.560  0.00  0.00    +0.000 A 
ATOM      2  C   UNL     1       8.516   7.639  19.021  0.00  0.00    +0.000 A 
ATOM      3  C   UNL     1       8.297   8.882  18.423  0.00  0.00    +0.000 A 
ATOM      4  C   UNL     1       7.430   8.983  17.342  0.00  0.00    +0.000 A 
ATOM      5  C   UNL     1       6.807   7.851  16.854  0.00  0.00    +0.000 A 
ATOM      6  C   UNL     1       7.027   6.565  17.427  0.00  0.00    +0.000 A 
ENDROOT
BRANCH   3   7
ATOM      7  C   UNL     1       8.986  10.070  18.930  0.00  0.00    +0.000 A 
ATOM      8  N   UNL     1       9.738  10.105  20.045  0.00  0.00    +0.000 NA
ATOM      9  O   UNL     1      10.152  11.334  20.139  0.00  0.00    +0.000 OA
ATOM     10  C   UNL     1       9.665  12.025  19.133  0.00  0.00    +0.000 A 
ATOM     11  N   UNL     1       8.913  11.265  18.335  0.00  0.00    +0.000 NA
BRANCH  10  12
ATOM     12  C   UNL     1       9.904  13.481  18.899  0.00  0.00    +0.000 C 
ATOM     13  C   UNL     1       8.561  14.168  18.635  0.00  0.00    +0.000 C 
ATOM     14  C   UNL     1       9.035  15.467  18.034  0.00  0.00    +0.000 C 
ATOM     15  C   UNL     1      10.095  14.966  17.055  0.00  0.00    +0.000 C 
ATOM     16  N   UNL     1      10.668  13.801  17.705  0.00  0.00    +0.000 N 
ATOM     17  C   UNL     1      11.683  12.980  17.091  0.00  0.00    +0.000 C 
ATOM     18  N   UNL     1      12.027  13.168  15.862  0.00  0.00    +0.000 NA
ATOM     19  N   UNL     1      12.333  11.941  17.809  0.00  0.00    +0.000 N 
ATOM     20  H   UNL     1      11.605  13.886  15.261  0.00  0.00    +0.000 HD
ATOM     21  H   UNL     1      12.179  11.790  18.814  0.00  0.00    +0.000 HD
ATOM     22  H   UNL     1      13.032  11.347  17.334  0.00  0.00    +0.000 HD
ENDBRANCH  10  12
ENDBRANCH   3   7
BRANCH   1  24
ATOM     23  C   UNL     1       8.556   5.161  20.566  0.00  0.00    +0.000 C 
ATOM     24  O   UNL     1       8.246   5.356  19.243  0.00  0.00    +0.000 OA
ENDBRANCH   1  24
BRANCH   6  25
ATOM     25  O   UNL     1       6.479   5.463  16.833  0.00  0.00    +0.000 OA
BRANCH  25  26
ATOM     26  C   UNL     1       5.212   5.530  16.252  0.00  0.00    +0.000 C 
BRANCH  26  27
ATOM     27  C   UNL     1       4.112   4.926  17.058  0.00  0.00    +0.000 A 
ATOM     28  C   UNL     1       3.164   5.693  17.738  0.00  0.00    +0.000 A 
ATOM     29  C   UNL     1       2.183   5.066  18.511  0.00  0.00    +0.000 A 
ATOM     30  C   UNL     1       2.153   3.662  18.624  0.00  0.00    +0.000 A 
ATOM     31  C   UNL     1       3.105   2.898  17.934  0.00  0.00    +0.000 A 
ATOM     32  C   UNL     1       4.069   3.524  17.149  0.00  0.00    +0.000 A 
BRANCH  30  33
ATOM     33  C   UNL     1       1.128   2.960  19.473  0.00  0.00    +0.000 C 
ATOM     34  F   UNL     1       1.716   2.047  20.328  0.00  0.00    +0.000 F 
ATOM     35  F   UNL     1       0.436   3.892  20.223  0.00  0.00    +0.000 F 
ATOM     36  F   UNL     1       0.240   2.289  18.652  0.00  0.00    +0.000 F 
ENDBRANCH  30  33
ENDBRANCH  26  27
ENDBRANCH  25  26
ENDBRANCH   6  25
TORSDOF 7
ENDMDL
MODEL 4
REMARK VINA RESULT:      -8.5      1.174      1.395
REMARK  Name = 
REMARK  8 active torsions:
REMARK  status: ('A' for Active; 'I' for Inactive)
REMARK    1  A    between atoms: C_1  and  O_2
REMARK    2  A    between atoms: O_2  and  C_3
REMARK    3  A    between atoms: C_5  and  C_6
REMARK    4  A    between atoms: C_9  and  C_10
REMARK    5  A    between atoms: C_21  and  O_22
REMARK    6  A    between atoms: O_22  and  C_23
REMARK    7  A    between atoms: C_23  and  C_24
REMARK    8  A    between atoms: C_27  and  C_28
REMARK                            x       y       z     vdW  Elec       q    Type
REMARK                         _______ _______ _______ _____ _____    ______ ____
ROOT
ATOM      1  C   UNL     1       2.685   6.107  19.537  0.00  0.00    +0.000 A 
ATOM      2  C   UNL     1       2.085   7.359  19.660  0.00  0.00    +0.000 A 
ATOM      3  C   UNL     1       2.299   8.377  18.729  0.00  0.00    +0.000 A 
ATOM      4  C   UNL     1       3.123   8.147  17.634  0.00  0.00    +0.000 A 
ATOM      5  C   UNL     1       3.740   6.921  17.486  0.00  0.00    +0.000 A 
ATOM      6  C   UNL     1       3.561   5.869  18.430  0.00  0.00    +0.000 A 
ENDROOT
BRANCH   3   7
ATOM      7  C   UNL     1       1.662   9.683  18.912  0.00  0.00    +0.000 A 
ATOM      8  N   UNL     1       1.769  10.717  18.059  0.00  0.00    +0.000 NA
ATOM      9  O   UNL     1       1.071  11.675  18.592  0.00  0.00    +0.000 OA
ATOM     10  C   UNL     1       0.567  11.251  19.729  0.00  0.00    +0.000 A 
ATOM     11  N   UNL     1       0.917   9.987  19.980  0.00  0.00    +0.000 NA
BRANCH  10  12
ATOM     12  C   UNL     1      -0.286  12.067  20.645  0.00  0.00    +0.000 C 
ATOM     13  C   UNL     1      -0.428  11.328  21.979  0.00  0.00    +0.000 C 
ATOM     14  C   UNL     1      -1.603  12.064  22.572  0.00  0.00    +0.000 C 
ATOM     15  C   UNL     1      -2.546  12.123  21.373  0.00  0.00    +0.000 C 
ATOM     16  N   UNL     1      -1.666  12.235  20.223  0.00  0.00    +0.000 N 
ATOM     17  C   UNL     1      -2.150  12.264  18.864  0.00  0.00    +0.000 C 
ATOM     18  N   UNL     1      -3.394  12.046  18.604  0.00  0.00    +0.000 NA
ATOM     19  N   UNL     1      -1.281  12.529  17.772  0.00  0.00    +0.000 N 
ATOM     20  H   UNL     1      -4.093  11.834  19.326  0.00  0.00    +0.000 HD
ATOM     21  H   UNL     1      -0.299  12.801  17.906  0.00  0.00    +0.000 HD
ATOM     22  H   UNL     1      -1.648  12.510  16.807  0.00  0.00    +0.000 HD
ENDBRANCH  10  12
ENDBRANCH   3   7
BRANCH   1  24
ATOM     23  C   UNL     1       1.361   4.347  20.697  0.00  0.00    +0.000 C 
ATOM     24  O   UNL     1       2.386   5.247  20.547  0.00  0.00    +0.000 OA
ENDBRANCH   1  24
BRANCH   6  25
ATOM     25  O   UNL     1       4.287   4.719  18.300  0.00  0.00    +0.000 OA
BRANCH  25  26
ATOM     26  C   UNL     1       5.635   4.771  17.944  0.00  0.00    +0.000 C 
BRANCH  26  27
ATOM     27  C   UNL     1       5.921   4.511  16.504  0.00  0.00    +0.000 A 
ATOM     28  C   UNL     1       6.973   5.124  15.820  0.00  0.00    +0.000 A 
ATOM     29  C   UNL     1       7.163   4.871  14.459  0.00  0.00    +0.000 A 
ATOM     30  C   UNL     1       6.288   4.011  13.765  0.00  0.00    +0.000 A 
ATOM     31  C   UNL     1       5.237   3.395  14.459  0.00  0.00    +0.000 A 
ATOM     32  C   UNL     1       5.063   3.635  15.819  0.00  0.00    +0.000 A 
BRANCH  30  33
ATOM     33  C   UNL     1       6.448   3.743  12.293  0.00  0.00    +0.000 C 
ATOM     34  F   UNL     1       6.967   2.483  12.059  0.00  0.00    +0.000 F 
ATOM     35  F   UNL     1       5.218   3.842  11.670  0.00  0.00    +0.000 F 
ATOM     36  F   UNL     1       7.307   4.682  11.750  0.00  0.00    +0.000 F 
ENDBRANCH  30  33
ENDBRANCH  26  27
ENDBRANCH  25  26
ENDBRANCH   6  25
TORSDOF 7
ENDMDL
MODEL 5
REMARK VINA RESULT:      -8.5      6.858      8.649
REMARK  Name = 
REMARK  8 active torsions:
REMARK  status: ('A' for Active; 'I' for Inactive)
REMARK    1  A    between atoms: C_1  and  O_2
REMARK    2  A    between atoms: O_2  and  C_3
REMARK    3  A    between atoms: C_5  and  C_6
REMARK    4  A    between atoms: C_9  and  C_10
REMARK    5  A    between atoms: C_21  and  O_22
REMARK    6  A    between atoms: O_22  and  C_23
REMARK    7  A    between atoms: C_23  and  C_24
REMARK    8  A    between atoms: C_27  and  C_28
REMARK                            x       y       z     vdW  Elec       q    Type
REMARK                         _______ _______ _______ _____ _____    ______ ____
ROOT
ATOM      1  C   UNL     1       7.860   5.860  18.576  0.00  0.00    +0.000 A 
ATOM      2  C   UNL     1       8.279   7.168  18.812  0.00  0.00    +0.000 A 
ATOM      3  C   UNL     1       7.936   8.220  17.960  0.00  0.00    +0.000 A 
ATOM      4  C   UNL     1       7.143   7.973  16.846  0.00  0.00    +0.000 A 
ATOM      5  C   UNL     1       6.719   6.687  16.577  0.00  0.00    +0.000 A 
ATOM      6  C   UNL     1       7.071   5.588  17.414  0.00  0.00    +0.000 A 
ENDROOT
BRANCH   3   7
ATOM      7  C   UNL     1       8.417   9.574  18.238  0.00  0.00    +0.000 A 
ATOM      8  N   UNL     1       8.173  10.650  17.468  0.00  0.00    +0.000 NA
ATOM      9  O   UNL     1       8.780  11.637  18.058  0.00  0.00    +0.000 OA
ATOM     10  C   UNL     1       9.379  11.185  19.135  0.00  0.00    +0.000 A 
ATOM     11  N   UNL     1       9.180   9.874  19.294  0.00  0.00    +0.000 NA
BRANCH  10  12
ATOM     12  C   UNL     1      10.194  12.014  20.074  0.00  0.00    +0.000 C 
ATOM     13  C   UNL     1       9.259  12.939  20.857  0.00  0.00    +0.000 C 
ATOM     14  C   UNL     1      10.255  13.932  21.402  0.00  0.00    +0.000 C 
ATOM     15  C   UNL     1      11.102  14.207  20.162  0.00  0.00    +0.000 C 
ATOM     16  N   UNL     1      11.113  12.946  19.442  0.00  0.00    +0.000 N 
ATOM     17  C   UNL     1      11.763  12.776  18.166  0.00  0.00    +0.000 C 
ATOM     18  N   UNL     1      12.249  13.791  17.535  0.00  0.00    +0.000 NA
ATOM     19  N   UNL     1      11.889  11.497  17.560  0.00  0.00    +0.000 N 
ATOM     20  H   UNL     1      12.194  14.754  17.888  0.00  0.00    +0.000 HD
ATOM     21  H   UNL     1      11.610  10.634  18.041  0.00  0.00    +0.000 HD
ATOM     22  H   UNL     1      12.330  11.410  16.631  0.00  0.00    +0.000 HD
ENDBRANCH  10  12
ENDBRANCH   3   7
BRANCH   1  24
ATOM     23  C   UNL     1       8.621   5.101  20.821  0.00  0.00    +0.000 C 
ATOM     24  O   UNL     1       8.309   4.961  19.492  0.00  0.00    +0.000 OA
ENDBRANCH   1  24
BRANCH   6  25
ATOM     25  O   UNL     1       6.723   4.321  17.039  0.00  0.00    +0.000 OA
BRANCH  25  26
ATOM     26  C   UNL     1       5.463   4.065  16.497  0.00  0.00    +0.000 C 
BRANCH  26  27
ATOM     27  C   UNL     1       4.369   3.885  17.494  0.00  0.00    +0.000 A 
ATOM     28  C   UNL     1       4.609   3.733  18.861  0.00  0.00    +0.000 A 
ATOM     29  C   UNL     1       3.542   3.524  19.739  0.00  0.00    +0.000 A 
ATOM     30  C   UNL     1       2.222   3.451  19.252  0.00  0.00    +0.000 A 
ATOM     31  C   UNL     1       1.987   3.609  17.878  0.00  0.00    +0.000 A 
ATOM     32  C   UNL     1       3.051   3.836  17.009  0.00  0.00    +0.000 A 
BRANCH  30  33
ATOM     33  C   UNL     1       1.056   3.197  20.168  0.00  0.00    +0.000 C 
ATOM     34  F   UNL     1       0.011   2.580  19.503  0.00  0.00    +0.000 F 
ATOM     35  F   UNL     1       1.458   2.388  21.213  0.00  0.00    +0.000 F 
ATOM     36  F   UNL     1       0.606   4.403  20.676  0.00  0.00    +0.000 F 
ENDBRANCH  30  33
ENDBRANCH  26  27
ENDBRANCH  25  26
ENDBRANCH   6  25
TORSDOF 7
ENDMDL
MODEL 6
REMARK VINA RESULT:      -8.5      5.963     10.443
REMARK  Name = 
REMARK  8 active torsions:
REMARK  status: ('A' for Active; 'I' for Inactive)
REMARK    1  A    between atoms: C_1  and  O_2
REMARK    2  A    between atoms: O_2  and  C_3
REMARK    3  A    between atoms: C_5  and  C_6
REMARK    4  A    between atoms: C_9  and  C_10
REMARK    5  A    between atoms: C_21  and  O_22
REMARK    6  A    between atoms: O_22  and  C_23
REMARK    7  A    between atoms: C_23  and  C_24
REMARK    8  A    between atoms: C_27  and  C_28
REMARK                            x       y       z     vdW  Elec       q    Type
REMARK                         _______ _______ _______ _____ _____    ______ ____
ROOT
ATOM      1  C   UNL     1       0.444   9.049  21.106  0.00  0.00    +0.000 A 
ATOM      2  C   UNL     1       1.232   7.907  20.963  0.00  0.00    +0.000 A 
ATOM      3  C   UNL     1       1.914   7.622  19.779  0.00  0.00    +0.000 A 
ATOM      4  C   UNL     1       1.825   8.500  18.705  0.00  0.00    +0.000 A 
ATOM      5  C   UNL     1       1.046   9.634  18.809  0.00  0.00    +0.000 A 
ATOM      6  C   UNL     1       0.319   9.942  19.996  0.00  0.00    +0.000 A 
ENDROOT
BRANCH   3   7
ATOM      7  C   UNL     1       2.713   6.401  19.670  0.00  0.00    +0.000 A 
ATOM      8  N   UNL     1       2.291   5.172  20.021  0.00  0.00    +0.000 NA
ATOM      9  O   UNL     1       3.296   4.384  19.779  0.00  0.00    +0.000 OA
ATOM     10  C   UNL     1       4.294   5.098  19.310  0.00  0.00    +0.000 A 
ATOM     11  N   UNL     1       3.973   6.391  19.225  0.00  0.00    +0.000 NA
BRANCH  10  12
ATOM     12  C   UNL     1       5.631   4.553  18.925  0.00  0.00    +0.000 C 
ATOM     13  C   UNL     1       6.710   5.567  19.314  0.00  0.00    +0.000 C 
ATOM     14  C   UNL     1       7.870   5.051  18.501  0.00  0.00    +0.000 C 
ATOM     15  C   UNL     1       7.195   4.799  17.155  0.00  0.00    +0.000 C 
ATOM     16  N   UNL     1       5.845   4.388  17.497  0.00  0.00    +0.000 N 
ATOM     17  C   UNL     1       4.837   4.101  16.506  0.00  0.00    +0.000 C 
ATOM     18  N   UNL     1       5.055   4.339  15.257  0.00  0.00    +0.000 NA
ATOM     19  N   UNL     1       3.576   3.554  16.865  0.00  0.00    +0.000 N 
ATOM     20  H   UNL     1       5.931   4.745  14.904  0.00  0.00    +0.000 HD
ATOM     21  H   UNL     1       3.362   3.254  17.824  0.00  0.00    +0.000 HD
ATOM     22  H   UNL     1       2.861   3.391  16.138  0.00  0.00    +0.000 HD
ENDBRANCH  10  12
ENDBRANCH   3   7
BRANCH   1  24
ATOM     23  C   UNL     1      -0.621  10.246  23.011  0.00  0.00    +0.000 C 
ATOM     24  O   UNL     1      -0.168   9.152  22.316  0.00  0.00    +0.000 OA
ENDBRANCH   1  24
BRANCH   6  25
ATOM     25  O   UNL     1      -0.529  11.014  20.004  0.00  0.00    +0.000 OA
BRANCH  25  26
ATOM     26  C   UNL     1      -0.915  11.619  18.808  0.00  0.00    +0.000 C 
BRANCH  26  27
ATOM     27  C   UNL     1      -2.386  11.655  18.562  0.00  0.00    +0.000 A 
ATOM     28  C   UNL     1      -2.964  11.209  17.372  0.00  0.00    +0.000 A 
ATOM     29  C   UNL     1      -4.346  11.311  17.186  0.00  0.00    +0.000 A 
ATOM     30  C   UNL     1      -5.160  11.876  18.187  0.00  0.00    +0.000 A 
ATOM     31  C   UNL     1      -4.573  12.317  19.382  0.00  0.00    +0.000 A 
ATOM     32  C   UNL     1      -3.199  12.197  19.571  0.00  0.00    +0.000 A 
BRANCH  30  33
ATOM     33  C   UNL     1      -6.646  12.026  18.004  0.00  0.00    +0.000 C 
ATOM     34  F   UNL     1      -6.956  12.535  16.756  0.00  0.00    +0.000 F 
ATOM     35  F   UNL     1      -7.255  10.793  18.147  0.00  0.00    +0.000 F 
ATOM     36  F   UNL     1      -7.138  12.889  18.967  0.00  0.00    +0.000 F 
ENDBRANCH  30  33
ENDBRANCH  26  27
ENDBRANCH  25  26
ENDBRANCH   6  25
TORSDOF 7
ENDMDL
MODEL 7
REMARK VINA RESULT:      -8.4      4.144      6.415
REMARK  Name = 
REMARK  8 active torsions:
REMARK  status: ('A' for Active; 'I' for Inactive)
REMARK    1  A    between atoms: C_1  and  O_2
REMARK    2  A    between atoms: O_2  and  C_3
REMARK    3  A    between atoms: C_5  and  C_6
REMARK    4  A    between atoms: C_9  and  C_10
REMARK    5  A    between atoms: C_21  and  O_22
REMARK    6  A    between atoms: O_22  and  C_23
REMARK    7  A    between atoms: C_23  and  C_24
REMARK    8  A    between atoms: C_27  and  C_28
REMARK                            x       y       z     vdW  Elec       q    Type
REMARK                         _______ _______ _______ _____ _____    ______ ____
ROOT
ATOM      1  C   UNL     1      -0.285  10.461  19.994  0.00  0.00    +0.000 A 
ATOM      2  C   UNL     1      -1.535  10.998  19.689  0.00  0.00    +0.000 A 
ATOM      3  C   UNL     1      -2.141  10.803  18.446  0.00  0.00    +0.000 A 
ATOM      4  C   UNL     1      -1.496  10.045  17.477  0.00  0.00    +0.000 A 
ATOM      5  C   UNL     1      -0.253   9.506  17.741  0.00  0.00    +0.000 A 
ATOM      6  C   UNL     1       0.402   9.705  18.992  0.00  0.00    +0.000 A 
ENDROOT
BRANCH   3   7
ATOM      7  C   UNL     1      -3.446  11.404  18.167  0.00  0.00    +0.000 A 
ATOM      8  N   UNL     1      -4.006  11.493  16.946  0.00  0.00    +0.000 NA
ATOM      9  O   UNL     1      -5.143  12.094  17.135  0.00  0.00    +0.000 OA
ATOM     10  C   UNL     1      -5.271  12.372  18.412  0.00  0.00    +0.000 A 
ATOM     11  N   UNL     1      -4.214  11.954  19.113  0.00  0.00    +0.000 NA
BRANCH  10  12
ATOM     12  C   UNL     1      -6.439  13.074  19.024  0.00  0.00    +0.000 C 
ATOM     13  C   UNL     1      -5.930  14.267  19.837  0.00  0.00    +0.000 C 
ATOM     14  C   UNL     1      -7.151  14.566  20.671  0.00  0.00    +0.000 C 
ATOM     15  C   UNL     1      -7.546  13.163  21.123  0.00  0.00    +0.000 C 
ATOM     16  N   UNL     1      -7.179  12.305  20.011  0.00  0.00    +0.000 N 
ATOM     17  C   UNL     1      -7.332  10.870  20.041  0.00  0.00    +0.000 C 
ATOM     18  N   UNL     1      -7.676  10.268  21.129  0.00  0.00    +0.000 NA
ATOM     19  N   UNL     1      -7.109  10.075  18.885  0.00  0.00    +0.000 N 
ATOM     20  H   UNL     1      -7.846  10.758  22.016  0.00  0.00    +0.000 HD
ATOM     21  H   UNL     1      -6.923  10.488  17.964  0.00  0.00    +0.000 HD
ATOM     22  H   UNL     1      -7.193   9.048  18.945  0.00  0.00    +0.000 HD
ENDBRANCH  10  12
ENDBRANCH   3   7
BRANCH   1  24
ATOM     23  C   UNL     1      -0.470  10.769  22.456  0.00  0.00    +0.000 C 
ATOM     24  O   UNL     1       0.163  10.772  21.239  0.00  0.00    +0.000 OA
ENDBRANCH   1  24
BRANCH   6  25
ATOM     25  O   UNL     1       1.680   9.251  19.159  0.00  0.00    +0.000 OA
BRANCH  25  26
ATOM     26  C   UNL     1       1.975   8.326  20.161  0.00  0.00    +0.000 C 
BRANCH  26  27
ATOM     27  C   UNL     1       1.912   6.896  19.743  0.00  0.00    +0.000 A 
ATOM     28  C   UNL     1       1.565   5.866  20.621  0.00  0.00    +0.000 A 
ATOM     29  C   UNL     1       1.567   4.541  20.178  0.00  0.00    +0.000 A 
ATOM     30  C   UNL     1       1.931   4.233  18.852  0.00  0.00    +0.000 A 
ATOM     31  C   UNL     1       2.273   5.272  17.975  0.00  0.00    +0.000 A 
ATOM     32  C   UNL     1       2.252   6.593  18.414  0.00  0.00    +0.000 A 
BRANCH  30  33
ATOM     33  C   UNL     1       1.971   2.813  18.354  0.00  0.00    +0.000 C 
ATOM     34  F   UNL     1       2.879   2.051  19.065  0.00  0.00    +0.000 F 
ATOM     35  F   UNL     1       0.717   2.245  18.481  0.00  0.00    +0.000 F 
ATOM     36  F   UNL     1       2.338   2.809  17.020  0.00  0.00    +0.000 F 
ENDBRANCH  30  33
ENDBRANCH  26  27
ENDBRANCH  25  26
ENDBRANCH   6  25
TORSDOF 7
ENDMDL
MODEL 8
REMARK VINA RESULT:      -8.4      1.238      2.077
REMARK  Name = 
REMARK  8 active torsions:
REMARK  status: ('A' for Active; 'I' for Inactive)
REMARK    1  A    between atoms: C_1  and  O_2
REMARK    2  A    between atoms: O_2  and  C_3
REMARK    3  A    between atoms: C_5  and  C_6
REMARK    4  A    between atoms: C_9  and  C_10
REMARK    5  A    between atoms: C_21  and  O_22
REMARK    6  A    between atoms: O_22  and  C_23
REMARK    7  A    between atoms: C_23  and  C_24
REMARK    8  A    between atoms: C_27  and  C_28
REMARK                            x       y       z     vdW  Elec       q    Type
REMARK                         _______ _______ _______ _____ _____    ______ ____
ROOT
ATOM      1  C   UNL     1       3.057   4.950  19.831  0.00  0.00    +0.000 A 
ATOM      2  C   UNL     1       2.231   5.996  20.238  0.00  0.00    +0.000 A 
ATOM      3  C   UNL     1       2.245   7.240  19.604  0.00  0.00    +0.000 A 
ATOM      4  C   UNL     1       3.094   7.453  18.525  0.00  0.00    +0.000 A 
ATOM      5  C   UNL     1       3.933   6.442  18.102  0.00  0.00    +0.000 A 
ATOM      6  C   UNL     1       3.960   5.169  18.743  0.00  0.00    +0.000 A 
ENDROOT
BRANCH   3   7
ATOM      7  C   UNL     1       1.372   8.314  20.080  0.00  0.00    +0.000 A 
ATOM      8  N   UNL     1       1.169   8.624  21.373  0.00  0.00    +0.000 NA
ATOM      9  O   UNL     1       0.330   9.617  21.359  0.00  0.00    +0.000 OA
ATOM     10  C   UNL     1       0.023   9.897  20.113  0.00  0.00    +0.000 A 
ATOM     11  N   UNL     1       0.659   9.092  19.259  0.00  0.00    +0.000 NA
BRANCH  10  12
ATOM     12  C   UNL     1      -0.924  10.970  19.685  0.00  0.00    +0.000 C 
ATOM     13  C   UNL     1      -1.756  10.456  18.507  0.00  0.00    +0.000 C 
ATOM     14  C   UNL     1      -2.311  11.755  17.980  0.00  0.00    +0.000 C 
ATOM     15  C   UNL     1      -1.063  12.633  17.995  0.00  0.00    +0.000 C 
ATOM     16  N   UNL     1      -0.303  12.166  19.141  0.00  0.00    +0.000 N 
ATOM     17  C   UNL     1       0.992  12.696  19.494  0.00  0.00    +0.000 C 
ATOM     18  N   UNL     1       1.601  13.520  18.711  0.00  0.00    +0.000 NA
ATOM     19  N   UNL     1       1.640  12.328  20.703  0.00  0.00    +0.000 N 
ATOM     20  H   UNL     1       1.216  13.833  17.811  0.00  0.00    +0.000 HD
ATOM     21  H   UNL     1       1.181  11.750  21.417  0.00  0.00    +0.000 HD
ATOM     22  H   UNL     1       2.582  12.697  20.913  0.00  0.00    +0.000 HD
ENDBRANCH  10  12
ENDBRANCH   3   7
BRANCH   1  24
ATOM     23  C   UNL     1       2.077   3.507  21.607  0.00  0.00    +0.000 C 
ATOM     24  O   UNL     1       2.930   3.821  20.578  0.00  0.00    +0.000 OA
ENDBRANCH   1  24
BRANCH   6  25
ATOM     25  O   UNL     1       4.891   4.244  18.360  0.00  0.00    +0.000 OA
BRANCH  25  26
ATOM     26  C   UNL     1       6.076   4.648  17.746  0.00  0.00    +0.000 C 
BRANCH  26  27
ATOM     27  C   UNL     1       6.126   4.447  16.269  0.00  0.00    +0.000 A 
ATOM     28  C   UNL     1       5.127   3.772  15.564  0.00  0.00    +0.000 A 
ATOM     29  C   UNL     1       5.254   3.578  14.186  0.00  0.00    +0.000 A 
ATOM     30  C   UNL     1       6.393   4.047  13.502  0.00  0.00    +0.000 A 
ATOM     31  C   UNL     1       7.390   4.729  14.215  0.00  0.00    +0.000 A 
ATOM     32  C   UNL     1       7.251   4.936  15.585  0.00  0.00    +0.000 A 
BRANCH  30  33
ATOM     33  C   UNL     1       6.572   3.828  12.024  0.00  0.00    +0.000 C 
ATOM     34  F   UNL     1       7.345   4.821  11.453  0.00  0.00    +0.000 F 
ATOM     35  F   UNL     1       7.185   2.607  11.811  0.00  0.00    +0.000 F 
ATOM     36  F   UNL     1       5.331   3.825  11.412  0.00  0.00    +0.000 F 
ENDBRANCH  30  33
ENDBRANCH  26  27
ENDBRANCH  25  26
ENDBRANCH   6  25
TORSDOF 7
ENDMDL
MODEL 9
REMARK VINA RESULT:      -8.4      3.710      6.163
REMARK  Name = 
REMARK  8 active torsions:
REMARK  status: ('A' for Active; 'I' for Inactive)
REMARK    1  A    between atoms: C_1  and  O_2
REMARK    2  A    between atoms: O_2  and  C_3
REMARK    3  A    between atoms: C_5  and  C_6
REMARK    4  A    between atoms: C_9  and  C_10
REMARK    5  A    between atoms: C_21  and  O_22
REMARK    6  A    between atoms: O_22  and  C_23
REMARK    7  A    between atoms: C_23  and  C_24
REMARK    8  A    between atoms: C_27  and  C_28
REMARK                            x       y       z     vdW  Elec       q    Type
REMARK                         _______ _______ _______ _____ _____    ______ ____
ROOT
ATOM      1  C   UNL     1      -0.635  10.835  19.931  0.00  0.00    +0.000 A 
ATOM      2  C   UNL     1      -1.888  11.317  19.555  0.00  0.00    +0.000 A 
ATOM      3  C   UNL     1      -2.467  10.992  18.327  0.00  0.00    +0.000 A 
ATOM      4  C   UNL     1      -1.792  10.155  17.447  0.00  0.00    +0.000 A 
ATOM      5  C   UNL     1      -0.545   9.668  17.783  0.00  0.00    +0.000 A 
ATOM      6  C   UNL     1       0.083   9.999  19.019  0.00  0.00    +0.000 A 
ENDROOT
BRANCH   3   7
ATOM      7  C   UNL     1      -3.777  11.539  17.968  0.00  0.00    +0.000 A 
ATOM      8  N   UNL     1      -4.267  11.603  16.716  0.00  0.00    +0.000 NA
ATOM      9  O   UNL     1      -5.437  12.157  16.835  0.00  0.00    +0.000 OA
ATOM     10  C   UNL     1      -5.650  12.432  18.101  0.00  0.00    +0.000 A 
ATOM     11  N   UNL     1      -4.620  12.059  18.865  0.00  0.00    +0.000 NA
BRANCH  10  12
ATOM     12  C   UNL     1      -6.880  13.088  18.640  0.00  0.00    +0.000 C 
ATOM     13  C   UNL     1      -6.508  14.468  19.186  0.00  0.00    +0.000 C 
ATOM     14  C   UNL     1      -7.727  14.767  20.021  0.00  0.00    +0.000 C 
ATOM     15  C   UNL     1      -7.917  13.439  20.748  0.00  0.00    +0.000 C 
ATOM     16  N   UNL     1      -7.476  12.436  19.795  0.00  0.00    +0.000 N 
ATOM     17  C   UNL     1      -7.436  11.026  20.099  0.00  0.00    +0.000 C 
ATOM     18  N   UNL     1      -7.658  10.606  21.298  0.00  0.00    +0.000 NA
ATOM     19  N   UNL     1      -7.148  10.058  19.100  0.00  0.00    +0.000 N 
ATOM     20  H   UNL     1      -7.862  11.232  22.087  0.00  0.00    +0.000 HD
ATOM     21  H   UNL     1      -7.050  10.307  18.108  0.00  0.00    +0.000 HD
ATOM     22  H   UNL     1      -7.093   9.059  19.354  0.00  0.00    +0.000 HD
ENDBRANCH  10  12
ENDBRANCH   3   7
BRANCH   1  24
ATOM     23  C   UNL     1      -0.540  10.867  22.418  0.00  0.00    +0.000 C 
ATOM     24  O   UNL     1      -0.215  11.273  21.148  0.00  0.00    +0.000 OA
ENDBRANCH   1  24
BRANCH   6  25
ATOM     25  O   UNL     1       1.365   9.586  19.251  0.00  0.00    +0.000 OA
BRANCH  25  26
ATOM     26  C   UNL     1       1.611   8.377  19.903  0.00  0.00    +0.000 C 
BRANCH  26  27
ATOM     27  C   UNL     1       2.443   7.403  19.141  0.00  0.00    +0.000 A 
ATOM     28  C   UNL     1       3.104   7.738  17.957  0.00  0.00    +0.000 A 
ATOM     29  C   UNL     1       3.833   6.766  17.265  0.00  0.00    +0.000 A 
ATOM     30  C   UNL     1       3.894   5.444  17.747  0.00  0.00    +0.000 A 
ATOM     31  C   UNL     1       3.232   5.116  18.939  0.00  0.00    +0.000 A 
ATOM     32  C   UNL     1       2.523   6.090  19.635  0.00  0.00    +0.000 A 
BRANCH  30  33
ATOM     33  C   UNL     1       4.646   4.369  17.009  0.00  0.00    +0.000 C 
ATOM     34  F   UNL     1       4.882   4.725  15.694  0.00  0.00    +0.000 F 
ATOM     35  F   UNL     1       5.859   4.143  17.634  0.00  0.00    +0.000 F 
ATOM     36  F   UNL     1       3.904   3.202  17.025  0.00  0.00    +0.000 F 
ENDBRANCH  30  33
ENDBRANCH  26  27
ENDBRANCH  25  26
ENDBRANCH   6  25
TORSDOF 7
ENDMDL
