MODEL 1
REMARK VINA RESULT:      -7.7      0.000      0.000
REMARK  Name = 
REMARK  8 active torsions:
REMARK  status: ('A' for Active; 'I' for Inactive)
REMARK    1  A    between atoms: C_1  and  O_2
REMARK    2  A    between atoms: O_2  and  C_3
REMARK    3  A    between atoms: C_7  and  C_8
REMARK    4  A    between atoms: N_10  and  C_11
REMARK    5  A    between atoms: C_11  and  C_12
REMARK    6  A    between atoms: C_12  and  N_13
REMARK    7  A    between atoms: C_14  and  C_15
REMARK    8  A    between atoms: C_17  and  C_18
REMARK                            x       y       z     vdW  Elec       q    Type
REMARK                         _______ _______ _______ _____ _____    ______ ____
ROOT
ATOM      1  C   UNL     1       2.240   7.903  18.607  0.00  0.00    +0.000 A 
ATOM      2  C   UNL     1       1.558   8.685  19.511  0.00  0.00    +0.000 A 
ATOM      3  N   UNL     1       1.352   9.855  18.844  0.00  0.00    +0.000 N 
ATOM      4  N   UNL     1       1.894   9.812  17.612  0.00  0.00    +0.000 NA
ATOM      5  N   UNL     1       2.446   8.617  17.458  0.00  0.00    +0.000 NA
ENDROOT
BRANCH   1  10
ATOM      6  C   UNL     1       3.687   3.920  19.169  0.00  0.00    +0.000 A 
ATOM      7  C   UNL     1       4.062   4.688  18.062  0.00  0.00    +0.000 A 
ATOM      8  F   UNL     1       4.889   4.203  17.125  0.00  0.00    +0.000 F 
ATOM      9  C   UNL     1       3.585   5.983  17.880  0.00  0.00    +0.000 A 
ATOM     10  C   UNL     1       2.713   6.552  18.811  0.00  0.00    +0.000 A 
ATOM     11  C   UNL     1       2.310   5.791  19.914  0.00  0.00    +0.000 A 
ATOM     12  C   UNL     1       2.785   4.484  20.083  0.00  0.00    +0.000 A 
ATOM     13 CL   UNL     1       2.236   3.605  21.468  0.00  0.00    +0.000 Cl
BRANCH   6  15
ATOM     14  C   UNL     1       3.491   1.621  18.630  0.00  0.00    +0.000 C 
ATOM     15  O   UNL     1       4.107   2.639  19.414  0.00  0.00    +0.000 OA
ENDBRANCH   6  15
ENDBRANCH   1  10
BRANCH   3  16
ATOM     16  C   UNL     1       0.678  11.067  19.263  0.00  0.00    +0.000 C 
BRANCH  16  17
ATOM     17  C   UNL     1       1.051  11.572  20.657  0.00  0.00    +0.000 C 
BRANCH  17  18
ATOM     18  N   UNL     1      -0.118  11.751  21.524  0.00  0.00    +0.000 N 
ATOM     19  C   UNL     1      -0.517  10.812  22.472  0.00  0.00    +0.000 A 
ATOM     20  C   UNL     1       0.217   9.521  22.710  0.00  0.00    +0.000 C 
ATOM     21  C   UNL     1      -1.601  11.054  23.218  0.00  0.00    +0.000 A 
ATOM     22  C   UNL     1      -2.294  12.330  22.990  0.00  0.00    +0.000 A 
ATOM     23  C   UNL     1      -3.521  12.609  23.819  0.00  0.00    +0.000 C 
ATOM     24  N   UNL     1      -1.917  13.217  22.134  0.00  0.00    +0.000 NA
ATOM     25  C   UNL     1      -0.803  12.980  21.374  0.00  0.00    +0.000 A 
ATOM     26  O   UNL     1      -0.398  13.823  20.579  0.00  0.00    +0.000 OA
ENDBRANCH  17  18
ENDBRANCH  16  17
ENDBRANCH   3  16
TORSDOF 5
ENDMDL
MODEL 2
REMARK VINA RESULT:      -7.6      6.841      9.657
REMARK  Name = 
REMARK  8 active torsions:
REMARK  status: ('A' for Active; 'I' for Inactive)
REMARK    1  A    between atoms: C_1  and  O_2
REMARK    2  A    between atoms: O_2  and  C_3
REMARK    3  A    between atoms: C_7  and  C_8
REMARK    4  A    between atoms: N_10  and  C_11
REMARK    5  A    between atoms: C_11  and  C_12
REMARK    6  A    between atoms: C_12  and  N_13
REMARK    7  A    between atoms: C_14  and  C_15
REMARK    8  A    between atoms: C_17  and  C_18
REMARK                            x       y       z     vdW  Elec       q    Type
REMARK                         _______ _______ _______ _____ _____    ______ ____
ROOT
ATOM      1  C   UNL     1       8.573   9.104  18.360  0.00  0.00    +0.000 A 
ATOM      2  C   UNL     1       8.548   7.887  19.002  0.00  0.00    +0.000 A 
ATOM      3  N   UNL     1       7.701   7.134  18.246  0.00  0.00    +0.000 N 
ATOM      4  N   UNL     1       7.209   7.846  17.215  0.00  0.00    +0.000 NA
ATOM      5  N   UNL     1       7.737   9.061  17.279  0.00  0.00    +0.000 NA
ENDROOT
BRANCH   1  10
ATOM      6  C   UNL     1      10.779  12.554  19.587  0.00  0.00    +0.000 A 
ATOM      7  C   UNL     1      10.070  11.772  20.504  0.00  0.00    +0.000 A 
ATOM      8  F   UNL     1      10.047  12.075  21.810  0.00  0.00    +0.000 F 
ATOM      9  C   UNL     1       9.349  10.651  20.100  0.00  0.00    +0.000 A 
ATOM     10  C   UNL     1       9.320  10.278  18.754  0.00  0.00    +0.000 A 
ATOM     11  C   UNL     1      10.006  11.061  17.820  0.00  0.00    +0.000 A 
ATOM     12  C   UNL     1      10.719  12.193  18.234  0.00  0.00    +0.000 A 
ATOM     13 CL   UNL     1      11.537  13.114  17.018  0.00  0.00    +0.000 Cl
BRANCH   6  15
ATOM     14  C   UNL     1      10.753  14.863  20.113  0.00  0.00    +0.000 C 
ATOM     15  O   UNL     1      11.505  13.671  19.906  0.00  0.00    +0.000 OA
ENDBRANCH   6  15
ENDBRANCH   1  10
BRANCH   3  16
ATOM     16  C   UNL     1       7.276   5.758  18.403  0.00  0.00    +0.000 C 
BRANCH  16  17
ATOM     17  C   UNL     1       6.085   5.340  17.542  0.00  0.00    +0.000 C 
BRANCH  17  18
ATOM     18  N   UNL     1       4.834   5.271  18.305  0.00  0.00    +0.000 N 
ATOM     19  C   UNL     1       3.816   6.213  18.189  0.00  0.00    +0.000 A 
ATOM     20  C   UNL     1       3.890   7.396  17.263  0.00  0.00    +0.000 C 
ATOM     21  C   UNL     1       2.708   6.075  18.928  0.00  0.00    +0.000 A 
ATOM     22  C   UNL     1       2.640   4.903  19.811  0.00  0.00    +0.000 A 
ATOM     23  C   UNL     1       1.401   4.743  20.654  0.00  0.00    +0.000 C 
ATOM     24  N   UNL     1       3.566   4.011  19.905  0.00  0.00    +0.000 NA
ATOM     25  C   UNL     1       4.697   4.141  19.145  0.00  0.00    +0.000 A 
ATOM     26  O   UNL     1       5.578   3.286  19.184  0.00  0.00    +0.000 OA
ENDBRANCH  17  18
ENDBRANCH  16  17
ENDBRANCH   3  16
TORSDOF 5
ENDMDL
MODEL 3
REMARK VINA RESULT:      -7.6      1.431      1.713
REMARK  Name = 
REMARK  8 active torsions:
REMARK  status: ('A' for Active; 'I' for Inactive)
REMARK    1  A    between atoms: C_1  and  O_2
REMARK    2  A    between atoms: O_2  and  C_3
REMARK    3  A    between atoms: C_7  and  C_8
REMARK    4  A    between atoms: N_10  and  C_11
REMARK    5  A    between atoms: C_11  and  C_12
REMARK    6  A    between atoms: C_12  and  N_13
REMARK    7  A    between atoms: C_14  and  C_15
REMARK    8  A    between atoms: C_17  and  C_18
REMARK                            x       y       z     vdW  Elec       q    Type
REMARK                         _______ _______ _______ _____ _____    ______ ____
ROOT
ATOM      1  C   UNL     1       2.278   7.978  18.532  0.00  0.00    +0.000 A 
ATOM      2  C   UNL     1       1.569   8.711  19.456  0.00  0.00    +0.000 A 
ATOM      3  N   UNL     1       1.335   9.896  18.825  0.00  0.00    +0.000 N 
ATOM      4  N   UNL     1       1.886   9.908  17.597  0.00  0.00    +0.000 NA
ATOM      5  N   UNL     1       2.472   8.733  17.409  0.00  0.00    +0.000 NA
ENDROOT
BRANCH   1  10
ATOM      6  C   UNL     1       3.739   3.997  19.067  0.00  0.00    +0.000 A 
ATOM      7  C   UNL     1       2.930   4.616  20.024  0.00  0.00    +0.000 A 
ATOM      8  F   UNL     1       2.582   3.988  21.157  0.00  0.00    +0.000 F 
ATOM      9  C   UNL     1       2.459   5.914  19.848  0.00  0.00    +0.000 A 
ATOM     10  C   UNL     1       2.787   6.635  18.697  0.00  0.00    +0.000 A 
ATOM     11  C   UNL     1       3.613   6.039  17.739  0.00  0.00    +0.000 A 
ATOM     12  C   UNL     1       4.092   4.736  17.929  0.00  0.00    +0.000 A 
ATOM     13 CL   UNL     1       5.114   4.070  16.701  0.00  0.00    +0.000 Cl
BRANCH   6  15
ATOM     14  C   UNL     1       3.407   1.681  18.690  0.00  0.00    +0.000 C 
ATOM     15  O   UNL     1       4.245   2.727  19.171  0.00  0.00    +0.000 OA
ENDBRANCH   6  15
ENDBRANCH   1  10
BRANCH   3  16
ATOM     16  C   UNL     1       0.625  11.075  19.277  0.00  0.00    +0.000 C 
BRANCH  16  17
ATOM     17  C   UNL     1       1.014  11.577  20.667  0.00  0.00    +0.000 C 
BRANCH  17  18
ATOM     18  N   UNL     1      -0.148  11.776  21.540  0.00  0.00    +0.000 N 
ATOM     19  C   UNL     1      -0.564  10.839  22.483  0.00  0.00    +0.000 A 
ATOM     20  C   UNL     1       0.141   9.530  22.709  0.00  0.00    +0.000 C 
ATOM     21  C   UNL     1      -1.639  11.100  23.236  0.00  0.00    +0.000 A 
ATOM     22  C   UNL     1      -2.303  12.393  23.021  0.00  0.00    +0.000 A 
ATOM     23  C   UNL     1      -3.521  12.694  23.857  0.00  0.00    +0.000 C 
ATOM     24  N   UNL     1      -1.910  13.278  22.170  0.00  0.00    +0.000 NA
ATOM     25  C   UNL     1      -0.804  13.021  21.403  0.00  0.00    +0.000 A 
ATOM     26  O   UNL     1      -0.384  13.862  20.613  0.00  0.00    +0.000 OA
ENDBRANCH  17  18
ENDBRANCH  16  17
ENDBRANCH   3  16
TORSDOF 5
ENDMDL
MODEL 4
REMARK VINA RESULT:      -7.5      1.070      1.658
REMARK  Name = 
REMARK  8 active torsions:
REMARK  status: ('A' for Active; 'I' for Inactive)
REMARK    1  A    between atoms: C_1  and  O_2
REMARK    2  A    between atoms: O_2  and  C_3
REMARK    3  A    between atoms: C_7  and  C_8
REMARK    4  A    between atoms: N_10  and  C_11
REMARK    5  A    between atoms: C_11  and  C_12
REMARK    6  A    between atoms: C_12  and  N_13
REMARK    7  A    between atoms: C_14  and  C_15
REMARK    8  A    between atoms: C_17  and  C_18
REMARK                            x       y       z     vdW  Elec       q    Type
REMARK                         _______ _______ _______ _____ _____    ______ ____
ROOT
ATOM      1  C   UNL     1       2.318   7.850  18.614  0.00  0.00    +0.000 A 
ATOM      2  C   UNL     1       1.521   8.611  19.439  0.00  0.00    +0.000 A 
ATOM      3  N   UNL     1       1.377   9.786  18.764  0.00  0.00    +0.000 N 
ATOM      4  N   UNL     1       2.063   9.766  17.605  0.00  0.00    +0.000 NA
ATOM      5  N   UNL     1       2.649   8.581  17.506  0.00  0.00    +0.000 NA
ENDROOT
BRANCH   1  10
ATOM      6  C   UNL     1       3.749   3.881  19.299  0.00  0.00    +0.000 A 
ATOM      7  C   UNL     1       4.175   4.634  18.201  0.00  0.00    +0.000 A 
ATOM      8  F   UNL     1       5.047   4.140  17.311  0.00  0.00    +0.000 F 
ATOM      9  C   UNL     1       3.703   5.926  17.979  0.00  0.00    +0.000 A 
ATOM     10  C   UNL     1       2.786   6.504  18.859  0.00  0.00    +0.000 A 
ATOM     11  C   UNL     1       2.333   5.757  19.952  0.00  0.00    +0.000 A 
ATOM     12  C   UNL     1       2.804   4.454  20.161  0.00  0.00    +0.000 A 
ATOM     13 CL   UNL     1       2.192   3.592  21.532  0.00  0.00    +0.000 Cl
BRANCH   6  15
ATOM     14  C   UNL     1       3.581   1.573  18.790  0.00  0.00    +0.000 C 
ATOM     15  O   UNL     1       4.162   2.605  19.582  0.00  0.00    +0.000 OA
ENDBRANCH   6  15
ENDBRANCH   1  10
BRANCH   3  16
ATOM     16  C   UNL     1       0.639  10.982  19.112  0.00  0.00    +0.000 C 
BRANCH  16  17
ATOM     17  C   UNL     1       0.985  11.590  20.471  0.00  0.00    +0.000 C 
BRANCH  17  18
ATOM     18  N   UNL     1      -0.203  11.856  21.289  0.00  0.00    +0.000 N 
ATOM     19  C   UNL     1      -1.099  12.889  21.021  0.00  0.00    +0.000 A 
ATOM     20  C   UNL     1      -0.944  13.832  19.859  0.00  0.00    +0.000 C 
ATOM     21  C   UNL     1      -2.156  13.064  21.822  0.00  0.00    +0.000 A 
ATOM     22  C   UNL     1      -2.306  12.120  22.939  0.00  0.00    +0.000 A 
ATOM     23  C   UNL     1      -3.489  12.314  23.854  0.00  0.00    +0.000 C 
ATOM     24  N   UNL     1      -1.497  11.146  23.179  0.00  0.00    +0.000 NA
ATOM     25  C   UNL     1      -0.419  10.955  22.357  0.00  0.00    +0.000 A 
ATOM     26  O   UNL     1       0.345  10.012  22.538  0.00  0.00    +0.000 OA
ENDBRANCH  17  18
ENDBRANCH  16  17
ENDBRANCH   3  16
TORSDOF 5
ENDMDL
MODEL 5
REMARK VINA RESULT:      -7.4      6.656      9.517
REMARK  Name = 
REMARK  8 active torsions:
REMARK  status: ('A' for Active; 'I' for Inactive)
REMARK    1  A    between atoms: C_1  and  O_2
REMARK    2  A    between atoms: O_2  and  C_3
REMARK    3  A    between atoms: C_7  and  C_8
REMARK    4  A    between atoms: N_10  and  C_11
REMARK    5  A    between atoms: C_11  and  C_12
REMARK    6  A    between atoms: C_12  and  N_13
REMARK    7  A    between atoms: C_14  and  C_15
REMARK    8  A    between atoms: C_17  and  C_18
REMARK                            x       y       z     vdW  Elec       q    Type
REMARK                         _______ _______ _______ _____ _____    ______ ____
ROOT
ATOM      1  C   UNL     1       8.571   9.069  18.323  0.00  0.00    +0.000 A 
ATOM      2  C   UNL     1       8.521   7.883  19.021  0.00  0.00    +0.000 A 
ATOM      3  N   UNL     1       7.741   7.079  18.245  0.00  0.00    +0.000 N 
ATOM      4  N   UNL     1       7.312   7.732  17.148  0.00  0.00    +0.000 NA
ATOM      5  N   UNL     1       7.814   8.958  17.190  0.00  0.00    +0.000 NA
ENDROOT
BRANCH   1  10
ATOM      6  C   UNL     1      10.643  12.647  19.408  0.00  0.00    +0.000 A 
ATOM      7  C   UNL     1      10.741  12.103  18.124  0.00  0.00    +0.000 A 
ATOM      8  F   UNL     1      11.496  12.678  17.177  0.00  0.00    +0.000 F 
ATOM      9  C   UNL     1      10.068  10.935  17.775  0.00  0.00    +0.000 A 
ATOM     10  C   UNL     1       9.268  10.274  18.711  0.00  0.00    +0.000 A 
ATOM     11  C   UNL     1       9.175  10.793  20.007  0.00  0.00    +0.000 A 
ATOM     12  C   UNL     1       9.866  11.962  20.353  0.00  0.00    +0.000 A 
ATOM     13 CL   UNL     1       9.705  12.537  21.977  0.00  0.00    +0.000 Cl
BRANCH   6  15
ATOM     14  C   UNL     1      10.674  15.015  19.438  0.00  0.00    +0.000 C 
ATOM     15  O   UNL     1      11.278  13.786  19.827  0.00  0.00    +0.000 OA
ENDBRANCH   6  15
ENDBRANCH   1  10
BRANCH   3  16
ATOM     16  C   UNL     1       7.329   5.704  18.439  0.00  0.00    +0.000 C 
BRANCH  16  17
ATOM     17  C   UNL     1       6.150   5.249  17.579  0.00  0.00    +0.000 C 
BRANCH  17  18
ATOM     18  N   UNL     1       4.888   5.213  18.327  0.00  0.00    +0.000 N 
ATOM     19  C   UNL     1       3.891   6.175  18.188  0.00  0.00    +0.000 A 
ATOM     20  C   UNL     1       4.001   7.345  17.249  0.00  0.00    +0.000 C 
ATOM     21  C   UNL     1       2.771   6.067  18.913  0.00  0.00    +0.000 A 
ATOM     22  C   UNL     1       2.668   4.906  19.808  0.00  0.00    +0.000 A 
ATOM     23  C   UNL     1       1.415   4.780  20.636  0.00  0.00    +0.000 C 
ATOM     24  N   UNL     1       3.574   3.997  19.923  0.00  0.00    +0.000 NA
ATOM     25  C   UNL     1       4.717   4.095  19.177  0.00  0.00    +0.000 A 
ATOM     26  O   UNL     1       5.579   3.223  19.237  0.00  0.00    +0.000 OA
ENDBRANCH  17  18
ENDBRANCH  16  17
ENDBRANCH   3  16
TORSDOF 5
ENDMDL
MODEL 6
REMARK VINA RESULT:      -7.4      1.777      2.383
REMARK  Name = 
REMARK  8 active torsions:
REMARK  status: ('A' for Active; 'I' for Inactive)
REMARK    1  A    between atoms: C_1  and  O_2
REMARK    2  A    between atoms: O_2  and  C_3
REMARK    3  A    between atoms: C_7  and  C_8
REMARK    4  A    between atoms: N_10  and  C_11
REMARK    5  A    between atoms: C_11  and  C_12
REMARK    6  A    between atoms: C_12  and  N_13
REMARK    7  A    between atoms: C_14  and  C_15
REMARK    8  A    between atoms: C_17  and  C_18
REMARK                            x       y       z     vdW  Elec       q    Type
REMARK                         _______ _______ _______ _____ _____    ______ ____
ROOT
ATOM      1  C   UNL     1       2.214   8.079  18.556  0.00  0.00    +0.000 A 
ATOM      2  C   UNL     1       1.441   8.820  19.422  0.00  0.00    +0.000 A 
ATOM      3  N   UNL     1       1.259  10.003  18.770  0.00  0.00    +0.000 N 
ATOM      4  N   UNL     1       1.901  10.007  17.586  0.00  0.00    +0.000 NA
ATOM      5  N   UNL     1       2.495   8.829  17.448  0.00  0.00    +0.000 NA
ENDROOT
BRANCH   1  10
ATOM      6  C   UNL     1       3.618   4.097  19.218  0.00  0.00    +0.000 A 
ATOM      7  C   UNL     1       2.803   4.751  20.147  0.00  0.00    +0.000 A 
ATOM      8  F   UNL     1       2.431   4.158  21.290  0.00  0.00    +0.000 F 
ATOM      9  C   UNL     1       2.351   6.050  19.930  0.00  0.00    +0.000 A 
ATOM     10  C   UNL     1       2.704   6.735  18.765  0.00  0.00    +0.000 A 
ATOM     11  C   UNL     1       3.536   6.104  17.834  0.00  0.00    +0.000 A 
ATOM     12  C   UNL     1       3.996   4.801  18.066  0.00  0.00    +0.000 A 
ATOM     13 CL   UNL     1       5.027   4.090  16.872  0.00  0.00    +0.000 Cl
BRANCH   6  15
ATOM     14  C   UNL     1       3.288   1.780  18.846  0.00  0.00    +0.000 C 
ATOM     15  O   UNL     1       4.107   2.824  19.363  0.00  0.00    +0.000 OA
ENDBRANCH   6  15
ENDBRANCH   1  10
BRANCH   3  16
ATOM     16  C   UNL     1       0.523  11.186  19.163  0.00  0.00    +0.000 C 
BRANCH  16  17
ATOM     17  C   UNL     1       0.874  11.745  20.542  0.00  0.00    +0.000 C 
BRANCH  17  18
ATOM     18  N   UNL     1      -0.312  11.982  21.373  0.00  0.00    +0.000 N 
ATOM     19  C   UNL     1      -1.213  13.018  21.139  0.00  0.00    +0.000 A 
ATOM     20  C   UNL     1      -1.067  13.995  20.005  0.00  0.00    +0.000 C 
ATOM     21  C   UNL     1      -2.267  13.165  21.950  0.00  0.00    +0.000 A 
ATOM     22  C   UNL     1      -2.408  12.188  23.039  0.00  0.00    +0.000 A 
ATOM     23  C   UNL     1      -3.587  12.350  23.965  0.00  0.00    +0.000 C 
ATOM     24  N   UNL     1      -1.594  11.210  23.247  0.00  0.00    +0.000 NA
ATOM     25  C   UNL     1      -0.519  11.048  22.415  0.00  0.00    +0.000 A 
ATOM     26  O   UNL     1       0.250  10.103  22.565  0.00  0.00    +0.000 OA
ENDBRANCH  17  18
ENDBRANCH  16  17
ENDBRANCH   3  16
TORSDOF 5
ENDMDL
MODEL 7
REMARK VINA RESULT:      -7.4      3.787      8.530
REMARK  Name = 
REMARK  8 active torsions:
REMARK  status: ('A' for Active; 'I' for Inactive)
REMARK    1  A    between atoms: C_1  and  O_2
REMARK    2  A    between atoms: O_2  and  C_3
REMARK    3  A    between atoms: C_7  and  C_8
REMARK    4  A    between atoms: N_10  and  C_11
REMARK    5  A    between atoms: C_11  and  C_12
REMARK    6  A    between atoms: C_12  and  N_13
REMARK    7  A    between atoms: C_14  and  C_15
REMARK    8  A    between atoms: C_17  and  C_18
REMARK                            x       y       z     vdW  Elec       q    Type
REMARK                         _______ _______ _______ _____ _____    ______ ____
ROOT
ATOM      1  C   UNL     1       2.242   6.515  19.475  0.00  0.00    +0.000 A 
ATOM      2  C   UNL     1       2.684   6.173  18.218  0.00  0.00    +0.000 A 
ATOM      3  N   UNL     1       3.076   4.874  18.349  0.00  0.00    +0.000 N 
ATOM      4  N   UNL     1       2.912   4.445  19.615  0.00  0.00    +0.000 NA
ATOM      5  N   UNL     1       2.404   5.449  20.316  0.00  0.00    +0.000 NA
ENDROOT
BRANCH   1  10
ATOM      6  C   UNL     1       0.691  10.323  20.643  0.00  0.00    +0.000 A 
ATOM      7  C   UNL     1       1.160  10.088  19.347  0.00  0.00    +0.000 A 
ATOM      8  F   UNL     1       1.149  11.052  18.415  0.00  0.00    +0.000 F 
ATOM      9  C   UNL     1       1.668   8.847  18.972  0.00  0.00    +0.000 A 
ATOM     10  C   UNL     1       1.720   7.797  19.892  0.00  0.00    +0.000 A 
ATOM     11  C   UNL     1       1.275   8.020  21.199  0.00  0.00    +0.000 A 
ATOM     12  C   UNL     1       0.775   9.275  21.571  0.00  0.00    +0.000 A 
ATOM     13 CL   UNL     1       0.249   9.475  23.208  0.00  0.00    +0.000 Cl
BRANCH   6  15
ATOM     14  C   UNL     1      -1.165  11.792  20.726  0.00  0.00    +0.000 C 
ATOM     15  O   UNL     1       0.183  11.515  21.090  0.00  0.00    +0.000 OA
ENDBRANCH   6  15
ENDBRANCH   1  10
BRANCH   3  16
ATOM     16  C   UNL     1       3.621   3.955  17.371  0.00  0.00    +0.000 C 
BRANCH  16  17
ATOM     17  C   UNL     1       5.120   3.682  17.498  0.00  0.00    +0.000 C 
BRANCH  17  18
ATOM     18  N   UNL     1       5.917   4.912  17.524  0.00  0.00    +0.000 N 
ATOM     19  C   UNL     1       6.089   5.734  16.413  0.00  0.00    +0.000 A 
ATOM     20  C   UNL     1       5.467   5.449  15.073  0.00  0.00    +0.000 C 
ATOM     21  C   UNL     1       6.838   6.838  16.524  0.00  0.00    +0.000 A 
ATOM     22  C   UNL     1       7.420   7.116  17.844  0.00  0.00    +0.000 A 
ATOM     23  C   UNL     1       8.273   8.352  17.978  0.00  0.00    +0.000 C 
ATOM     24  N   UNL     1       7.245   6.375  18.885  0.00  0.00    +0.000 NA
ATOM     25  C   UNL     1       6.471   5.251  18.781  0.00  0.00    +0.000 A 
ATOM     26  O   UNL     1       6.254   4.549  19.764  0.00  0.00    +0.000 OA
ENDBRANCH  17  18
ENDBRANCH  16  17
ENDBRANCH   3  16
TORSDOF 5
ENDMDL
MODEL 8
REMARK VINA RESULT:      -7.4      3.918      8.692
REMARK  Name = 
REMARK  8 active torsions:
REMARK  status: ('A' for Active; 'I' for Inactive)
REMARK    1  A    between atoms: C_1  and  O_2
REMARK    2  A    between atoms: O_2  and  C_3
REMARK    3  A    between atoms: C_7  and  C_8
REMARK    4  A    between atoms: N_10  and  C_11
REMARK    5  A    between atoms: C_11  and  C_12
REMARK    6  A    between atoms: C_12  and  N_13
REMARK    7  A    between atoms: C_14  and  C_15
REMARK    8  A    between atoms: C_17  and  C_18
REMARK                            x       y       z     vdW  Elec       q    Type
REMARK                         _______ _______ _______ _____ _____    ______ ____
ROOT
ATOM      1  C   UNL     1       2.042   6.610  19.491  0.00  0.00    +0.000 A 
ATOM      2  C   UNL     1       2.449   6.335  18.204  0.00  0.00    +0.000 A 
ATOM      3  N   UNL     1       2.700   4.996  18.218  0.00  0.00    +0.000 N 
ATOM      4  N   UNL     1       2.488   4.476  19.442  0.00  0.00    +0.000 NA
ATOM      5  N   UNL     1       2.087   5.462  20.233  0.00  0.00    +0.000 NA
ENDROOT
BRANCH   1  10
ATOM      6  C   UNL     1       0.922  10.399  21.121  0.00  0.00    +0.000 A 
ATOM      7  C   UNL     1       1.093   9.273  21.932  0.00  0.00    +0.000 A 
ATOM      8  F   UNL     1       0.906   9.333  23.258  0.00  0.00    +0.000 F 
ATOM      9  C   UNL     1       1.454   8.039  21.397  0.00  0.00    +0.000 A 
ATOM     10  C   UNL     1       1.658   7.898  20.022  0.00  0.00    +0.000 A 
ATOM     11  C   UNL     1       1.471   9.009  19.193  0.00  0.00    +0.000 A 
ATOM     12  C   UNL     1       1.096  10.244  19.738  0.00  0.00    +0.000 A 
ATOM     13 CL   UNL     1       0.878  11.570  18.647  0.00  0.00    +0.000 Cl
BRANCH   6  15
ATOM     14  C   UNL     1      -0.811  11.811  21.904  0.00  0.00    +0.000 C 
ATOM     15  O   UNL     1       0.563  11.643  21.571  0.00  0.00    +0.000 OA
ENDBRANCH   6  15
ENDBRANCH   1  10
BRANCH   3  16
ATOM     16  C   UNL     1       3.147   4.115  17.159  0.00  0.00    +0.000 C 
BRANCH  16  17
ATOM     17  C   UNL     1       4.580   3.602  17.299  0.00  0.00    +0.000 C 
BRANCH  17  18
ATOM     18  N   UNL     1       5.549   4.684  17.506  0.00  0.00    +0.000 N 
ATOM     19  C   UNL     1       5.922   5.576  16.504  0.00  0.00    +0.000 A 
ATOM     20  C   UNL     1       5.364   5.528  15.109  0.00  0.00    +0.000 C 
ATOM     21  C   UNL     1       6.818   6.532  16.779  0.00  0.00    +0.000 A 
ATOM     22  C   UNL     1       7.337   6.581  18.153  0.00  0.00    +0.000 A 
ATOM     23  C   UNL     1       8.353   7.648  18.471  0.00  0.00    +0.000 C 
ATOM     24  N   UNL     1       6.977   5.777  19.094  0.00  0.00    +0.000 NA
ATOM     25  C   UNL     1       6.053   4.803  18.822  0.00  0.00    +0.000 A 
ATOM     26  O   UNL     1       5.663   4.048  19.708  0.00  0.00    +0.000 OA
ENDBRANCH  17  18
ENDBRANCH  16  17
ENDBRANCH   3  16
TORSDOF 5
ENDMDL
MODEL 9
REMARK VINA RESULT:      -7.3      2.424      3.013
REMARK  Name = 
REMARK  8 active torsions:
REMARK  status: ('A' for Active; 'I' for Inactive)
REMARK    1  A    between atoms: C_1  and  O_2
REMARK    2  A    between atoms: O_2  and  C_3
REMARK    3  A    between atoms: C_7  and  C_8
REMARK    4  A    between atoms: N_10  and  C_11
REMARK    5  A    between atoms: C_11  and  C_12
REMARK    6  A    between atoms: C_12  and  N_13
REMARK    7  A    between atoms: C_14  and  C_15
REMARK    8  A    between atoms: C_17  and  C_18
REMARK                            x       y       z     vdW  Elec       q    Type
REMARK                         _______ _______ _______ _____ _____    ______ ____
ROOT
ATOM      1  C   UNL     1       2.615   7.326  18.816  0.00  0.00    +0.000 A 
ATOM      2  C   UNL     1       2.034   8.461  18.297  0.00  0.00    +0.000 A 
ATOM      3  N   UNL     1       1.310   8.963  19.337  0.00  0.00    +0.000 N 
ATOM      4  N   UNL     1       1.413   8.175  20.424  0.00  0.00    +0.000 NA
ATOM      5  N   UNL     1       2.211   7.164  20.112  0.00  0.00    +0.000 NA
ENDROOT
BRANCH   1  10
ATOM      6  C   UNL     1       5.146   4.568  16.751  0.00  0.00    +0.000 A 
ATOM      7  C   UNL     1       3.826   4.247  17.081  0.00  0.00    +0.000 A 
ATOM      8  F   UNL     1       3.298   3.054  16.769  0.00  0.00    +0.000 F 
ATOM      9  C   UNL     1       3.006   5.146  17.758  0.00  0.00    +0.000 A 
ATOM     10  C   UNL     1       3.489   6.405  18.124  0.00  0.00    +0.000 A 
ATOM     11  C   UNL     1       4.814   6.735  17.820  0.00  0.00    +0.000 A 
ATOM     12  C   UNL     1       5.636   5.820  17.150  0.00  0.00    +0.000 A 
ATOM     13 CL   UNL     1       7.264   6.300  16.816  0.00  0.00    +0.000 Cl
BRANCH   6  15
ATOM     14  C   UNL     1       6.057   3.874  14.677  0.00  0.00    +0.000 C 
ATOM     15  O   UNL     1       6.015   3.737  16.094  0.00  0.00    +0.000 OA
ENDBRANCH   6  15
ENDBRANCH   1  10
BRANCH   3  16
ATOM     16  C   UNL     1       0.486  10.151  19.417  0.00  0.00    +0.000 C 
BRANCH  16  17
ATOM     17  C   UNL     1       0.836  11.113  20.552  0.00  0.00    +0.000 C 
BRANCH  17  18
ATOM     18  N   UNL     1      -0.338  11.518  21.331  0.00  0.00    +0.000 N 
ATOM     19  C   UNL     1      -1.307  12.396  20.851  0.00  0.00    +0.000 A 
ATOM     20  C   UNL     1      -1.253  13.012  19.480  0.00  0.00    +0.000 C 
ATOM     21  C   UNL     1      -2.346  12.716  21.632  0.00  0.00    +0.000 A 
ATOM     22  C   UNL     1      -2.398  12.088  22.959  0.00  0.00    +0.000 A 
ATOM     23  C   UNL     1      -3.559  12.448  23.851  0.00  0.00    +0.000 C 
ATOM     24  N   UNL     1      -1.520  11.253  23.402  0.00  0.00    +0.000 NA
ATOM     25  C   UNL     1      -0.460  10.914  22.604  0.00  0.00    +0.000 A 
ATOM     26  O   UNL     1       0.369  10.093  22.984  0.00  0.00    +0.000 OA
ENDBRANCH  17  18
ENDBRANCH  16  17
ENDBRANCH   3  16
TORSDOF 5
ENDMDL
