MODEL 1
REMARK VINA RESULT:      -7.0      0.000      0.000
REMARK  Name = 
REMARK  14 active torsions:
REMARK  status: ('A' for Active; 'I' for Inactive)
REMARK    1  A    between atoms: C_1  and  C_2
REMARK    2  A    between atoms: C_2  and  N_3
REMARK    3  A    between atoms: N_3  and  C_4
REMARK    4  A    between atoms: N_3  and  C_6
REMARK    5  A    between atoms: C_4  and  C_5
REMARK    6  A    between atoms: C_6  and  C_7
REMARK    7  A    between atoms: C_7  and  N_8
REMARK    8  A    between atoms: N_8  and  C_22
REMARK    9  A    between atoms: C_9  and  C_11
REMARK   10  A    between atoms: C_14  and  N_15
REMARK   11  A    between atoms: N_15  and  S_16
REMARK   12  A    between atoms: S_16  and  C_17
REMARK   13  A    between atoms: C_25  and  O_26
REMARK   14  A    between atoms: O_26  and  C_27
REMARK                            x       y       z     vdW  Elec       q    Type
REMARK                         _______ _______ _______ _____ _____    ______ ____
ROOT
ATOM      1  N   UNL     1       3.697   6.457  17.472  0.00  0.00    +0.000 N 
ATOM      2  C   UNL     1       3.147   7.760  17.508  0.00  0.00    +0.000 C 
ATOM      3  O   UNL     1       3.506   8.630  16.709  0.00  0.00    +0.000 OA
ENDROOT
BRANCH   2   4
ATOM      4  C   UNL     1       2.130   8.174  18.557  0.00  0.00    +0.000 A 
ATOM      5  C   UNL     1       1.082   9.073  18.309  0.00  0.00    +0.000 A 
ATOM      6  C   UNL     1       0.238   9.511  19.328  0.00  0.00    +0.000 A 
ATOM      7  C   UNL     1       0.331   8.956  20.597  0.00  0.00    +0.000 A 
ATOM      8  C   UNL     1       1.287   7.975  20.853  0.00  0.00    +0.000 A 
ATOM      9  C   UNL     1       2.197   7.593  19.848  0.00  0.00    +0.000 A 
BRANCH   7  10
ATOM     10  N   UNL     1      -0.632   9.359  21.566  0.00  0.00    +0.000 N 
ATOM     11  H   UNL     1      -1.579   9.548  21.233  0.00  0.00    +0.000 HD
BRANCH  10  12
ATOM     12  S   UNL     1      -0.157  10.485  22.724  0.00  0.00    +0.000 S 
ATOM     13  C   UNL     1      -1.704  11.280  23.127  0.00  0.00    +0.000 C 
ATOM     14  O   UNL     1       0.349   9.813  23.899  0.00  0.00    +0.000 OA
ATOM     15  O   UNL     1       0.649  11.455  22.011  0.00  0.00    +0.000 OA
ENDBRANCH  10  12
ENDBRANCH   7  10
ENDBRANCH   2   4
BRANCH   1  16
ATOM     16  C   UNL     1       3.149   5.345  18.167  0.00  0.00    +0.000 A 
ATOM     17  C   UNL     1       1.948   4.760  17.753  0.00  0.00    +0.000 A 
ATOM     18  C   UNL     1       1.347   3.779  18.543  0.00  0.00    +0.000 A 
ATOM     19  C   UNL     1       1.957   3.351  19.724  0.00  0.00    +0.000 A 
ATOM     20  C   UNL     1       3.175   3.907  20.116  0.00  0.00    +0.000 A 
ATOM     21  C   UNL     1       3.780   4.888  19.331  0.00  0.00    +0.000 A 
BRANCH  19  22
ATOM     22  O   UNL     1       1.251   2.433  20.451  0.00  0.00    +0.000 OA
ATOM     23  C   UNL     1       1.495   2.467  21.854  0.00  0.00    +0.000 C 
ENDBRANCH  19  22
ENDBRANCH   1  16
BRANCH   1  24
ATOM     24  C   UNL     1       4.829   6.144  16.551  0.00  0.00    +0.000 C 
BRANCH  24  25
ATOM     25  C   UNL     1       6.209   6.336  17.239  0.00  0.00    +0.000 C 
BRANCH  25  26
ATOM     26  N   UNL     1       7.314   5.399  16.915  0.00  0.00    +0.000 NA
BRANCH  26  28
ATOM     27  C   UNL     1       7.842   5.763  19.390  0.00  0.00    +0.000 C 
ATOM     28  C   UNL     1       7.822   4.827  18.184  0.00  0.00    +0.000 C 
ENDBRANCH  26  28
BRANCH  26  29
ATOM     29  C   UNL     1       6.965   4.387  15.910  0.00  0.00    +0.000 C 
ATOM     30  C   UNL     1       7.109   4.809  14.452  0.00  0.00    +0.000 C 
ENDBRANCH  26  29
ENDBRANCH  25  26
ENDBRANCH  24  25
ENDBRANCH   1  24
TORSDOF 10
ENDMDL
MODEL 2
REMARK VINA RESULT:      -6.9      1.038      2.053
REMARK  Name = 
REMARK  14 active torsions:
REMARK  status: ('A' for Active; 'I' for Inactive)
REMARK    1  A    between atoms: C_1  and  C_2
REMARK    2  A    between atoms: C_2  and  N_3
REMARK    3  A    between atoms: N_3  and  C_4
REMARK    4  A    between atoms: N_3  and  C_6
REMARK    5  A    between atoms: C_4  and  C_5
REMARK    6  A    between atoms: C_6  and  C_7
REMARK    7  A    between atoms: C_7  and  N_8
REMARK    8  A    between atoms: N_8  and  C_22
REMARK    9  A    between atoms: C_9  and  C_11
REMARK   10  A    between atoms: C_14  and  N_15
REMARK   11  A    between atoms: N_15  and  S_16
REMARK   12  A    between atoms: S_16  and  C_17
REMARK   13  A    between atoms: C_25  and  O_26
REMARK   14  A    between atoms: O_26  and  C_27
REMARK                            x       y       z     vdW  Elec       q    Type
REMARK                         _______ _______ _______ _____ _____    ______ ____
ROOT
ATOM      1  N   UNL     1       3.295   6.566  17.918  0.00  0.00    +0.000 N 
ATOM      2  C   UNL     1       2.916   7.915  17.721  0.00  0.00    +0.000 C 
ATOM      3  O   UNL     1       3.448   8.610  16.850  0.00  0.00    +0.000 OA
ENDROOT
BRANCH   2   4
ATOM      4  C   UNL     1       1.878   8.594  18.597  0.00  0.00    +0.000 A 
ATOM      5  C   UNL     1       1.792   8.408  19.985  0.00  0.00    +0.000 A 
ATOM      6  C   UNL     1       0.756   8.963  20.733  0.00  0.00    +0.000 A 
ATOM      7  C   UNL     1      -0.146   9.834  20.138  0.00  0.00    +0.000 A 
ATOM      8  C   UNL     1      -0.025  10.133  18.783  0.00  0.00    +0.000 A 
ATOM      9  C   UNL     1       0.969   9.507  18.005  0.00  0.00    +0.000 A 
BRANCH   7  10
ATOM     10  N   UNL     1      -1.113  10.459  20.977  0.00  0.00    +0.000 N 
ATOM     11  H   UNL     1      -1.933  10.865  20.524  0.00  0.00    +0.000 HD
BRANCH  10  12
ATOM     12  S   UNL     1      -0.553  11.445  22.221  0.00  0.00    +0.000 S 
ATOM     13  C   UNL     1      -1.900  12.600  22.416  0.00  0.00    +0.000 C 
ATOM     14  O   UNL     1      -0.406  10.682  23.440  0.00  0.00    +0.000 OA
ATOM     15  O   UNL     1       0.562  12.179  21.658  0.00  0.00    +0.000 OA
ENDBRANCH  10  12
ENDBRANCH   7  10
ENDBRANCH   2   4
BRANCH   1  16
ATOM     16  C   UNL     1       2.553   5.640  18.699  0.00  0.00    +0.000 A 
ATOM     17  C   UNL     1       2.685   5.606  20.091  0.00  0.00    +0.000 A 
ATOM     18  C   UNL     1       2.075   4.585  20.821  0.00  0.00    +0.000 A 
ATOM     19  C   UNL     1       1.302   3.619  20.174  0.00  0.00    +0.000 A 
ATOM     20  C   UNL     1       1.139   3.675  18.789  0.00  0.00    +0.000 A 
ATOM     21  C   UNL     1       1.746   4.693  18.054  0.00  0.00    +0.000 A 
BRANCH  19  22
ATOM     22  O   UNL     1       0.805   2.630  20.976  0.00  0.00    +0.000 OA
ATOM     23  C   UNL     1       1.651   2.256  22.058  0.00  0.00    +0.000 C 
ENDBRANCH  19  22
ENDBRANCH   1  16
BRANCH   1  24
ATOM     24  C   UNL     1       4.449   5.992  17.165  0.00  0.00    +0.000 C 
BRANCH  24  25
ATOM     25  C   UNL     1       5.595   5.541  18.113  0.00  0.00    +0.000 C 
BRANCH  25  26
ATOM     26  N   UNL     1       7.001   5.649  17.648  0.00  0.00    +0.000 NA
BRANCH  26  28
ATOM     27  C   UNL     1       6.969   4.496  15.367  0.00  0.00    +0.000 C 
ATOM     28  C   UNL     1       6.990   5.791  16.173  0.00  0.00    +0.000 C 
ENDBRANCH  26  28
BRANCH  26  29
ATOM     29  C   UNL     1       7.780   6.687  18.335  0.00  0.00    +0.000 C 
ATOM     30  C   UNL     1       7.869   8.038  17.632  0.00  0.00    +0.000 C 
ENDBRANCH  26  29
ENDBRANCH  25  26
ENDBRANCH  24  25
ENDBRANCH   1  24
TORSDOF 10
ENDMDL
MODEL 3
REMARK VINA RESULT:      -6.8      2.282      4.584
REMARK  Name = 
REMARK  14 active torsions:
REMARK  status: ('A' for Active; 'I' for Inactive)
REMARK    1  A    between atoms: C_1  and  C_2
REMARK    2  A    between atoms: C_2  and  N_3
REMARK    3  A    between atoms: N_3  and  C_4
REMARK    4  A    between atoms: N_3  and  C_6
REMARK    5  A    between atoms: C_4  and  C_5
REMARK    6  A    between atoms: C_6  and  C_7
REMARK    7  A    between atoms: C_7  and  N_8
REMARK    8  A    between atoms: N_8  and  C_22
REMARK    9  A    between atoms: C_9  and  C_11
REMARK   10  A    between atoms: C_14  and  N_15
REMARK   11  A    between atoms: N_15  and  S_16
REMARK   12  A    between atoms: S_16  and  C_17
REMARK   13  A    between atoms: C_25  and  O_26
REMARK   14  A    between atoms: O_26  and  C_27
REMARK                            x       y       z     vdW  Elec       q    Type
REMARK                         _______ _______ _______ _____ _____    ______ ____
ROOT
ATOM      1  N   UNL     1       4.548   4.976  17.230  0.00  0.00    +0.000 N 
ATOM      2  C   UNL     1       3.202   5.107  17.646  0.00  0.00    +0.000 C 
ATOM      3  O   UNL     1       2.373   4.220  17.424  0.00  0.00    +0.000 OA
ENDROOT
BRANCH   2   4
ATOM      4  C   UNL     1       2.693   6.359  18.338  0.00  0.00    +0.000 A 
ATOM      5  C   UNL     1       2.517   6.462  19.726  0.00  0.00    +0.000 A 
ATOM      6  C   UNL     1       1.944   7.591  20.308  0.00  0.00    +0.000 A 
ATOM      7  C   UNL     1       1.657   8.706  19.533  0.00  0.00    +0.000 A 
ATOM      8  C   UNL     1       1.923   8.684  18.166  0.00  0.00    +0.000 A 
ATOM      9  C   UNL     1       2.424   7.514  17.561  0.00  0.00    +0.000 A 
BRANCH   7  10
ATOM     10  N   UNL     1       1.179   9.870  20.202  0.00  0.00    +0.000 N 
ATOM     11  H   UNL     1       1.779  10.273  20.924  0.00  0.00    +0.000 HD
BRANCH  10  12
ATOM     12  S   UNL     1      -0.439   9.900  20.667  0.00  0.00    +0.000 S 
ATOM     13  C   UNL     1      -1.269  10.151  19.107  0.00  0.00    +0.000 C 
ATOM     14  O   UNL     1      -0.829   8.618  21.209  0.00  0.00    +0.000 OA
ATOM     15  O   UNL     1      -0.596  11.116  21.437  0.00  0.00    +0.000 OA
ENDBRANCH  10  12
ENDBRANCH   7  10
ENDBRANCH   2   4
BRANCH   1  16
ATOM     16  C   UNL     1       5.603   5.815  17.680  0.00  0.00    +0.000 A 
ATOM     17  C   UNL     1       5.843   7.053  17.077  0.00  0.00    +0.000 A 
ATOM     18  C   UNL     1       6.981   7.784  17.423  0.00  0.00    +0.000 A 
ATOM     19  C   UNL     1       7.859   7.304  18.397  0.00  0.00    +0.000 A 
ATOM     20  C   UNL     1       7.598   6.087  19.027  0.00  0.00    +0.000 A 
ATOM     21  C   UNL     1       6.463   5.352  18.684  0.00  0.00    +0.000 A 
BRANCH  19  22
ATOM     22  O   UNL     1       8.972   8.068  18.613  0.00  0.00    +0.000 OA
ATOM     23  C   UNL     1       8.752   9.474  18.555  0.00  0.00    +0.000 C 
ENDBRANCH  19  22
ENDBRANCH   1  16
BRANCH   1  24
ATOM     24  C   UNL     1       4.965   3.816  16.387  0.00  0.00    +0.000 C 
BRANCH  24  25
ATOM     25  C   UNL     1       5.123   4.210  14.892  0.00  0.00    +0.000 C 
BRANCH  25  26
ATOM     26  N   UNL     1       6.439   4.024  14.232  0.00  0.00    +0.000 NA
BRANCH  26  28
ATOM     27  C   UNL     1       4.815   3.612  12.301  0.00  0.00    +0.000 C 
ATOM     28  C   UNL     1       6.207   3.421  12.899  0.00  0.00    +0.000 C 
ENDBRANCH  26  28
BRANCH  26  29
ATOM     29  C   UNL     1       7.266   5.238  14.195  0.00  0.00    +0.000 C 
ATOM     30  C   UNL     1       8.097   5.447  12.932  0.00  0.00    +0.000 C 
ENDBRANCH  26  29
ENDBRANCH  25  26
ENDBRANCH  24  25
ENDBRANCH   1  24
TORSDOF 10
ENDMDL
MODEL 4
REMARK VINA RESULT:      -6.8      2.187      4.527
REMARK  Name = 
REMARK  14 active torsions:
REMARK  status: ('A' for Active; 'I' for Inactive)
REMARK    1  A    between atoms: C_1  and  C_2
REMARK    2  A    between atoms: C_2  and  N_3
REMARK    3  A    between atoms: N_3  and  C_4
REMARK    4  A    between atoms: N_3  and  C_6
REMARK    5  A    between atoms: C_4  and  C_5
REMARK    6  A    between atoms: C_6  and  C_7
REMARK    7  A    between atoms: C_7  and  N_8
REMARK    8  A    between atoms: N_8  and  C_22
REMARK    9  A    between atoms: C_9  and  C_11
REMARK   10  A    between atoms: C_14  and  N_15
REMARK   11  A    between atoms: N_15  and  S_16
REMARK   12  A    between atoms: S_16  and  C_17
REMARK   13  A    between atoms: C_25  and  O_26
REMARK   14  A    between atoms: O_26  and  C_27
REMARK                            x       y       z     vdW  Elec       q    Type
REMARK                         _______ _______ _______ _____ _____    ______ ____
ROOT
ATOM      1  N   UNL     1       4.654   4.916  17.172  0.00  0.00    +0.000 N 
ATOM      2  C   UNL     1       3.340   4.925  17.695  0.00  0.00    +0.000 C 
ATOM      3  O   UNL     1       2.604   3.940  17.598  0.00  0.00    +0.000 OA
ENDROOT
BRANCH   2   4
ATOM      4  C   UNL     1       2.748   6.158  18.356  0.00  0.00    +0.000 A 
ATOM      5  C   UNL     1       2.368   7.310  17.652  0.00  0.00    +0.000 A 
ATOM      6  C   UNL     1       1.933   8.458  18.310  0.00  0.00    +0.000 A 
ATOM      7  C   UNL     1       1.732   8.442  19.683  0.00  0.00    +0.000 A 
ATOM      8  C   UNL     1       1.991   7.279  20.405  0.00  0.00    +0.000 A 
ATOM      9  C   UNL     1       2.512   6.143  19.754  0.00  0.00    +0.000 A 
BRANCH   7  10
ATOM     10  N   UNL     1       1.177   9.609  20.284  0.00  0.00    +0.000 N 
ATOM     11  H   UNL     1       1.737  10.463  20.251  0.00  0.00    +0.000 HD
BRANCH  10  12
ATOM     12  S   UNL     1       0.413   9.437  21.774  0.00  0.00    +0.000 S 
ATOM     13  C   UNL     1      -0.445  10.995  21.934  0.00  0.00    +0.000 C 
ATOM     14  O   UNL     1      -0.557   8.367  21.721  0.00  0.00    +0.000 OA
ATOM     15  O   UNL     1       1.479   9.434  22.755  0.00  0.00    +0.000 OA
ENDBRANCH  10  12
ENDBRANCH   7  10
ENDBRANCH   2   4
BRANCH   1  16
ATOM     16  C   UNL     1       5.638   5.894  17.479  0.00  0.00    +0.000 A 
ATOM     17  C   UNL     1       5.650   7.132  16.828  0.00  0.00    +0.000 A 
ATOM     18  C   UNL     1       6.717   8.009  17.025  0.00  0.00    +0.000 A 
ATOM     19  C   UNL     1       7.753   7.676  17.899  0.00  0.00    +0.000 A 
ATOM     20  C   UNL     1       7.722   6.458  18.579  0.00  0.00    +0.000 A 
ATOM     21  C   UNL     1       6.658   5.576  18.385  0.00  0.00    +0.000 A 
BRANCH  19  22
ATOM     22  O   UNL     1       8.777   8.579  17.968  0.00  0.00    +0.000 OA
ATOM     23  C   UNL     1       8.721   9.462  19.084  0.00  0.00    +0.000 C 
ENDBRANCH  19  22
ENDBRANCH   1  16
BRANCH   1  24
ATOM     24  C   UNL     1       5.133   3.756  16.364  0.00  0.00    +0.000 C 
BRANCH  24  25
ATOM     25  C   UNL     1       5.212   4.094  14.849  0.00  0.00    +0.000 C 
BRANCH  25  26
ATOM     26  N   UNL     1       6.509   3.949  14.143  0.00  0.00    +0.000 NA
BRANCH  26  28
ATOM     27  C   UNL     1       4.809   3.540  12.278  0.00  0.00    +0.000 C 
ATOM     28  C   UNL     1       6.241   3.411  12.789  0.00  0.00    +0.000 C 
ENDBRANCH  26  28
BRANCH  26  29
ATOM     29  C   UNL     1       7.329   5.168  14.142  0.00  0.00    +0.000 C 
ATOM     30  C   UNL     1       8.076   5.475  12.848  0.00  0.00    +0.000 C 
ENDBRANCH  26  29
ENDBRANCH  25  26
ENDBRANCH  24  25
ENDBRANCH   1  24
TORSDOF 10
ENDMDL
MODEL 5
REMARK VINA RESULT:      -6.8      2.563      4.927
REMARK  Name = 
REMARK  14 active torsions:
REMARK  status: ('A' for Active; 'I' for Inactive)
REMARK    1  A    between atoms: C_1  and  C_2
REMARK    2  A    between atoms: C_2  and  N_3
REMARK    3  A    between atoms: N_3  and  C_4
REMARK    4  A    between atoms: N_3  and  C_6
REMARK    5  A    between atoms: C_4  and  C_5
REMARK    6  A    between atoms: C_6  and  C_7
REMARK    7  A    between atoms: C_7  and  N_8
REMARK    8  A    between atoms: N_8  and  C_22
REMARK    9  A    between atoms: C_9  and  C_11
REMARK   10  A    between atoms: C_14  and  N_15
REMARK   11  A    between atoms: N_15  and  S_16
REMARK   12  A    between atoms: S_16  and  C_17
REMARK   13  A    between atoms: C_25  and  O_26
REMARK   14  A    between atoms: O_26  and  C_27
REMARK                            x       y       z     vdW  Elec       q    Type
REMARK                         _______ _______ _______ _____ _____    ______ ____
ROOT
ATOM      1  N   UNL     1       5.337   4.984  17.067  0.00  0.00    +0.000 N 
ATOM      2  C   UNL     1       3.979   4.855  17.443  0.00  0.00    +0.000 C 
ATOM      3  O   UNL     1       3.320   3.858  17.134  0.00  0.00    +0.000 OA
ENDROOT
BRANCH   2   4
ATOM      4  C   UNL     1       3.247   5.951  18.197  0.00  0.00    +0.000 A 
ATOM      5  C   UNL     1       2.962   5.892  19.569  0.00  0.00    +0.000 A 
ATOM      6  C   UNL     1       2.191   6.868  20.198  0.00  0.00    +0.000 A 
ATOM      7  C   UNL     1       1.800   8.003  19.502  0.00  0.00    +0.000 A 
ATOM      8  C   UNL     1       2.161   8.152  18.165  0.00  0.00    +0.000 A 
ATOM      9  C   UNL     1       2.867   7.128  17.504  0.00  0.00    +0.000 A 
BRANCH   7  10
ATOM     10  N   UNL     1       1.112   9.018  20.228  0.00  0.00    +0.000 N 
ATOM     11  H   UNL     1       0.391   8.716  20.885  0.00  0.00    +0.000 HD
BRANCH  10  12
ATOM     12  S   UNL     1       0.633  10.397  19.388  0.00  0.00    +0.000 S 
ATOM     13  C   UNL     1       0.319  11.550  20.714  0.00  0.00    +0.000 C 
ATOM     14  O   UNL     1       1.722  10.894  18.578  0.00  0.00    +0.000 OA
ATOM     15  O   UNL     1      -0.647  10.063  18.799  0.00  0.00    +0.000 OA
ENDBRANCH  10  12
ENDBRANCH   7  10
ENDBRANCH   2   4
BRANCH   1  16
ATOM     16  C   UNL     1       6.222   5.956  17.608  0.00  0.00    +0.000 A 
ATOM     17  C   UNL     1       6.318   7.232  17.046  0.00  0.00    +0.000 A 
ATOM     18  C   UNL     1       7.306   8.112  17.488  0.00  0.00    +0.000 A 
ATOM     19  C   UNL     1       8.175   7.740  18.516  0.00  0.00    +0.000 A 
ATOM     20  C   UNL     1       8.055   6.480  19.104  0.00  0.00    +0.000 A 
ATOM     21  C   UNL     1       7.068   5.596  18.665  0.00  0.00    +0.000 A 
BRANCH  19  22
ATOM     22  O   UNL     1       9.145   8.653  18.826  0.00  0.00    +0.000 OA
ATOM     23  C   UNL     1       8.883   9.978  18.376  0.00  0.00    +0.000 C 
ENDBRANCH  19  22
ENDBRANCH   1  16
BRANCH   1  24
ATOM     24  C   UNL     1       5.967   3.974  16.166  0.00  0.00    +0.000 C 
BRANCH  24  25
ATOM     25  C   UNL     1       5.253   3.898  14.788  0.00  0.00    +0.000 C 
BRANCH  25  26
ATOM     26  N   UNL     1       5.970   4.368  13.576  0.00  0.00    +0.000 NA
BRANCH  26  28
ATOM     27  C   UNL     1       8.165   5.491  12.902  0.00  0.00    +0.000 C 
ATOM     28  C   UNL     1       7.311   4.842  13.988  0.00  0.00    +0.000 C 
ENDBRANCH  26  28
BRANCH  26  29
ATOM     29  C   UNL     1       6.001   3.388  12.482  0.00  0.00    +0.000 C 
ATOM     30  C   UNL     1       4.722   3.256  11.661  0.00  0.00    +0.000 C 
ENDBRANCH  26  29
ENDBRANCH  25  26
ENDBRANCH  24  25
ENDBRANCH   1  24
TORSDOF 10
ENDMDL
MODEL 6
REMARK VINA RESULT:      -6.7      2.450      4.845
REMARK  Name = 
REMARK  14 active torsions:
REMARK  status: ('A' for Active; 'I' for Inactive)
REMARK    1  A    between atoms: C_1  and  C_2
REMARK    2  A    between atoms: C_2  and  N_3
REMARK    3  A    between atoms: N_3  and  C_4
REMARK    4  A    between atoms: N_3  and  C_6
REMARK    5  A    between atoms: C_4  and  C_5
REMARK    6  A    between atoms: C_6  and  C_7
REMARK    7  A    between atoms: C_7  and  N_8
REMARK    8  A    between atoms: N_8  and  C_22
REMARK    9  A    between atoms: C_9  and  C_11
REMARK   10  A    between atoms: C_14  and  N_15
REMARK   11  A    between atoms: N_15  and  S_16
REMARK   12  A    between atoms: S_16  and  C_17
REMARK   13  A    between atoms: C_25  and  O_26
REMARK   14  A    between atoms: O_26  and  C_27
REMARK                            x       y       z     vdW  Elec       q    Type
REMARK                         _______ _______ _______ _____ _____    ______ ____
ROOT
ATOM      1  N   UNL     1       4.902   4.868  17.059  0.00  0.00    +0.000 N 
ATOM      2  C   UNL     1       3.570   4.788  17.529  0.00  0.00    +0.000 C 
ATOM      3  O   UNL     1       2.845   3.831  17.243  0.00  0.00    +0.000 OA
ENDROOT
BRANCH   2   4
ATOM      4  C   UNL     1       2.944   5.893  18.363  0.00  0.00    +0.000 A 
ATOM      5  C   UNL     1       2.629   5.756  19.723  0.00  0.00    +0.000 A 
ATOM      6  C   UNL     1       1.956   6.755  20.421  0.00  0.00    +0.000 A 
ATOM      7  C   UNL     1       1.700   7.978  19.816  0.00  0.00    +0.000 A 
ATOM      8  C   UNL     1       2.099   8.193  18.499  0.00  0.00    +0.000 A 
ATOM      9  C   UNL     1       2.704   7.155  17.764  0.00  0.00    +0.000 A 
BRANCH   7  10
ATOM     10  N   UNL     1       1.111   9.000  20.616  0.00  0.00    +0.000 N 
ATOM     11  H   UNL     1       0.536   8.702  21.406  0.00  0.00    +0.000 HD
BRANCH  10  12
ATOM     12  S   UNL     1       0.425  10.318  19.825  0.00  0.00    +0.000 S 
ATOM     13  C   UNL     1      -0.360  11.191  21.170  0.00  0.00    +0.000 C 
ATOM     14  O   UNL     1       1.457  11.156  19.257  0.00  0.00    +0.000 OA
ATOM     15  O   UNL     1      -0.630   9.766  19.000  0.00  0.00    +0.000 OA
ENDBRANCH  10  12
ENDBRANCH   7  10
ENDBRANCH   2   4
BRANCH   1  16
ATOM     16  C   UNL     1       5.866   5.784  17.559  0.00  0.00    +0.000 A 
ATOM     17  C   UNL     1       6.019   7.051  16.986  0.00  0.00    +0.000 A 
ATOM     18  C   UNL     1       7.078   7.868  17.384  0.00  0.00    +0.000 A 
ATOM     19  C   UNL     1       7.962   7.445  18.378  0.00  0.00    +0.000 A 
ATOM     20  C   UNL     1       7.787   6.197  18.977  0.00  0.00    +0.000 A 
ATOM     21  C   UNL     1       6.730   5.376  18.583  0.00  0.00    +0.000 A 
BRANCH  19  22
ATOM     22  O   UNL     1       8.999   8.296  18.645  0.00  0.00    +0.000 OA
ATOM     23  C   UNL     1       8.701   9.676  18.458  0.00  0.00    +0.000 C 
ENDBRANCH  19  22
ENDBRANCH   1  16
BRANCH   1  24
ATOM     24  C   UNL     1       5.418   3.859  16.088  0.00  0.00    +0.000 C 
BRANCH  24  25
ATOM     25  C   UNL     1       6.210   4.521  14.926  0.00  0.00    +0.000 C 
BRANCH  25  26
ATOM     26  N   UNL     1       6.357   3.789  13.643  0.00  0.00    +0.000 NA
BRANCH  26  28
ATOM     27  C   UNL     1       4.936   3.004  11.668  0.00  0.00    +0.000 C 
ATOM     28  C   UNL     1       5.003   3.542  13.095  0.00  0.00    +0.000 C 
ENDBRANCH  26  28
BRANCH  26  29
ATOM     29  C   UNL     1       7.272   4.429  12.690  0.00  0.00    +0.000 C 
ATOM     30  C   UNL     1       8.068   5.619  13.217  0.00  0.00    +0.000 C 
ENDBRANCH  26  29
ENDBRANCH  25  26
ENDBRANCH  24  25
ENDBRANCH   1  24
TORSDOF 10
ENDMDL
MODEL 7
REMARK VINA RESULT:      -6.7      2.500      5.022
REMARK  Name = 
REMARK  14 active torsions:
REMARK  status: ('A' for Active; 'I' for Inactive)
REMARK    1  A    between atoms: C_1  and  C_2
REMARK    2  A    between atoms: C_2  and  N_3
REMARK    3  A    between atoms: N_3  and  C_4
REMARK    4  A    between atoms: N_3  and  C_6
REMARK    5  A    between atoms: C_4  and  C_5
REMARK    6  A    between atoms: C_6  and  C_7
REMARK    7  A    between atoms: C_7  and  N_8
REMARK    8  A    between atoms: N_8  and  C_22
REMARK    9  A    between atoms: C_9  and  C_11
REMARK   10  A    between atoms: C_14  and  N_15
REMARK   11  A    between atoms: N_15  and  S_16
REMARK   12  A    between atoms: S_16  and  C_17
REMARK   13  A    between atoms: C_25  and  O_26
REMARK   14  A    between atoms: O_26  and  C_27
REMARK                            x       y       z     vdW  Elec       q    Type
REMARK                         _______ _______ _______ _____ _____    ______ ____
ROOT
ATOM      1  N   UNL     1       5.101   4.551  16.822  0.00  0.00    +0.000 N 
ATOM      2  C   UNL     1       3.759   4.572  17.267  0.00  0.00    +0.000 C 
ATOM      3  O   UNL     1       2.997   3.625  17.051  0.00  0.00    +0.000 OA
ENDROOT
BRANCH   2   4
ATOM      4  C   UNL     1       3.169   5.773  17.985  0.00  0.00    +0.000 A 
ATOM      5  C   UNL     1       3.054   7.045  17.406  0.00  0.00    +0.000 A 
ATOM      6  C   UNL     1       2.610   8.144  18.138  0.00  0.00    +0.000 A 
ATOM      7  C   UNL     1       2.137   7.975  19.431  0.00  0.00    +0.000 A 
ATOM      8  C   UNL     1       2.129   6.705  20.004  0.00  0.00    +0.000 A 
ATOM      9  C   UNL     1       2.656   5.607  19.296  0.00  0.00    +0.000 A 
BRANCH   7  10
ATOM     10  N   UNL     1       1.589   9.115  20.088  0.00  0.00    +0.000 N 
ATOM     11  H   UNL     1       1.280   8.995  21.054  0.00  0.00    +0.000 HD
BRANCH  10  12
ATOM     12  S   UNL     1       0.518  10.082  19.221  0.00  0.00    +0.000 S 
ATOM     13  C   UNL     1       1.487  11.555  18.943  0.00  0.00    +0.000 C 
ATOM     14  O   UNL     1       0.211   9.472  17.946  0.00  0.00    +0.000 OA
ATOM     15  O   UNL     1      -0.532  10.430  20.156  0.00  0.00    +0.000 OA
ENDBRANCH  10  12
ENDBRANCH   7  10
ENDBRANCH   2   4
BRANCH   1  16
ATOM     16  C   UNL     1       6.097   5.465  17.260  0.00  0.00    +0.000 A 
ATOM     17  C   UNL     1       6.889   5.184  18.378  0.00  0.00    +0.000 A 
ATOM     18  C   UNL     1       7.743   6.163  18.887  0.00  0.00    +0.000 A 
ATOM     19  C   UNL     1       7.842   7.408  18.262  0.00  0.00    +0.000 A 
ATOM     20  C   UNL     1       7.081   7.675  17.124  0.00  0.00    +0.000 A 
ATOM     21  C   UNL     1       6.225   6.700  16.611  0.00  0.00    +0.000 A 
BRANCH  19  22
ATOM     22  O   UNL     1       8.660   8.312  18.880  0.00  0.00    +0.000 OA
ATOM     23  C   UNL     1       8.606   9.630  18.344  0.00  0.00    +0.000 C 
ENDBRANCH  19  22
ENDBRANCH   1  16
BRANCH   1  24
ATOM     24  C   UNL     1       5.589   3.437  15.955  0.00  0.00    +0.000 C 
BRANCH  24  25
ATOM     25  C   UNL     1       5.361   3.730  14.446  0.00  0.00    +0.000 C 
BRANCH  25  26
ATOM     26  N   UNL     1       6.532   3.786  13.537  0.00  0.00    +0.000 NA
BRANCH  26  28
ATOM     27  C   UNL     1       5.833   2.198  11.659  0.00  0.00    +0.000 C 
ATOM     28  C   UNL     1       6.046   3.628  12.146  0.00  0.00    +0.000 C 
ENDBRANCH  26  28
BRANCH  26  29
ATOM     29  C   UNL     1       7.387   4.965  13.733  0.00  0.00    +0.000 C 
ATOM     30  C   UNL     1       8.086   5.503  12.489  0.00  0.00    +0.000 C 
ENDBRANCH  26  29
ENDBRANCH  25  26
ENDBRANCH  24  25
ENDBRANCH   1  24
TORSDOF 10
ENDMDL
MODEL 8
REMARK VINA RESULT:      -6.6      1.693      2.778
REMARK  Name = 
REMARK  14 active torsions:
REMARK  status: ('A' for Active; 'I' for Inactive)
REMARK    1  A    between atoms: C_1  and  C_2
REMARK    2  A    between atoms: C_2  and  N_3
REMARK    3  A    between atoms: N_3  and  C_4
REMARK    4  A    between atoms: N_3  and  C_6
REMARK    5  A    between atoms: C_4  and  C_5
REMARK    6  A    between atoms: C_6  and  C_7
REMARK    7  A    between atoms: C_7  and  N_8
REMARK    8  A    between atoms: N_8  and  C_22
REMARK    9  A    between atoms: C_9  and  C_11
REMARK   10  A    between atoms: C_14  and  N_15
REMARK   11  A    between atoms: N_15  and  S_16
REMARK   12  A    between atoms: S_16  and  C_17
REMARK   13  A    between atoms: C_25  and  O_26
REMARK   14  A    between atoms: O_26  and  C_27
REMARK                            x       y       z     vdW  Elec       q    Type
REMARK                         _______ _______ _______ _____ _____    ______ ____
ROOT
ATOM      1  N   UNL     1       4.844   5.133  17.305  0.00  0.00    +0.000 N 
ATOM      2  C   UNL     1       4.574   6.499  17.053  0.00  0.00    +0.000 C 
ATOM      3  O   UNL     1       5.221   7.137  16.218  0.00  0.00    +0.000 OA
ENDROOT
BRANCH   2   4
ATOM      4  C   UNL     1       3.516   7.265  17.828  0.00  0.00    +0.000 A 
ATOM      5  C   UNL     1       3.125   6.942  19.136  0.00  0.00    +0.000 A 
ATOM      6  C   UNL     1       2.073   7.601  19.767  0.00  0.00    +0.000 A 
ATOM      7  C   UNL     1       1.471   8.695  19.162  0.00  0.00    +0.000 A 
ATOM      8  C   UNL     1       1.908   9.118  17.908  0.00  0.00    +0.000 A 
ATOM      9  C   UNL     1       2.914   8.401  17.231  0.00  0.00    +0.000 A 
BRANCH   7  10
ATOM     10  N   UNL     1       0.479   9.399  19.905  0.00  0.00    +0.000 N 
ATOM     11  H   UNL     1       0.384  10.400  19.727  0.00  0.00    +0.000 HD
BRANCH  10  12
ATOM     12  S   UNL     1       0.338   9.056  21.547  0.00  0.00    +0.000 S 
ATOM     13  C   UNL     1      -0.446  10.534  22.170  0.00  0.00    +0.000 C 
ATOM     14  O   UNL     1      -0.546   7.930  21.751  0.00  0.00    +0.000 OA
ATOM     15  O   UNL     1       1.694   9.043  22.056  0.00  0.00    +0.000 OA
ENDBRANCH  10  12
ENDBRANCH   7  10
ENDBRANCH   2   4
BRANCH   1  16
ATOM     16  C   UNL     1       3.980   4.276  18.039  0.00  0.00    +0.000 A 
ATOM     17  C   UNL     1       2.709   3.950  17.556  0.00  0.00    +0.000 A 
ATOM     18  C   UNL     1       1.820   3.243  18.366  0.00  0.00    +0.000 A 
ATOM     19  C   UNL     1       2.204   2.826  19.641  0.00  0.00    +0.000 A 
ATOM     20  C   UNL     1       3.486   3.117  20.109  0.00  0.00    +0.000 A 
ATOM     21  C   UNL     1       4.380   3.824  19.304  0.00  0.00    +0.000 A 
BRANCH  19  22
ATOM     22  O   UNL     1       1.234   2.197  20.372  0.00  0.00    +0.000 OA
ATOM     23  C   UNL     1       1.325   2.394  21.779  0.00  0.00    +0.000 C 
ENDBRANCH  19  22
ENDBRANCH   1  16
BRANCH   1  24
ATOM     24  C   UNL     1       6.014   4.467  16.662  0.00  0.00    +0.000 C 
BRANCH  24  25
ATOM     25  C   UNL     1       5.604   3.659  15.399  0.00  0.00    +0.000 C 
BRANCH  25  26
ATOM     26  N   UNL     1       6.334   3.888  14.127  0.00  0.00    +0.000 NA
BRANCH  26  28
ATOM     27  C   UNL     1       5.801   2.725  11.914  0.00  0.00    +0.000 C 
ATOM     28  C   UNL     1       5.381   3.703  13.008  0.00  0.00    +0.000 C 
ENDBRANCH  26  28
BRANCH  26  29
ATOM     29  C   UNL     1       7.063   5.162  14.077  0.00  0.00    +0.000 C 
ATOM     30  C   UNL     1       8.116   5.291  12.981  0.00  0.00    +0.000 C 
ENDBRANCH  26  29
ENDBRANCH  25  26
ENDBRANCH  24  25
ENDBRANCH   1  24
TORSDOF 10
ENDMDL
MODEL 9
REMARK VINA RESULT:      -6.6      1.043      1.624
REMARK  Name = 
REMARK  14 active torsions:
REMARK  status: ('A' for Active; 'I' for Inactive)
REMARK    1  A    between atoms: C_1  and  C_2
REMARK    2  A    between atoms: C_2  and  N_3
REMARK    3  A    between atoms: N_3  and  C_4
REMARK    4  A    between atoms: N_3  and  C_6
REMARK    5  A    between atoms: C_4  and  C_5
REMARK    6  A    between atoms: C_6  and  C_7
REMARK    7  A    between atoms: C_7  and  N_8
REMARK    8  A    between atoms: N_8  and  C_22
REMARK    9  A    between atoms: C_9  and  C_11
REMARK   10  A    between atoms: C_14  and  N_15
REMARK   11  A    between atoms: N_15  and  S_16
REMARK   12  A    between atoms: S_16  and  C_17
REMARK   13  A    between atoms: C_25  and  O_26
REMARK   14  A    between atoms: O_26  and  C_27
REMARK                            x       y       z     vdW  Elec       q    Type
REMARK                         _______ _______ _______ _____ _____    ______ ____
ROOT
ATOM      1  N   UNL     1       3.175   6.689  17.827  0.00  0.00    +0.000 N 
ATOM      2  C   UNL     1       2.759   8.040  17.778  0.00  0.00    +0.000 C 
ATOM      3  O   UNL     1       3.200   8.816  16.925  0.00  0.00    +0.000 OA
ENDROOT
BRANCH   2   4
ATOM      4  C   UNL     1       1.791   8.621  18.795  0.00  0.00    +0.000 A 
ATOM      5  C   UNL     1       1.831   8.319  20.164  0.00  0.00    +0.000 A 
ATOM      6  C   UNL     1       0.857   8.786  21.044  0.00  0.00    +0.000 A 
ATOM      7  C   UNL     1      -0.107   9.682  20.604  0.00  0.00    +0.000 A 
ATOM      8  C   UNL     1      -0.112  10.095  19.274  0.00  0.00    +0.000 A 
ATOM      9  C   UNL     1       0.820   9.558  18.363  0.00  0.00    +0.000 A 
BRANCH   7  10
ATOM     10  N   UNL     1      -1.006  10.214  21.575  0.00  0.00    +0.000 N 
ATOM     11  H   UNL     1      -2.002  10.033  21.438  0.00  0.00    +0.000 HD
BRANCH  10  12
ATOM     12  S   UNL     1      -0.740  11.787  22.113  0.00  0.00    +0.000 S 
ATOM     13  C   UNL     1      -1.764  12.738  21.002  0.00  0.00    +0.000 C 
ATOM     14  O   UNL     1      -1.233  11.945  23.463  0.00  0.00    +0.000 OA
ATOM     15  O   UNL     1       0.639  12.080  21.781  0.00  0.00    +0.000 OA
ENDBRANCH  10  12
ENDBRANCH   7  10
ENDBRANCH   2   4
BRANCH   1  16
ATOM     16  C   UNL     1       2.521   5.684  18.591  0.00  0.00    +0.000 A 
ATOM     17  C   UNL     1       2.812   5.509  19.948  0.00  0.00    +0.000 A 
ATOM     18  C   UNL     1       2.282   4.416  20.634  0.00  0.00    +0.000 A 
ATOM     19  C   UNL     1       1.432   3.518  19.986  0.00  0.00    +0.000 A 
ATOM     20  C   UNL     1       1.111   3.715  18.642  0.00  0.00    +0.000 A 
ATOM     21  C   UNL     1       1.638   4.805  17.950  0.00  0.00    +0.000 A 
BRANCH  19  22
ATOM     22  O   UNL     1       1.023   2.450  20.735  0.00  0.00    +0.000 OA
ATOM     23  C   UNL     1       1.543   2.416  22.060  0.00  0.00    +0.000 C 
ENDBRANCH  19  22
ENDBRANCH   1  16
BRANCH   1  24
ATOM     24  C   UNL     1       4.267   6.205  16.932  0.00  0.00    +0.000 C 
BRANCH  24  25
ATOM     25  C   UNL     1       5.546   5.821  17.728  0.00  0.00    +0.000 C 
BRANCH  25  26
ATOM     26  N   UNL     1       6.873   5.988  17.085  0.00  0.00    +0.000 NA
BRANCH  26  28
ATOM     27  C   UNL     1       7.820   5.760  19.448  0.00  0.00    +0.000 C 
ATOM     28  C   UNL     1       7.822   6.487  18.107  0.00  0.00    +0.000 C 
ENDBRANCH  26  28
BRANCH  26  29
ATOM     29  C   UNL     1       7.346   4.793  16.373  0.00  0.00    +0.000 C 
ATOM     30  C   UNL     1       6.946   4.683  14.905  0.00  0.00    +0.000 C 
ENDBRANCH  26  29
ENDBRANCH  25  26
ENDBRANCH  24  25
ENDBRANCH   1  24
TORSDOF 10
ENDMDL
