MODEL 1
REMARK VINA RESULT:      -8.6      0.000      0.000
REMARK  Name = 
REMARK  4 active torsions:
REMARK  status: ('A' for Active; 'I' for Inactive)
REMARK    1  A    between atoms: C_2  and  C_3
REMARK    2  A    between atoms: CA_16  and  C_17
REMARK    3  A    between atoms: C_17  and  O_18
REMARK    4  A    between atoms: C_23  and  C_24
REMARK                            x       y       z     vdW  Elec       q    Type
REMARK                         _______ _______ _______ _____ _____    ______ ____
ROOT
ATOM      1  O   UNL     1      -0.674  13.352  18.317  0.00  0.00    +0.000 OA
ATOM      2  C   UNL     1      -0.177  14.005  19.229  0.00  0.00    +0.000 C 
ATOM      3  N   UNL     1      -0.636  13.925  20.545  0.00  0.00    +0.000 N 
ATOM      4  C   UNL     1      -0.177  14.717  21.673  0.00  0.00    +0.000 C 
ATOM      5  C   UNL     1      -1.081  14.403  22.839  0.00  0.00    +0.000 C 
ATOM      6  C   UNL     1      -2.290  13.721  22.183  0.00  0.00    +0.000 C 
ATOM      7  CA  UNL     1      -3.045  12.800  23.130  0.00  0.00    +0.000 C 
ATOM      8  N   UNL     1      -2.138  11.768  23.644  0.00  0.00    +0.000 N 
ATOM      9  C   UNL     1      -1.369  11.097  22.679  0.00  0.00    +0.000 A 
ATOM     10  C   UNL     1      -0.719   9.925  23.073  0.00  0.00    +0.000 A 
ATOM     11  C   UNL     1       0.107   9.231  22.191  0.00  0.00    +0.000 A 
ATOM     12  C   UNL     1       0.310   9.679  20.878  0.00  0.00    +0.000 A 
ATOM     13  C   UNL     1      -0.326  10.877  20.506  0.00  0.00    +0.000 A 
ATOM     14  C   UNL     1      -1.110  11.627  21.405  0.00  0.00    +0.000 A 
ATOM     15  C   UNL     1      -1.679  12.977  20.985  0.00  0.00    +0.000 C 
ATOM     16  H   UNL     1      -2.583  11.090  24.255  0.00  0.00    +0.000 HD
ENDROOT
BRANCH   2  17
ATOM     17  C   UNL     1       1.024  14.856  18.925  0.00  0.00    +0.000 A 
ATOM     18  C   UNL     1       0.938  16.221  18.596  0.00  0.00    +0.000 A 
ATOM     19  C   UNL     1       2.066  17.036  18.514  0.00  0.00    +0.000 A 
ATOM     20  C   UNL     1       3.287  16.423  18.607  0.00  0.00    +0.000 A 
ATOM     21  C   UNL     1       3.403  15.065  18.796  0.00  0.00    +0.000 A 
ATOM     22  C   UNL     1       2.296  14.251  18.975  0.00  0.00    +0.000 A 
ATOM     23  O   UNL     1       4.704  14.664  18.783  0.00  0.00    +0.000 OA
ATOM     24  C   UNL     1       5.374  15.915  18.513  0.00  0.00    +0.000 C 
ATOM     25  O   UNL     1       4.485  17.047  18.483  0.00  0.00    +0.000 OA
ENDBRANCH   2  17
BRANCH  12  26
ATOM     26  C   UNL     1       1.199   8.941  19.951  0.00  0.00    +0.000 A 
ATOM     27  C   UNL     1       1.465   9.423  18.654  0.00  0.00    +0.000 A 
ATOM     28  C   UNL     1       2.246   8.697  17.751  0.00  0.00    +0.000 A 
ATOM     29  C   UNL     1       2.791   7.485  18.141  0.00  0.00    +0.000 A 
ATOM     30  F   UNL     1       3.530   6.782  17.275  0.00  0.00    +0.000 F 
ATOM     31  C   UNL     1       2.577   6.989  19.418  0.00  0.00    +0.000 A 
ATOM     32  C   UNL     1       1.782   7.710  20.315  0.00  0.00    +0.000 A 
ENDBRANCH  12  26
BRANCH   7  33
ATOM     33  C   UNL     1      -3.628  13.600  24.315  0.00  0.00    +0.000 C 
BRANCH  33  34
ATOM     34  O   UNL     1      -4.393  12.753  25.171  0.00  0.00    +0.000 OA
ATOM     35  H   UNL     1      -3.819  12.532  25.923  0.00  0.00    +0.000 HD
ENDBRANCH  33  34
ENDBRANCH   7  33
TORSDOF 4
ENDMDL
MODEL 2
REMARK VINA RESULT:      -8.2      0.613      1.038
REMARK  Name = 
REMARK  4 active torsions:
REMARK  status: ('A' for Active; 'I' for Inactive)
REMARK    1  A    between atoms: C_2  and  C_3
REMARK    2  A    between atoms: CA_16  and  C_17
REMARK    3  A    between atoms: C_17  and  O_18
REMARK    4  A    between atoms: C_23  and  C_24
REMARK                            x       y       z     vdW  Elec       q    Type
REMARK                         _______ _______ _______ _____ _____    ______ ____
ROOT
ATOM      1  O   UNL     1      -0.456  13.044  18.157  0.00  0.00    +0.000 OA
ATOM      2  C   UNL     1       0.068  13.699  19.053  0.00  0.00    +0.000 C 
ATOM      3  N   UNL     1      -0.385  13.660  20.373  0.00  0.00    +0.000 N 
ATOM      4  C   UNL     1       0.107  14.460  21.482  0.00  0.00    +0.000 C 
ATOM      5  C   UNL     1      -0.798  14.198  22.660  0.00  0.00    +0.000 C 
ATOM      6  C   UNL     1      -2.033  13.542  22.025  0.00  0.00    +0.000 C 
ATOM      7  CA  UNL     1      -2.810  12.665  22.995  0.00  0.00    +0.000 C 
ATOM      8  N   UNL     1      -1.932  11.615  23.524  0.00  0.00    +0.000 N 
ATOM      9  C   UNL     1      -1.192  10.901  22.568  0.00  0.00    +0.000 A 
ATOM     10  C   UNL     1      -0.576   9.717  22.982  0.00  0.00    +0.000 A 
ATOM     11  C   UNL     1       0.221   8.979  22.110  0.00  0.00    +0.000 A 
ATOM     12  C   UNL     1       0.430   9.394  20.787  0.00  0.00    +0.000 A 
ATOM     13  C   UNL     1      -0.170  10.604  20.395  0.00  0.00    +0.000 A 
ATOM     14  C   UNL     1      -0.925  11.396  21.283  0.00  0.00    +0.000 A 
ATOM     15  C   UNL     1      -1.454  12.755  20.838  0.00  0.00    +0.000 C 
ATOM     16  H   UNL     1      -2.394  10.963  24.152  0.00  0.00    +0.000 HD
ENDROOT
BRANCH   2  17
ATOM     17  C   UNL     1       1.294  14.505  18.724  0.00  0.00    +0.000 A 
ATOM     18  C   UNL     1       1.285  15.906  18.607  0.00  0.00    +0.000 A 
ATOM     19  C   UNL     1       2.460  16.649  18.501  0.00  0.00    +0.000 A 
ATOM     20  C   UNL     1       3.629  15.949  18.350  0.00  0.00    +0.000 A 
ATOM     21  C   UNL     1       3.650  14.574  18.327  0.00  0.00    +0.000 A 
ATOM     22  C   UNL     1       2.508  13.817  18.526  0.00  0.00    +0.000 A 
ATOM     23  O   UNL     1       4.903  14.094  18.092  0.00  0.00    +0.000 OA
ATOM     24  C   UNL     1       5.641  15.325  17.921  0.00  0.00    +0.000 C 
ATOM     25  O   UNL     1       4.852  16.505  18.166  0.00  0.00    +0.000 OA
ENDBRANCH   2  17
BRANCH  12  26
ATOM     26  C   UNL     1       1.288   8.609  19.870  0.00  0.00    +0.000 A 
ATOM     27  C   UNL     1       1.834   7.370  20.262  0.00  0.00    +0.000 A 
ATOM     28  C   UNL     1       2.701   6.658  19.428  0.00  0.00    +0.000 A 
ATOM     29  C   UNL     1       3.017   7.166  18.179  0.00  0.00    +0.000 A 
ATOM     30  F   UNL     1       3.856   6.492  17.382  0.00  0.00    +0.000 F 
ATOM     31  C   UNL     1       2.478   8.367  17.744  0.00  0.00    +0.000 A 
ATOM     32  C   UNL     1       1.623   9.086  18.587  0.00  0.00    +0.000 A 
ENDBRANCH  12  26
BRANCH   7  33
ATOM     33  C   UNL     1      -3.359  13.506  24.167  0.00  0.00    +0.000 C 
BRANCH  33  34
ATOM     34  O   UNL     1      -4.289  14.482  23.700  0.00  0.00    +0.000 OA
ATOM     35  H   UNL     1      -4.614  14.950  24.486  0.00  0.00    +0.000 HD
ENDBRANCH  33  34
ENDBRANCH   7  33
TORSDOF 4
ENDMDL
MODEL 3
REMARK VINA RESULT:      -7.9      5.308      9.043
REMARK  Name = 
REMARK  4 active torsions:
REMARK  status: ('A' for Active; 'I' for Inactive)
REMARK    1  A    between atoms: C_2  and  C_3
REMARK    2  A    between atoms: CA_16  and  C_17
REMARK    3  A    between atoms: C_17  and  O_18
REMARK    4  A    between atoms: C_23  and  C_24
REMARK                            x       y       z     vdW  Elec       q    Type
REMARK                         _______ _______ _______ _____ _____    ______ ____
ROOT
ATOM      1  O   UNL     1       2.772   8.372  17.042  0.00  0.00    +0.000 OA
ATOM      2  C   UNL     1       2.455   7.848  18.105  0.00  0.00    +0.000 C 
ATOM      3  N   UNL     1       2.736   6.511  18.396  0.00  0.00    +0.000 N 
ATOM      4  C   UNL     1       2.328   5.778  19.581  0.00  0.00    +0.000 C 
ATOM      5  C   UNL     1       2.709   4.334  19.368  0.00  0.00    +0.000 C 
ATOM      6  C   UNL     1       2.968   4.249  17.857  0.00  0.00    +0.000 C 
ATOM      7  CA  UNL     1       3.907   3.117  17.473  0.00  0.00    +0.000 C 
ATOM      8  N   UNL     1       5.189   3.281  18.168  0.00  0.00    +0.000 N 
ATOM      9  C   UNL     1       5.766   4.559  18.089  0.00  0.00    +0.000 A 
ATOM     10  C   UNL     1       7.103   4.689  18.474  0.00  0.00    +0.000 A 
ATOM     11  C   UNL     1       7.731   5.932  18.477  0.00  0.00    +0.000 A 
ATOM     12  C   UNL     1       7.049   7.094  18.090  0.00  0.00    +0.000 A 
ATOM     13  C   UNL     1       5.695   6.952  17.736  0.00  0.00    +0.000 A 
ATOM     14  C   UNL     1       5.025   5.714  17.791  0.00  0.00    +0.000 A 
ATOM     15  C   UNL     1       3.530   5.638  17.509  0.00  0.00    +0.000 C 
ATOM     16  H   UNL     1       5.885   2.580  17.930  0.00  0.00    +0.000 HD
ENDROOT
BRANCH   2  17
ATOM     17  C   UNL     1       1.817   8.706  19.161  0.00  0.00    +0.000 A 
ATOM     18  C   UNL     1       1.601   8.270  20.481  0.00  0.00    +0.000 A 
ATOM     19  C   UNL     1       1.195   9.140  21.492  0.00  0.00    +0.000 A 
ATOM     20  C   UNL     1       0.853  10.414  21.119  0.00  0.00    +0.000 A 
ATOM     21  C   UNL     1       0.927  10.829  19.810  0.00  0.00    +0.000 A 
ATOM     22  C   UNL     1       1.418  10.010  18.806  0.00  0.00    +0.000 A 
ATOM     23  O   UNL     1       0.470  12.102  19.659  0.00  0.00    +0.000 OA
ATOM     24  C   UNL     1       0.057  12.408  21.009  0.00  0.00    +0.000 C 
ATOM     25  O   UNL     1       0.375  11.369  21.955  0.00  0.00    +0.000 OA
ENDBRANCH   2  17
BRANCH  12  26
ATOM     26  C   UNL     1       7.722   8.413  18.107  0.00  0.00    +0.000 A 
ATOM     27  C   UNL     1       8.823   8.660  18.952  0.00  0.00    +0.000 A 
ATOM     28  C   UNL     1       9.419   9.922  19.024  0.00  0.00    +0.000 A 
ATOM     29  C   UNL     1       8.934  10.952  18.235  0.00  0.00    +0.000 A 
ATOM     30  F   UNL     1       9.496  12.165  18.310  0.00  0.00    +0.000 F 
ATOM     31  C   UNL     1       7.872  10.742  17.369  0.00  0.00    +0.000 A 
ATOM     32  C   UNL     1       7.267   9.483  17.310  0.00  0.00    +0.000 A 
ENDBRANCH  12  26
BRANCH   7  33
ATOM     33  C   UNL     1       3.296   1.751  17.854  0.00  0.00    +0.000 C 
BRANCH  33  34
ATOM     34  O   UNL     1       4.280   0.899  18.437  0.00  0.00    +0.000 OA
ATOM     35  H   UNL     1       4.318   0.103  17.881  0.00  0.00    +0.000 HD
ENDBRANCH  33  34
ENDBRANCH   7  33
TORSDOF 4
ENDMDL
MODEL 4
REMARK VINA RESULT:      -7.7      5.440      9.179
REMARK  Name = 
REMARK  4 active torsions:
REMARK  status: ('A' for Active; 'I' for Inactive)
REMARK    1  A    between atoms: C_2  and  C_3
REMARK    2  A    between atoms: CA_16  and  C_17
REMARK    3  A    between atoms: C_17  and  O_18
REMARK    4  A    between atoms: C_23  and  C_24
REMARK                            x       y       z     vdW  Elec       q    Type
REMARK                         _______ _______ _______ _____ _____    ______ ____
ROOT
ATOM      1  O   UNL     1       2.953   8.320  16.834  0.00  0.00    +0.000 OA
ATOM      2  C   UNL     1       2.570   7.849  17.901  0.00  0.00    +0.000 C 
ATOM      3  N   UNL     1       2.829   6.528  18.273  0.00  0.00    +0.000 N 
ATOM      4  C   UNL     1       2.346   5.854  19.466  0.00  0.00    +0.000 C 
ATOM      5  C   UNL     1       2.734   4.400  19.347  0.00  0.00    +0.000 C 
ATOM      6  C   UNL     1       3.083   4.242  17.860  0.00  0.00    +0.000 C 
ATOM      7  CA  UNL     1       4.040   3.091  17.589  0.00  0.00    +0.000 C 
ATOM      8  N   UNL     1       5.278   3.288  18.351  0.00  0.00    +0.000 N 
ATOM      9  C   UNL     1       5.863   4.560  18.244  0.00  0.00    +0.000 A 
ATOM     10  C   UNL     1       7.175   4.707  18.703  0.00  0.00    +0.000 A 
ATOM     11  C   UNL     1       7.807   5.948  18.683  0.00  0.00    +0.000 A 
ATOM     12  C   UNL     1       7.154   7.091  18.199  0.00  0.00    +0.000 A 
ATOM     13  C   UNL     1       5.824   6.933  17.771  0.00  0.00    +0.000 A 
ATOM     14  C   UNL     1       5.147   5.699  17.847  0.00  0.00    +0.000 A 
ATOM     15  C   UNL     1       3.670   5.611  17.479  0.00  0.00    +0.000 C 
ATOM     16  H   UNL     1       5.984   2.575  18.190  0.00  0.00    +0.000 HD
ENDROOT
BRANCH   2  17
ATOM     17  C   UNL     1       1.873   8.758  18.873  0.00  0.00    +0.000 A 
ATOM     18  C   UNL     1       1.384  10.030  18.523  0.00  0.00    +0.000 A 
ATOM     19  C   UNL     1       0.569  10.772  19.377  0.00  0.00    +0.000 A 
ATOM     20  C   UNL     1       0.392  10.288  20.646  0.00  0.00    +0.000 A 
ATOM     21  C   UNL     1       0.971   9.111  21.059  0.00  0.00    +0.000 A 
ATOM     22  C   UNL     1       1.705   8.311  20.199  0.00  0.00    +0.000 A 
ATOM     23  O   UNL     1       0.724   8.863  22.375  0.00  0.00    +0.000 OA
ATOM     24  C   UNL     1      -0.027  10.042  22.741  0.00  0.00    +0.000 C 
ATOM     25  O   UNL     1      -0.310  10.909  21.627  0.00  0.00    +0.000 OA
ENDBRANCH   2  17
BRANCH  12  26
ATOM     26  C   UNL     1       7.831   8.408  18.193  0.00  0.00    +0.000 A 
ATOM     27  C   UNL     1       8.890   8.690  19.079  0.00  0.00    +0.000 A 
ATOM     28  C   UNL     1       9.486   9.953  19.126  0.00  0.00    +0.000 A 
ATOM     29  C   UNL     1       9.044  10.948  18.270  0.00  0.00    +0.000 A 
ATOM     30  F   UNL     1       9.605  12.163  18.321  0.00  0.00    +0.000 F 
ATOM     31  C   UNL     1       8.024  10.703  17.364  0.00  0.00    +0.000 A 
ATOM     32  C   UNL     1       7.418   9.443  17.329  0.00  0.00    +0.000 A 
ENDBRANCH  12  26
BRANCH   7  33
ATOM     33  C   UNL     1       3.400   1.746  17.998  0.00  0.00    +0.000 C 
BRANCH  33  34
ATOM     34  O   UNL     1       4.375   0.874  18.569  0.00  0.00    +0.000 OA
ATOM     35  H   UNL     1       4.176   0.824  19.519  0.00  0.00    +0.000 HD
ENDBRANCH  33  34
ENDBRANCH   7  33
TORSDOF 4
ENDMDL
MODEL 5
REMARK VINA RESULT:      -7.5      1.079      1.685
REMARK  Name = 
REMARK  4 active torsions:
REMARK  status: ('A' for Active; 'I' for Inactive)
REMARK    1  A    between atoms: C_2  and  C_3
REMARK    2  A    between atoms: CA_16  and  C_17
REMARK    3  A    between atoms: C_17  and  O_18
REMARK    4  A    between atoms: C_23  and  C_24
REMARK                            x       y       z     vdW  Elec       q    Type
REMARK                         _______ _______ _______ _____ _____    ______ ____
ROOT
ATOM      1  O   UNL     1      -1.370  13.037  18.387  0.00  0.00    +0.000 OA
ATOM      2  C   UNL     1      -0.910  13.780  19.249  0.00  0.00    +0.000 C 
ATOM      3  N   UNL     1      -1.272  13.683  20.594  0.00  0.00    +0.000 N 
ATOM      4  C   UNL     1      -0.854  14.566  21.669  0.00  0.00    +0.000 C 
ATOM      5  C   UNL     1      -1.634  14.174  22.900  0.00  0.00    +0.000 C 
ATOM      6  C   UNL     1      -2.779  13.318  22.341  0.00  0.00    +0.000 C 
ATOM      7  CA  UNL     1      -3.345  12.337  23.358  0.00  0.00    +0.000 C 
ATOM      8  N   UNL     1      -2.277  11.452  23.837  0.00  0.00    +0.000 N 
ATOM      9  C   UNL     1      -1.487  10.856  22.840  0.00  0.00    +0.000 A 
ATOM     10  C   UNL     1      -0.662   9.794  23.220  0.00  0.00    +0.000 A 
ATOM     11  C   UNL     1       0.193   9.186  22.303  0.00  0.00    +0.000 A 
ATOM     12  C   UNL     1       0.253   9.613  20.969  0.00  0.00    +0.000 A 
ATOM     13  C   UNL     1      -0.559  10.703  20.610  0.00  0.00    +0.000 A 
ATOM     14  C   UNL     1      -1.380  11.373  21.540  0.00  0.00    +0.000 A 
ATOM     15  C   UNL     1      -2.149  12.621  21.124  0.00  0.00    +0.000 C 
ATOM     16  H   UNL     1      -2.589  10.741  24.492  0.00  0.00    +0.000 HD
ENDROOT
BRANCH   2  17
ATOM     17  C   UNL     1       0.146  14.771  18.846  0.00  0.00    +0.000 A 
ATOM     18  C   UNL     1       1.519  14.464  18.818  0.00  0.00    +0.000 A 
ATOM     19  C   UNL     1       2.459  15.326  18.254  0.00  0.00    +0.000 A 
ATOM     20  C   UNL     1       2.019  16.564  17.870  0.00  0.00    +0.000 A 
ATOM     21  C   UNL     1       0.703  16.940  18.010  0.00  0.00    +0.000 A 
ATOM     22  C   UNL     1      -0.264  16.068  18.479  0.00  0.00    +0.000 A 
ATOM     23  O   UNL     1       0.507  18.235  17.636  0.00  0.00    +0.000 OA
ATOM     24  C   UNL     1       1.855  18.631  17.298  0.00  0.00    +0.000 C 
ATOM     25  O   UNL     1       2.804  17.550  17.367  0.00  0.00    +0.000 OA
ENDBRANCH   2  17
BRANCH  12  26
ATOM     26  C   UNL     1       1.173   8.968  20.005  0.00  0.00    +0.000 A 
ATOM     27  C   UNL     1       1.426   9.539  18.741  0.00  0.00    +0.000 A 
ATOM     28  C   UNL     1       2.239   8.901  17.801  0.00  0.00    +0.000 A 
ATOM     29  C   UNL     1       2.828   7.689  18.119  0.00  0.00    +0.000 A 
ATOM     30  F   UNL     1       3.599   7.069  17.216  0.00  0.00    +0.000 F 
ATOM     31  C   UNL     1       2.629   7.107  19.362  0.00  0.00    +0.000 A 
ATOM     32  C   UNL     1       1.803   7.741  20.296  0.00  0.00    +0.000 A 
ENDBRANCH  12  26
BRANCH   7  33
ATOM     33  C   UNL     1      -3.955  13.092  24.559  0.00  0.00    +0.000 C 
BRANCH  33  34
ATOM     34  O   UNL     1      -4.653  12.194  25.421  0.00  0.00    +0.000 OA
ATOM     35  H   UNL     1      -5.270  12.736  25.939  0.00  0.00    +0.000 HD
ENDBRANCH  33  34
ENDBRANCH   7  33
TORSDOF 4
ENDMDL
MODEL 6
REMARK VINA RESULT:      -7.3      5.834      9.297
REMARK  Name = 
REMARK  4 active torsions:
REMARK  status: ('A' for Active; 'I' for Inactive)
REMARK    1  A    between atoms: C_2  and  C_3
REMARK    2  A    between atoms: CA_16  and  C_17
REMARK    3  A    between atoms: C_17  and  O_18
REMARK    4  A    between atoms: C_23  and  C_24
REMARK                            x       y       z     vdW  Elec       q    Type
REMARK                         _______ _______ _______ _____ _____    ______ ____
ROOT
ATOM      1  O   UNL     1       6.502  16.507  20.682  0.00  0.00    +0.000 OA
ATOM      2  C   UNL     1       6.135  15.808  19.743  0.00  0.00    +0.000 C 
ATOM      3  N   UNL     1       7.006  14.963  19.052  0.00  0.00    +0.000 N 
ATOM      4  C   UNL     1       6.692  14.167  17.878  0.00  0.00    +0.000 C 
ATOM      5  C   UNL     1       7.984  13.561  17.388  0.00  0.00    +0.000 C 
ATOM      6  C   UNL     1       9.062  14.390  18.102  0.00  0.00    +0.000 C 
ATOM      7  CA  UNL     1      10.381  13.648  18.260  0.00  0.00    +0.000 C 
ATOM      8  N   UNL     1      10.162  12.405  19.008  0.00  0.00    +0.000 N 
ATOM      9  C   UNL     1       9.427  12.531  20.198  0.00  0.00    +0.000 A 
ATOM     10  C   UNL     1       9.442  11.451  21.084  0.00  0.00    +0.000 A 
ATOM     11  C   UNL     1       8.695  11.476  22.259  0.00  0.00    +0.000 A 
ATOM     12  C   UNL     1       7.906  12.585  22.598  0.00  0.00    +0.000 A 
ATOM     13  C   UNL     1       7.876  13.651  21.681  0.00  0.00    +0.000 A 
ATOM     14  C   UNL     1       8.573  13.615  20.456  0.00  0.00    +0.000 A 
ATOM     15  C   UNL     1       8.411  14.747  19.448  0.00  0.00    +0.000 C 
ATOM     16  H   UNL     1      11.009  11.872  19.188  0.00  0.00    +0.000 HD
ENDROOT
BRANCH   2  17
ATOM     17  C   UNL     1       4.675  15.803  19.384  0.00  0.00    +0.000 A 
ATOM     18  C   UNL     1       3.784  14.796  19.797  0.00  0.00    +0.000 A 
ATOM     19  C   UNL     1       2.405  14.910  19.626  0.00  0.00    +0.000 A 
ATOM     20  C   UNL     1       1.954  15.974  18.890  0.00  0.00    +0.000 A 
ATOM     21  C   UNL     1       2.817  16.904  18.359  0.00  0.00    +0.000 A 
ATOM     22  C   UNL     1       4.181  16.862  18.597  0.00  0.00    +0.000 A 
ATOM     23  O   UNL     1       2.160  17.827  17.604  0.00  0.00    +0.000 OA
ATOM     24  C   UNL     1       0.804  17.334  17.686  0.00  0.00    +0.000 C 
ATOM     25  O   UNL     1       0.657  16.205  18.568  0.00  0.00    +0.000 OA
ENDBRANCH   2  17
BRANCH  12  26
ATOM     26  C   UNL     1       7.106  12.597  23.844  0.00  0.00    +0.000 A 
ATOM     27  C   UNL     1       6.957  11.436  24.628  0.00  0.00    +0.000 A 
ATOM     28  C   UNL     1       6.148  11.423  25.767  0.00  0.00    +0.000 A 
ATOM     29  C   UNL     1       5.490  12.580  26.150  0.00  0.00    +0.000 A 
ATOM     30  F   UNL     1       4.705  12.568  27.234  0.00  0.00    +0.000 F 
ATOM     31  C   UNL     1       5.633  13.752  25.422  0.00  0.00    +0.000 A 
ATOM     32  C   UNL     1       6.432  13.758  24.274  0.00  0.00    +0.000 A 
ENDBRANCH  12  26
BRANCH   7  33
ATOM     33  C   UNL     1      10.982  13.309  16.878  0.00  0.00    +0.000 C 
BRANCH  33  34
ATOM     34  O   UNL     1      11.139  14.488  16.090  0.00  0.00    +0.000 OA
ATOM     35  H   UNL     1      11.673  15.103  16.620  0.00  0.00    +0.000 HD
ENDBRANCH  33  34
ENDBRANCH   7  33
TORSDOF 4
ENDMDL
MODEL 7
REMARK VINA RESULT:      -7.3      3.155      6.632
REMARK  Name = 
REMARK  4 active torsions:
REMARK  status: ('A' for Active; 'I' for Inactive)
REMARK    1  A    between atoms: C_2  and  C_3
REMARK    2  A    between atoms: CA_16  and  C_17
REMARK    3  A    between atoms: C_17  and  O_18
REMARK    4  A    between atoms: C_23  and  C_24
REMARK                            x       y       z     vdW  Elec       q    Type
REMARK                         _______ _______ _______ _____ _____    ______ ____
ROOT
ATOM      1  O   UNL     1       1.631  10.578  21.714  0.00  0.00    +0.000 OA
ATOM      2  C   UNL     1       0.941  10.243  20.756  0.00  0.00    +0.000 C 
ATOM      3  N   UNL     1      -0.218  10.930  20.390  0.00  0.00    +0.000 N 
ATOM      4  C   UNL     1      -1.146  10.564  19.334  0.00  0.00    +0.000 C 
ATOM      5  C   UNL     1      -2.326  11.498  19.430  0.00  0.00    +0.000 C 
ATOM      6  C   UNL     1      -2.184  12.114  20.830  0.00  0.00    +0.000 C 
ATOM      7  CA  UNL     1      -2.857  13.472  20.958  0.00  0.00    +0.000 C 
ATOM      8  N   UNL     1      -2.292  14.399  19.970  0.00  0.00    +0.000 N 
ATOM      9  C   UNL     1      -0.890  14.453  19.919  0.00  0.00    +0.000 A 
ATOM     10  C   UNL     1      -0.311  15.514  19.218  0.00  0.00    +0.000 A 
ATOM     11  C   UNL     1       1.072  15.610  19.074  0.00  0.00    +0.000 A 
ATOM     12  C   UNL     1       1.930  14.651  19.630  0.00  0.00    +0.000 A 
ATOM     13  C   UNL     1       1.331  13.572  20.305  0.00  0.00    +0.000 A 
ATOM     14  C   UNL     1      -0.067  13.424  20.403  0.00  0.00    +0.000 A 
ATOM     15  C   UNL     1      -0.663  12.176  21.044  0.00  0.00    +0.000 C 
ATOM     16  H   UNL     1      -2.667  15.341  20.022  0.00  0.00    +0.000 HD
ENDROOT
BRANCH   2  17
ATOM     17  C   UNL     1       1.415   9.102  19.899  0.00  0.00    +0.000 A 
ATOM     18  C   UNL     1       1.626   9.217  18.513  0.00  0.00    +0.000 A 
ATOM     19  C   UNL     1       2.253   8.214  17.774  0.00  0.00    +0.000 A 
ATOM     20  C   UNL     1       2.513   7.034  18.419  0.00  0.00    +0.000 A 
ATOM     21  C   UNL     1       2.193   6.847  19.743  0.00  0.00    +0.000 A 
ATOM     22  C   UNL     1       1.658   7.861  20.520  0.00  0.00    +0.000 A 
ATOM     23  O   UNL     1       2.470   5.579  20.154  0.00  0.00    +0.000 OA
ATOM     24  C   UNL     1       2.947   4.990  18.924  0.00  0.00    +0.000 C 
ATOM     25  O   UNL     1       3.053   5.932  17.840  0.00  0.00    +0.000 OA
ENDBRANCH   2  17
BRANCH  12  26
ATOM     26  C   UNL     1       3.398  14.755  19.461  0.00  0.00    +0.000 A 
ATOM     27  C   UNL     1       4.248  14.956  20.567  0.00  0.00    +0.000 A 
ATOM     28  C   UNL     1       5.626  15.124  20.408  0.00  0.00    +0.000 A 
ATOM     29  C   UNL     1       6.177  15.072  19.139  0.00  0.00    +0.000 A 
ATOM     30  F   UNL     1       7.496  15.244  18.981  0.00  0.00    +0.000 F 
ATOM     31  C   UNL     1       5.379  14.847  18.027  0.00  0.00    +0.000 A 
ATOM     32  C   UNL     1       3.998  14.694  18.188  0.00  0.00    +0.000 A 
ENDBRANCH  12  26
BRANCH   7  33
ATOM     33  C   UNL     1      -4.379  13.348  20.725  0.00  0.00    +0.000 C 
BRANCH  33  34
ATOM     34  O   UNL     1      -4.965  12.452  21.667  0.00  0.00    +0.000 OA
ATOM     35  H   UNL     1      -5.825  12.191  21.299  0.00  0.00    +0.000 HD
ENDBRANCH  33  34
ENDBRANCH   7  33
TORSDOF 4
ENDMDL
MODEL 8
REMARK VINA RESULT:      -7.3      3.086      6.576
REMARK  Name = 
REMARK  4 active torsions:
REMARK  status: ('A' for Active; 'I' for Inactive)
REMARK    1  A    between atoms: C_2  and  C_3
REMARK    2  A    between atoms: CA_16  and  C_17
REMARK    3  A    between atoms: C_17  and  O_18
REMARK    4  A    between atoms: C_23  and  C_24
REMARK                            x       y       z     vdW  Elec       q    Type
REMARK                         _______ _______ _______ _____ _____    ______ ____
ROOT
ATOM      1  O   UNL     1       1.568  10.908  21.698  0.00  0.00    +0.000 OA
ATOM      2  C   UNL     1       0.846  10.574  20.764  0.00  0.00    +0.000 C 
ATOM      3  N   UNL     1      -0.315  11.273  20.427  0.00  0.00    +0.000 N 
ATOM      4  C   UNL     1      -1.278  10.910  19.402  0.00  0.00    +0.000 C 
ATOM      5  C   UNL     1      -2.444  11.860  19.525  0.00  0.00    +0.000 C 
ATOM      6  C   UNL     1      -2.253  12.485  20.915  0.00  0.00    +0.000 C 
ATOM      7  CA  UNL     1      -2.905  13.852  21.051  0.00  0.00    +0.000 C 
ATOM      8  N   UNL     1      -2.358  14.764  20.040  0.00  0.00    +0.000 N 
ATOM      9  C   UNL     1      -0.958  14.800  19.947  0.00  0.00    +0.000 A 
ATOM     10  C   UNL     1      -0.387  15.848  19.219  0.00  0.00    +0.000 A 
ATOM     11  C   UNL     1       0.992  15.925  19.033  0.00  0.00    +0.000 A 
ATOM     12  C   UNL     1       1.855  14.960  19.572  0.00  0.00    +0.000 A 
ATOM     13  C   UNL     1       1.263  13.895  20.274  0.00  0.00    +0.000 A 
ATOM     14  C   UNL     1      -0.133  13.765  20.414  0.00  0.00    +0.000 A 
ATOM     15  C   UNL     1      -0.725  12.530  21.083  0.00  0.00    +0.000 C 
ATOM     16  H   UNL     1      -2.719  15.711  20.095  0.00  0.00    +0.000 HD
ENDROOT
BRANCH   2  17
ATOM     17  C   UNL     1       1.280   9.421  19.903  0.00  0.00    +0.000 A 
ATOM     18  C   UNL     1       1.487   9.531  18.516  0.00  0.00    +0.000 A 
ATOM     19  C   UNL     1       2.078   8.510  17.772  0.00  0.00    +0.000 A 
ATOM     20  C   UNL     1       2.306   7.322  18.414  0.00  0.00    +0.000 A 
ATOM     21  C   UNL     1       1.988   7.143  19.740  0.00  0.00    +0.000 A 
ATOM     22  C   UNL     1       1.489   8.172  20.521  0.00  0.00    +0.000 A 
ATOM     23  O   UNL     1       2.229   5.867  20.148  0.00  0.00    +0.000 OA
ATOM     24  C   UNL     1       2.681   5.265  18.914  0.00  0.00    +0.000 C 
ATOM     25  O   UNL     1       2.809   6.205  17.831  0.00  0.00    +0.000 OA
ENDBRANCH   2  17
BRANCH  12  26
ATOM     26  C   UNL     1       3.318  15.044  19.359  0.00  0.00    +0.000 A 
ATOM     27  C   UNL     1       3.880  14.882  18.077  0.00  0.00    +0.000 A 
ATOM     28  C   UNL     1       5.264  14.891  17.880  0.00  0.00    +0.000 A 
ATOM     29  C   UNL     1       6.105  15.085  18.962  0.00  0.00    +0.000 A 
ATOM     30  F   UNL     1       7.432  15.083  18.779  0.00  0.00    +0.000 F 
ATOM     31  C   UNL     1       5.592  15.278  20.236  0.00  0.00    +0.000 A 
ATOM     32  C   UNL     1       4.207  15.253  20.433  0.00  0.00    +0.000 A 
ENDBRANCH  12  26
BRANCH   7  33
ATOM     33  C   UNL     1      -4.434  13.745  20.865  0.00  0.00    +0.000 C 
BRANCH  33  34
ATOM     34  O   UNL     1      -4.868  14.547  19.767  0.00  0.00    +0.000 OA
ATOM     35  H   UNL     1      -4.179  14.475  19.086  0.00  0.00    +0.000 HD
ENDBRANCH  33  34
ENDBRANCH   7  33
TORSDOF 4
ENDMDL
MODEL 9
REMARK VINA RESULT:      -7.3      5.520      9.274
REMARK  Name = 
REMARK  4 active torsions:
REMARK  status: ('A' for Active; 'I' for Inactive)
REMARK    1  A    between atoms: C_2  and  C_3
REMARK    2  A    between atoms: CA_16  and  C_17
REMARK    3  A    between atoms: C_17  and  O_18
REMARK    4  A    between atoms: C_23  and  C_24
REMARK                            x       y       z     vdW  Elec       q    Type
REMARK                         _______ _______ _______ _____ _____    ______ ____
ROOT
ATOM      1  O   UNL     1       6.488  16.556  20.728  0.00  0.00    +0.000 OA
ATOM      2  C   UNL     1       6.117  15.864  19.784  0.00  0.00    +0.000 C 
ATOM      3  N   UNL     1       6.985  15.024  19.083  0.00  0.00    +0.000 N 
ATOM      4  C   UNL     1       6.666  14.237  17.904  0.00  0.00    +0.000 C 
ATOM      5  C   UNL     1       7.955  13.636  17.404  0.00  0.00    +0.000 C 
ATOM      6  C   UNL     1       9.037  14.459  18.119  0.00  0.00    +0.000 C 
ATOM      7  CA  UNL     1      10.356  13.716  18.264  0.00  0.00    +0.000 C 
ATOM      8  N   UNL     1      10.141  12.467  19.004  0.00  0.00    +0.000 N 
ATOM      9  C   UNL     1       9.411  12.585  20.198  0.00  0.00    +0.000 A 
ATOM     10  C   UNL     1       9.431  11.497  21.076  0.00  0.00    +0.000 A 
ATOM     11  C   UNL     1       8.689  11.513  22.255  0.00  0.00    +0.000 A 
ATOM     12  C   UNL     1       7.902  12.619  22.606  0.00  0.00    +0.000 A 
ATOM     13  C   UNL     1       7.868  13.692  21.697  0.00  0.00    +0.000 A 
ATOM     14  C   UNL     1       8.558  13.666  20.469  0.00  0.00    +0.000 A 
ATOM     15  C   UNL     1       8.392  14.805  19.471  0.00  0.00    +0.000 C 
ATOM     16  H   UNL     1      10.988  11.933  19.176  0.00  0.00    +0.000 HD
ENDROOT
BRANCH   2  17
ATOM     17  C   UNL     1       4.656  15.862  19.433  0.00  0.00    +0.000 A 
ATOM     18  C   UNL     1       4.114  16.635  18.390  0.00  0.00    +0.000 A 
ATOM     19  C   UNL     1       2.801  16.471  17.950  0.00  0.00    +0.000 A 
ATOM     20  C   UNL     1       1.998  15.637  18.682  0.00  0.00    +0.000 A 
ATOM     21  C   UNL     1       2.467  14.969  19.790  0.00  0.00    +0.000 A 
ATOM     22  C   UNL     1       3.791  15.044  20.187  0.00  0.00    +0.000 A 
ATOM     23  O   UNL     1       1.481  14.259  20.405  0.00  0.00    +0.000 OA
ATOM     24  C   UNL     1       0.342  14.603  19.585  0.00  0.00    +0.000 C 
ATOM     25  O   UNL     1       0.682  15.411  18.442  0.00  0.00    +0.000 OA
ENDBRANCH   2  17
BRANCH  12  26
ATOM     26  C   UNL     1       7.108  12.622  23.856  0.00  0.00    +0.000 A 
ATOM     27  C   UNL     1       7.002  11.468  24.657  0.00  0.00    +0.000 A 
ATOM     28  C   UNL     1       6.199  11.443  25.800  0.00  0.00    +0.000 A 
ATOM     29  C   UNL     1       5.505  12.583  26.170  0.00  0.00    +0.000 A 
ATOM     30  F   UNL     1       4.725  12.559  27.259  0.00  0.00    +0.000 F 
ATOM     31  C   UNL     1       5.604  13.748  25.425  0.00  0.00    +0.000 A 
ATOM     32  C   UNL     1       6.397  13.765  24.273  0.00  0.00    +0.000 A 
ENDBRANCH  12  26
BRANCH   7  33
ATOM     33  C   UNL     1      10.951  13.388  16.877  0.00  0.00    +0.000 C 
BRANCH  33  34
ATOM     34  O   UNL     1      11.133  14.576  16.110  0.00  0.00    +0.000 OA
ATOM     35  H   UNL     1      12.091  14.675  15.980  0.00  0.00    +0.000 HD
ENDBRANCH  33  34
ENDBRANCH   7  33
TORSDOF 4
ENDMDL
