MODEL 1
REMARK VINA RESULT:      -6.6      0.000      0.000
REMARK  Name = 
REMARK  8 active torsions:
REMARK  status: ('A' for Active; 'I' for Inactive)
REMARK    1  A    between atoms: C_1  and  C_2
REMARK    2  A    between atoms: C_2  and  N_3
REMARK    3  A    between atoms: N_3  and  C_4
REMARK    4  A    between atoms: N_3  and  C_6
REMARK    5  A    between atoms: C_4  and  C_5
REMARK    6  A    between atoms: C_6  and  C_7
REMARK    7  A    between atoms: C_7  and  N_8
REMARK    8  A    between atoms: C_18  and  S_19
REMARK                            x       y       z     vdW  Elec       q    Type
REMARK                         _______ _______ _______ _____ _____    ______ ____
ROOT
ATOM      1  N   UNL     1       3.445   5.770  18.286  0.00  0.00    +0.000 N 
ATOM      2  C   UNL     1       3.358   4.680  19.138  0.00  0.00    +0.000 A 
ATOM      3  C   UNL     1       3.907   3.389  19.060  0.00  0.00    +0.000 A 
ATOM      4  C   UNL     1       3.639   2.491  20.099  0.00  0.00    +0.000 A 
ATOM      5  C   UNL     1       2.855   2.861  21.186  0.00  0.00    +0.000 A 
ATOM      6  C   UNL     1       2.310   4.146  21.262  0.00  0.00    +0.000 A 
ATOM      7  C   UNL     1       2.561   5.071  20.227  0.00  0.00    +0.000 A 
ATOM      8  C   UNL     1       2.172   6.415  19.995  0.00  0.00    +0.000 A 
ATOM      9  N   UNL     1       1.426   7.285  20.724  0.00  0.00    +0.000 NA
ATOM     10  N   UNL     1       1.268   8.505  20.214  0.00  0.00    +0.000 NA
ATOM     11  C   UNL     1       1.820   8.834  19.017  0.00  0.00    +0.000 A 
ATOM     12  N   UNL     1       2.558   8.027  18.228  0.00  0.00    +0.000 NA
ATOM     13  C   UNL     1       2.708   6.815  18.788  0.00  0.00    +0.000 A 
ENDROOT
BRANCH  11  14
ATOM     14  S   UNL     1       1.569  10.494  18.446  0.00  0.00    +0.000 S 
ATOM     15  H   UNL     1       2.522  10.419  17.510  0.00  0.00    +0.000 HD
ENDBRANCH  11  14
BRANCH   1  16
ATOM     16  C   UNL     1       4.216   5.844  17.047  0.00  0.00    +0.000 C 
BRANCH  16  17
ATOM     17  C   UNL     1       5.705   6.131  17.310  0.00  0.00    +0.000 C 
BRANCH  17  18
ATOM     18  N   UNL     1       6.664   5.156  16.743  0.00  0.00    +0.000 NA
BRANCH  18  20
ATOM     19  C   UNL     1       7.643   5.649  19.029  0.00  0.00    +0.000 C 
ATOM     20  C   UNL     1       7.591   4.731  17.813  0.00  0.00    +0.000 C 
ENDBRANCH  18  20
BRANCH  18  21
ATOM     21  C   UNL     1       6.033   4.044  16.021  0.00  0.00    +0.000 C 
ATOM     22  C   UNL     1       6.255   4.012  14.513  0.00  0.00    +0.000 C 
ENDBRANCH  18  21
ENDBRANCH  17  18
ENDBRANCH  16  17
ENDBRANCH   1  16
TORSDOF 6
ENDMDL
MODEL 2
REMARK VINA RESULT:      -6.5      1.800      4.697
REMARK  Name = 
REMARK  8 active torsions:
REMARK  status: ('A' for Active; 'I' for Inactive)
REMARK    1  A    between atoms: C_1  and  C_2
REMARK    2  A    between atoms: C_2  and  N_3
REMARK    3  A    between atoms: N_3  and  C_4
REMARK    4  A    between atoms: N_3  and  C_6
REMARK    5  A    between atoms: C_4  and  C_5
REMARK    6  A    between atoms: C_6  and  C_7
REMARK    7  A    between atoms: C_7  and  N_8
REMARK    8  A    between atoms: C_18  and  S_19
REMARK                            x       y       z     vdW  Elec       q    Type
REMARK                         _______ _______ _______ _____ _____    ______ ____
ROOT
ATOM      1  N   UNL     1       4.539   4.645  18.436  0.00  0.00    +0.000 N 
ATOM      2  C   UNL     1       5.178   4.741  17.210  0.00  0.00    +0.000 A 
ATOM      3  C   UNL     1       6.050   3.866  16.542  0.00  0.00    +0.000 A 
ATOM      4  C   UNL     1       6.539   4.246  15.287  0.00  0.00    +0.000 A 
ATOM      5  C   UNL     1       6.168   5.455  14.707  0.00  0.00    +0.000 A 
ATOM      6  C   UNL     1       5.299   6.324  15.373  0.00  0.00    +0.000 A 
ATOM      7  C   UNL     1       4.795   5.967  16.641  0.00  0.00    +0.000 A 
ATOM      8  C   UNL     1       3.921   6.598  17.564  0.00  0.00    +0.000 A 
ATOM      9  N   UNL     1       3.248   7.777  17.519  0.00  0.00    +0.000 NA
ATOM     10  N   UNL     1       2.480   8.063  18.569  0.00  0.00    +0.000 NA
ATOM     11  C   UNL     1       2.405   7.214  19.627  0.00  0.00    +0.000 A 
ATOM     12  N   UNL     1       3.051   6.037  19.754  0.00  0.00    +0.000 NA
ATOM     13  C   UNL     1       3.797   5.778  18.666  0.00  0.00    +0.000 A 
ENDROOT
BRANCH  11  14
ATOM     14  S   UNL     1       1.332   7.682  20.958  0.00  0.00    +0.000 S 
ATOM     15  H   UNL     1       0.317   8.012  20.151  0.00  0.00    +0.000 HD
ENDBRANCH  11  14
BRANCH   1  16
ATOM     16  C   UNL     1       4.598   3.515  19.360  0.00  0.00    +0.000 C 
BRANCH  16  17
ATOM     17  C   UNL     1       3.741   2.331  18.879  0.00  0.00    +0.000 C 
BRANCH  17  18
ATOM     18  N   UNL     1       2.545   2.021  19.694  0.00  0.00    +0.000 NA
BRANCH  18  20
ATOM     19  C   UNL     1       1.452   3.177  21.668  0.00  0.00    +0.000 C 
ATOM     20  C   UNL     1       2.721   2.617  21.036  0.00  0.00    +0.000 C 
ENDBRANCH  18  20
BRANCH  18  21
ATOM     21  C   UNL     1       1.272   2.369  19.048  0.00  0.00    +0.000 C 
ATOM     22  C   UNL     1       1.357   3.360  17.893  0.00  0.00    +0.000 C 
ENDBRANCH  18  21
ENDBRANCH  17  18
ENDBRANCH  16  17
ENDBRANCH   1  16
TORSDOF 6
ENDMDL
MODEL 3
REMARK VINA RESULT:      -6.5      2.894      5.336
REMARK  Name = 
REMARK  8 active torsions:
REMARK  status: ('A' for Active; 'I' for Inactive)
REMARK    1  A    between atoms: C_1  and  C_2
REMARK    2  A    between atoms: C_2  and  N_3
REMARK    3  A    between atoms: N_3  and  C_4
REMARK    4  A    between atoms: N_3  and  C_6
REMARK    5  A    between atoms: C_4  and  C_5
REMARK    6  A    between atoms: C_6  and  C_7
REMARK    7  A    between atoms: C_7  and  N_8
REMARK    8  A    between atoms: C_18  and  S_19
REMARK                            x       y       z     vdW  Elec       q    Type
REMARK                         _______ _______ _______ _____ _____    ______ ____
ROOT
ATOM      1  N   UNL     1       4.225   5.091  18.491  0.00  0.00    +0.000 N 
ATOM      2  C   UNL     1       3.382   6.113  18.898  0.00  0.00    +0.000 A 
ATOM      3  C   UNL     1       2.606   6.275  20.059  0.00  0.00    +0.000 A 
ATOM      4  C   UNL     1       1.846   7.442  20.190  0.00  0.00    +0.000 A 
ATOM      5  C   UNL     1       1.858   8.423  19.205  0.00  0.00    +0.000 A 
ATOM      6  C   UNL     1       2.632   8.261  18.052  0.00  0.00    +0.000 A 
ATOM      7  C   UNL     1       3.404   7.092  17.892  0.00  0.00    +0.000 A 
ATOM      8  C   UNL     1       4.274   6.622  16.874  0.00  0.00    +0.000 A 
ATOM      9  N   UNL     1       4.675   7.166  15.696  0.00  0.00    +0.000 NA
ATOM     10  N   UNL     1       5.534   6.451  14.973  0.00  0.00    +0.000 NA
ATOM     11  C   UNL     1       5.959   5.234  15.402  0.00  0.00    +0.000 A 
ATOM     12  N   UNL     1       5.598   4.620  16.546  0.00  0.00    +0.000 NA
ATOM     13  C   UNL     1       4.748   5.383  17.254  0.00  0.00    +0.000 A 
ENDROOT
BRANCH  11  14
ATOM     14  S   UNL     1       7.123   4.381  14.372  0.00  0.00    +0.000 S 
ATOM     15  H   UNL     1       7.043   5.273  13.378  0.00  0.00    +0.000 HD
ENDBRANCH  11  14
BRANCH   1  16
ATOM     16  C   UNL     1       4.554   3.884  19.245  0.00  0.00    +0.000 C 
BRANCH  16  17
ATOM     17  C   UNL     1       3.828   2.644  18.695  0.00  0.00    +0.000 C 
BRANCH  17  18
ATOM     18  N   UNL     1       2.722   2.117  19.526  0.00  0.00    +0.000 NA
BRANCH  18  20
ATOM     19  C   UNL     1       1.545   2.582  21.721  0.00  0.00    +0.000 C 
ATOM     20  C   UNL     1       2.790   2.752  20.859  0.00  0.00    +0.000 C 
ENDBRANCH  18  20
BRANCH  18  21
ATOM     21  C   UNL     1       1.401   2.202  18.889  0.00  0.00    +0.000 C 
ATOM     22  C   UNL     1       1.088   3.508  18.166  0.00  0.00    +0.000 C 
ENDBRANCH  18  21
ENDBRANCH  17  18
ENDBRANCH  16  17
ENDBRANCH   1  16
TORSDOF 6
ENDMDL
MODEL 4
REMARK VINA RESULT:      -6.5      0.350      1.720
REMARK  Name = 
REMARK  8 active torsions:
REMARK  status: ('A' for Active; 'I' for Inactive)
REMARK    1  A    between atoms: C_1  and  C_2
REMARK    2  A    between atoms: C_2  and  N_3
REMARK    3  A    between atoms: N_3  and  C_4
REMARK    4  A    between atoms: N_3  and  C_6
REMARK    5  A    between atoms: C_4  and  C_5
REMARK    6  A    between atoms: C_6  and  C_7
REMARK    7  A    between atoms: C_7  and  N_8
REMARK    8  A    between atoms: C_18  and  S_19
REMARK                            x       y       z     vdW  Elec       q    Type
REMARK                         _______ _______ _______ _____ _____    ______ ____
ROOT
ATOM      1  N   UNL     1       3.313   5.863  18.321  0.00  0.00    +0.000 N 
ATOM      2  C   UNL     1       3.226   4.763  19.159  0.00  0.00    +0.000 A 
ATOM      3  C   UNL     1       3.762   3.468  19.056  0.00  0.00    +0.000 A 
ATOM      4  C   UNL     1       3.499   2.558  20.086  0.00  0.00    +0.000 A 
ATOM      5  C   UNL     1       2.732   2.921  21.188  0.00  0.00    +0.000 A 
ATOM      6  C   UNL     1       2.201   4.210  21.289  0.00  0.00    +0.000 A 
ATOM      7  C   UNL     1       2.447   5.146  20.263  0.00  0.00    +0.000 A 
ATOM      8  C   UNL     1       2.068   6.497  20.055  0.00  0.00    +0.000 A 
ATOM      9  N   UNL     1       1.340   7.363  20.805  0.00  0.00    +0.000 NA
ATOM     10  N   UNL     1       1.188   8.592  20.314  0.00  0.00    +0.000 NA
ATOM     11  C   UNL     1       1.726   8.933  19.115  0.00  0.00    +0.000 A 
ATOM     12  N   UNL     1       2.447   8.130  18.306  0.00  0.00    +0.000 NA
ATOM     13  C   UNL     1       2.593   6.908  18.847  0.00  0.00    +0.000 A 
ENDROOT
BRANCH  11  14
ATOM     14  S   UNL     1       1.484  10.603  18.571  0.00  0.00    +0.000 S 
ATOM     15  H   UNL     1       1.833  10.342  17.306  0.00  0.00    +0.000 HD
ENDBRANCH  11  14
BRANCH   1  16
ATOM     16  C   UNL     1       4.068   5.947  17.073  0.00  0.00    +0.000 C 
BRANCH  16  17
ATOM     17  C   UNL     1       5.577   6.124  17.323  0.00  0.00    +0.000 C 
BRANCH  17  18
ATOM     18  N   UNL     1       6.429   4.957  17.004  0.00  0.00    +0.000 NA
BRANCH  18  20
ATOM     19  C   UNL     1       6.092   4.142  14.628  0.00  0.00    +0.000 C 
ATOM     20  C   UNL     1       6.849   5.051  15.590  0.00  0.00    +0.000 C 
ENDBRANCH  18  20
BRANCH  18  21
ATOM     21  C   UNL     1       7.538   4.750  17.945  0.00  0.00    +0.000 C 
ATOM     22  C   UNL     1       7.776   5.866  18.956  0.00  0.00    +0.000 C 
ENDBRANCH  18  21
ENDBRANCH  17  18
ENDBRANCH  16  17
ENDBRANCH   1  16
TORSDOF 6
ENDMDL
MODEL 5
REMARK VINA RESULT:      -6.3      1.025      1.328
REMARK  Name = 
REMARK  8 active torsions:
REMARK  status: ('A' for Active; 'I' for Inactive)
REMARK    1  A    between atoms: C_1  and  C_2
REMARK    2  A    between atoms: C_2  and  N_3
REMARK    3  A    between atoms: N_3  and  C_4
REMARK    4  A    between atoms: N_3  and  C_6
REMARK    5  A    between atoms: C_4  and  C_5
REMARK    6  A    between atoms: C_6  and  C_7
REMARK    7  A    between atoms: C_7  and  N_8
REMARK    8  A    between atoms: C_18  and  S_19
REMARK                            x       y       z     vdW  Elec       q    Type
REMARK                         _______ _______ _______ _____ _____    ______ ____
ROOT
ATOM      1  N   UNL     1       3.664   5.793  18.029  0.00  0.00    +0.000 N 
ATOM      2  C   UNL     1       3.634   4.678  18.853  0.00  0.00    +0.000 A 
ATOM      3  C   UNL     1       4.243   3.417  18.738  0.00  0.00    +0.000 A 
ATOM      4  C   UNL     1       4.026   2.481  19.755  0.00  0.00    +0.000 A 
ATOM      5  C   UNL     1       3.235   2.787  20.857  0.00  0.00    +0.000 A 
ATOM      6  C   UNL     1       2.632   4.043  20.971  0.00  0.00    +0.000 A 
ATOM      7  C   UNL     1       2.830   5.003  19.957  0.00  0.00    +0.000 A 
ATOM      8  C   UNL     1       2.376   6.334  19.763  0.00  0.00    +0.000 A 
ATOM      9  N   UNL     1       1.597   7.149  20.520  0.00  0.00    +0.000 NA
ATOM     10  N   UNL     1       1.378   8.373  20.043  0.00  0.00    +0.000 NA
ATOM     11  C   UNL     1       1.903   8.758  18.851  0.00  0.00    +0.000 A 
ATOM     12  N   UNL     1       2.671   8.007  18.036  0.00  0.00    +0.000 NA
ATOM     13  C   UNL     1       2.883   6.789  18.564  0.00  0.00    +0.000 A 
ENDROOT
BRANCH  11  14
ATOM     14  S   UNL     1       1.570  10.419  18.326  0.00  0.00    +0.000 S 
ATOM     15  H   UNL     1       2.797  10.861  18.625  0.00  0.00    +0.000 HD
ENDBRANCH  11  14
BRANCH   1  16
ATOM     16  C   UNL     1       4.419   5.935  16.787  0.00  0.00    +0.000 C 
BRANCH  16  17
ATOM     17  C   UNL     1       5.477   7.048  16.879  0.00  0.00    +0.000 C 
BRANCH  17  18
ATOM     18  N   UNL     1       6.886   6.621  16.723  0.00  0.00    +0.000 NA
BRANCH  18  20
ATOM     19  C   UNL     1       7.921   8.684  17.770  0.00  0.00    +0.000 C 
ATOM     20  C   UNL     1       7.674   7.181  17.841  0.00  0.00    +0.000 C 
ENDBRANCH  18  20
BRANCH  18  21
ATOM     21  C   UNL     1       7.056   5.174  16.537  0.00  0.00    +0.000 C 
ATOM     22  C   UNL     1       7.746   4.429  17.675  0.00  0.00    +0.000 C 
ENDBRANCH  18  21
ENDBRANCH  17  18
ENDBRANCH  16  17
ENDBRANCH   1  16
TORSDOF 6
ENDMDL
MODEL 6
REMARK VINA RESULT:      -6.3      2.361      4.038
REMARK  Name = 
REMARK  8 active torsions:
REMARK  status: ('A' for Active; 'I' for Inactive)
REMARK    1  A    between atoms: C_1  and  C_2
REMARK    2  A    between atoms: C_2  and  N_3
REMARK    3  A    between atoms: N_3  and  C_4
REMARK    4  A    between atoms: N_3  and  C_6
REMARK    5  A    between atoms: C_4  and  C_5
REMARK    6  A    between atoms: C_6  and  C_7
REMARK    7  A    between atoms: C_7  and  N_8
REMARK    8  A    between atoms: C_18  and  S_19
REMARK                            x       y       z     vdW  Elec       q    Type
REMARK                         _______ _______ _______ _____ _____    ______ ____
ROOT
ATOM      1  N   UNL     1       3.584   6.587  17.948  0.00  0.00    +0.000 N 
ATOM      2  C   UNL     1       2.800   7.680  18.282  0.00  0.00    +0.000 A 
ATOM      3  C   UNL     1       2.623   8.927  17.658  0.00  0.00    +0.000 A 
ATOM      4  C   UNL     1       1.741   9.842  18.243  0.00  0.00    +0.000 A 
ATOM      5  C   UNL     1       1.050   9.530  19.409  0.00  0.00    +0.000 A 
ATOM      6  C   UNL     1       1.225   8.289  20.027  0.00  0.00    +0.000 A 
ATOM      7  C   UNL     1       2.111   7.349  19.461  0.00  0.00    +0.000 A 
ATOM      8  C   UNL     1       2.514   6.037  19.822  0.00  0.00    +0.000 A 
ATOM      9  N   UNL     1       2.152   5.225  20.849  0.00  0.00    +0.000 NA
ATOM     10  N   UNL     1       2.719   4.020  20.881  0.00  0.00    +0.000 NA
ATOM     11  C   UNL     1       3.621   3.651  19.935  0.00  0.00    +0.000 A 
ATOM     12  N   UNL     1       4.043   4.402  18.897  0.00  0.00    +0.000 NA
ATOM     13  C   UNL     1       3.433   5.599  18.891  0.00  0.00    +0.000 A 
ENDROOT
BRANCH  11  14
ATOM     14  S   UNL     1       4.292   2.015  20.060  0.00  0.00    +0.000 S 
ATOM     15  H   UNL     1       3.319   1.574  20.866  0.00  0.00    +0.000 HD
ENDBRANCH  11  14
BRANCH   1  16
ATOM     16  C   UNL     1       4.433   6.456  16.767  0.00  0.00    +0.000 C 
BRANCH  16  17
ATOM     17  C   UNL     1       5.929   6.536  17.121  0.00  0.00    +0.000 C 
BRANCH  17  18
ATOM     18  N   UNL     1       6.769   5.410  16.654  0.00  0.00    +0.000 NA
BRANCH  18  20
ATOM     19  C   UNL     1       7.619   5.815  19.007  0.00  0.00    +0.000 C 
ATOM     20  C   UNL     1       7.532   4.882  17.804  0.00  0.00    +0.000 C 
ENDBRANCH  18  20
BRANCH  18  21
ATOM     21  C   UNL     1       6.032   4.384  15.903  0.00  0.00    +0.000 C 
ATOM     22  C   UNL     1       6.394   4.245  14.429  0.00  0.00    +0.000 C 
ENDBRANCH  18  21
ENDBRANCH  17  18
ENDBRANCH  16  17
ENDBRANCH   1  16
TORSDOF 6
ENDMDL
MODEL 7
REMARK VINA RESULT:      -6.2      2.682      5.536
REMARK  Name = 
REMARK  8 active torsions:
REMARK  status: ('A' for Active; 'I' for Inactive)
REMARK    1  A    between atoms: C_1  and  C_2
REMARK    2  A    between atoms: C_2  and  N_3
REMARK    3  A    between atoms: N_3  and  C_4
REMARK    4  A    between atoms: N_3  and  C_6
REMARK    5  A    between atoms: C_4  and  C_5
REMARK    6  A    between atoms: C_6  and  C_7
REMARK    7  A    between atoms: C_7  and  N_8
REMARK    8  A    between atoms: C_18  and  S_19
REMARK                            x       y       z     vdW  Elec       q    Type
REMARK                         _______ _______ _______ _____ _____    ______ ____
ROOT
ATOM      1  N   UNL     1       3.757   5.949  18.984  0.00  0.00    +0.000 N 
ATOM      2  C   UNL     1       2.885   7.017  19.121  0.00  0.00    +0.000 A 
ATOM      3  C   UNL     1       2.035   7.398  20.173  0.00  0.00    +0.000 A 
ATOM      4  C   UNL     1       1.263   8.554  20.016  0.00  0.00    +0.000 A 
ATOM      5  C   UNL     1       1.335   9.315  18.854  0.00  0.00    +0.000 A 
ATOM      6  C   UNL     1       2.182   8.935  17.809  0.00  0.00    +0.000 A 
ATOM      7  C   UNL     1       2.968   7.772  17.939  0.00  0.00    +0.000 A 
ATOM      8  C   UNL     1       3.904   7.119  17.095  0.00  0.00    +0.000 A 
ATOM      9  N   UNL     1       4.378   7.420  15.859  0.00  0.00    +0.000 NA
ATOM     10  N   UNL     1       5.286   6.588  15.351  0.00  0.00    +0.000 NA
ATOM     11  C   UNL     1       5.687   5.491  16.045  0.00  0.00    +0.000 A 
ATOM     12  N   UNL     1       5.256   5.116  17.266  0.00  0.00    +0.000 NA
ATOM     13  C   UNL     1       4.358   5.993  17.749  0.00  0.00    +0.000 A 
ENDROOT
BRANCH  11  14
ATOM     14  S   UNL     1       6.920   4.467  15.286  0.00  0.00    +0.000 S 
ATOM     15  H   UNL     1       7.837   5.440  15.239  0.00  0.00    +0.000 HD
ENDBRANCH  11  14
BRANCH   1  16
ATOM     16  C   UNL     1       4.042   4.926  19.987  0.00  0.00    +0.000 C 
BRANCH  16  17
ATOM     17  C   UNL     1       3.228   3.642  19.750  0.00  0.00    +0.000 C 
BRANCH  17  18
ATOM     18  N   UNL     1       1.791   3.830  19.449  0.00  0.00    +0.000 NA
BRANCH  18  20
ATOM     19  C   UNL     1       2.609   2.551  17.419  0.00  0.00    +0.000 C 
ATOM     20  C   UNL     1       1.552   3.459  18.038  0.00  0.00    +0.000 C 
ENDBRANCH  18  20
BRANCH  18  21
ATOM     21  C   UNL     1       0.888   3.170  20.402  0.00  0.00    +0.000 C 
ATOM     22  C   UNL     1       1.533   2.635  21.675  0.00  0.00    +0.000 C 
ENDBRANCH  18  21
ENDBRANCH  17  18
ENDBRANCH  16  17
ENDBRANCH   1  16
TORSDOF 6
ENDMDL
MODEL 8
REMARK VINA RESULT:      -6.2      2.287      5.554
REMARK  Name = 
REMARK  8 active torsions:
REMARK  status: ('A' for Active; 'I' for Inactive)
REMARK    1  A    between atoms: C_1  and  C_2
REMARK    2  A    between atoms: C_2  and  N_3
REMARK    3  A    between atoms: N_3  and  C_4
REMARK    4  A    between atoms: N_3  and  C_6
REMARK    5  A    between atoms: C_4  and  C_5
REMARK    6  A    between atoms: C_6  and  C_7
REMARK    7  A    between atoms: C_7  and  N_8
REMARK    8  A    between atoms: C_18  and  S_19
REMARK                            x       y       z     vdW  Elec       q    Type
REMARK                         _______ _______ _______ _____ _____    ______ ____
ROOT
ATOM      1  N   UNL     1       2.947   5.889  19.160  0.00  0.00    +0.000 N 
ATOM      2  C   UNL     1       2.431   4.768  19.791  0.00  0.00    +0.000 A 
ATOM      3  C   UNL     1       1.147   4.485  20.287  0.00  0.00    +0.000 A 
ATOM      4  C   UNL     1       0.925   3.237  20.879  0.00  0.00    +0.000 A 
ATOM      5  C   UNL     1       1.943   2.294  20.973  0.00  0.00    +0.000 A 
ATOM      6  C   UNL     1       3.219   2.576  20.477  0.00  0.00    +0.000 A 
ATOM      7  C   UNL     1       3.471   3.829  19.878  0.00  0.00    +0.000 A 
ATOM      8  C   UNL     1       4.618   4.424  19.293  0.00  0.00    +0.000 A 
ATOM      9  N   UNL     1       5.880   3.963  19.092  0.00  0.00    +0.000 NA
ATOM     10  N   UNL     1       6.725   4.792  18.480  0.00  0.00    +0.000 NA
ATOM     11  C   UNL     1       6.328   6.034  18.102  0.00  0.00    +0.000 A 
ATOM     12  N   UNL     1       5.103   6.569  18.278  0.00  0.00    +0.000 NA
ATOM     13  C   UNL     1       4.278   5.695  18.879  0.00  0.00    +0.000 A 
ENDROOT
BRANCH  11  14
ATOM     14  S   UNL     1       7.527   7.042  17.271  0.00  0.00    +0.000 S 
ATOM     15  H   UNL     1       7.658   7.895  18.294  0.00  0.00    +0.000 HD
ENDBRANCH  11  14
BRANCH   1  16
ATOM     16  C   UNL     1       2.213   7.101  18.806  0.00  0.00    +0.000 C 
BRANCH  16  17
ATOM     17  C   UNL     1       1.859   7.944  20.044  0.00  0.00    +0.000 C 
BRANCH  17  18
ATOM     18  N   UNL     1       1.308   9.292  19.777  0.00  0.00    +0.000 NA
BRANCH  18  20
ATOM     19  C   UNL     1      -0.305   9.948  17.936  0.00  0.00    +0.000 C 
ATOM     20  C   UNL     1       1.073   9.426  18.324  0.00  0.00    +0.000 C 
ENDBRANCH  18  20
BRANCH  18  21
ATOM     21  C   UNL     1       0.145   9.638  20.605  0.00  0.00    +0.000 C 
ATOM     22  C   UNL     1      -0.268   8.603  21.646  0.00  0.00    +0.000 C 
ENDBRANCH  18  21
ENDBRANCH  17  18
ENDBRANCH  16  17
ENDBRANCH   1  16
TORSDOF 6
ENDMDL
MODEL 9
REMARK VINA RESULT:      -6.1      1.884      4.584
REMARK  Name = 
REMARK  8 active torsions:
REMARK  status: ('A' for Active; 'I' for Inactive)
REMARK    1  A    between atoms: C_1  and  C_2
REMARK    2  A    between atoms: C_2  and  N_3
REMARK    3  A    between atoms: N_3  and  C_4
REMARK    4  A    between atoms: N_3  and  C_6
REMARK    5  A    between atoms: C_4  and  C_5
REMARK    6  A    between atoms: C_6  and  C_7
REMARK    7  A    between atoms: C_7  and  N_8
REMARK    8  A    between atoms: C_18  and  S_19
REMARK                            x       y       z     vdW  Elec       q    Type
REMARK                         _______ _______ _______ _____ _____    ______ ____
ROOT
ATOM      1  N   UNL     1       2.813   6.317  19.374  0.00  0.00    +0.000 N 
ATOM      2  C   UNL     1       3.740   5.955  18.410  0.00  0.00    +0.000 A 
ATOM      3  C   UNL     1       4.522   4.798  18.256  0.00  0.00    +0.000 A 
ATOM      4  C   UNL     1       5.380   4.718  17.154  0.00  0.00    +0.000 A 
ATOM      5  C   UNL     1       5.457   5.752  16.227  0.00  0.00    +0.000 A 
ATOM      6  C   UNL     1       4.678   6.902  16.380  0.00  0.00    +0.000 A 
ATOM      7  C   UNL     1       3.807   7.010  17.485  0.00  0.00    +0.000 A 
ATOM      8  C   UNL     1       2.904   8.010  17.930  0.00  0.00    +0.000 A 
ATOM      9  N   UNL     1       2.557   9.217  17.413  0.00  0.00    +0.000 NA
ATOM     10  N   UNL     1       1.641   9.911  18.088  0.00  0.00    +0.000 NA
ATOM     11  C   UNL     1       1.111   9.424  19.240  0.00  0.00    +0.000 A 
ATOM     12  N   UNL     1       1.412   8.247  19.824  0.00  0.00    +0.000 NA
ATOM     13  C   UNL     1       2.323   7.571  19.101  0.00  0.00    +0.000 A 
ENDROOT
BRANCH  11  14
ATOM     14  S   UNL     1      -0.119  10.420  20.041  0.00  0.00    +0.000 S 
ATOM     15  H   UNL     1      -1.133   9.904  19.336  0.00  0.00    +0.000 HD
ENDBRANCH  11  14
BRANCH   1  16
ATOM     16  C   UNL     1       2.377   5.506  20.508  0.00  0.00    +0.000 C 
BRANCH  16  17
ATOM     17  C   UNL     1       1.067   4.755  20.210  0.00  0.00    +0.000 C 
BRANCH  17  18
ATOM     18  N   UNL     1       1.205   3.327  19.847  0.00  0.00    +0.000 NA
BRANCH  18  20
ATOM     19  C   UNL     1       2.252   2.251  17.805  0.00  0.00    +0.000 C 
ATOM     20  C   UNL     1       1.216   3.214  18.373  0.00  0.00    +0.000 C 
ENDBRANCH  18  20
BRANCH  18  21
ATOM     21  C   UNL     1       2.326   2.646  20.507  0.00  0.00    +0.000 C 
ATOM     22  C   UNL     1       2.130   2.307  21.981  0.00  0.00    +0.000 C 
ENDBRANCH  18  21
ENDBRANCH  17  18
ENDBRANCH  16  17
ENDBRANCH   1  16
TORSDOF 6
ENDMDL
