MODEL 1
REMARK VINA RESULT:      -6.7      0.000      0.000
REMARK  Name = 
REMARK  11 active torsions:
REMARK  status: ('A' for Active; 'I' for Inactive)
REMARK    1  A    between atoms: C_1  and  O_2
REMARK    2  A    between atoms: O_2  and  C_3
REMARK    3  A    between atoms: C_3  and  C_4
REMARK    4  A    between atoms: C_4  and  C_5
REMARK    5  A    between atoms: C_5  and  C_6
REMARK    6  A    between atoms: C_6  and  N_7
REMARK    7  A    between atoms: C_8  and  C_10
REMARK    8  A    between atoms: C_11  and  C_12
REMARK    9  A    between atoms: C_12  and  C_13
REMARK   10  A    between atoms: C_12  and  C_14
REMARK   11  A    between atoms: N_16  and  C_17
REMARK                            x       y       z     vdW  Elec       q    Type
REMARK                         _______ _______ _______ _____ _____    ______ ____
ROOT
ATOM      1  N   UNL     1       3.787   5.560  17.271  0.00  0.00    +0.000 N 
ATOM      2  C   UNL     1       4.349   4.528  16.556  0.00  0.00    +0.000 C 
ATOM      3  O   UNL     1       3.865   3.403  16.510  0.00  0.00    +0.000 OA
ATOM      4  H   UNL     1       4.238   6.465  17.258  0.00  0.00    +0.000 HD
ENDROOT
BRANCH   2   5
ATOM      5  C   UNL     1       5.565   4.877  15.834  0.00  0.00    +0.000 A 
ATOM      6  C   UNL     1       6.690   5.640  16.287  0.00  0.00    +0.000 A 
ATOM      7  N   UNL     1       7.632   5.757  15.335  0.00  0.00    +0.000 NA
ATOM      8  N   UNL     1       7.107   5.131  14.267  0.00  0.00    +0.000 N 
ATOM      9  C   UNL     1       7.833   5.141  13.018  0.00  0.00    +0.000 C 
ATOM     10  C   UNL     1       5.897   4.570  14.532  0.00  0.00    +0.000 A 
ATOM     11 CL   UNL     1       5.071   3.713  13.308  0.00  0.00    +0.000 Cl
BRANCH   6  12
ATOM     12  C   UNL     1       6.936   6.233  17.656  0.00  0.00    +0.000 C 
ATOM     13  C   UNL     1       7.725   5.263  18.540  0.00  0.00    +0.000 C 
ATOM     14  C   UNL     1       7.666   7.581  17.599  0.00  0.00    +0.000 C 
ENDBRANCH   6  12
ENDBRANCH   2   5
BRANCH   1  15
ATOM     15  C   UNL     1       2.604   5.411  18.098  0.00  0.00    +0.000 C 
BRANCH  15  16
ATOM     16  C   UNL     1       2.938   5.030  19.542  0.00  0.00    +0.000 C 
BRANCH  16  17
ATOM     17  C   UNL     1       2.276   3.748  20.025  0.00  0.00    +0.000 C 
ATOM     18  C   UNL     1       1.008   3.277  19.337  0.00  0.00    +0.000 C 
ATOM     19  C   UNL     1       0.924   3.896  20.702  0.00  0.00    +0.000 C 
BRANCH  17  20
ATOM     20  C   UNL     1       3.216   2.698  20.583  0.00  0.00    +0.000 C 
BRANCH  20  22
ATOM     21  C   UNL     1       3.949   1.302  18.840  0.00  0.00    +0.000 C 
ATOM     22  O   UNL     1       4.241   2.450  19.623  0.00  0.00    +0.000 OA
ENDBRANCH  20  22
ENDBRANCH  17  20
ENDBRANCH  16  17
ENDBRANCH  15  16
ENDBRANCH   1  15
TORSDOF 7
ENDMDL
MODEL 2
REMARK VINA RESULT:      -6.4      1.638      2.570
REMARK  Name = 
REMARK  11 active torsions:
REMARK  status: ('A' for Active; 'I' for Inactive)
REMARK    1  A    between atoms: C_1  and  O_2
REMARK    2  A    between atoms: O_2  and  C_3
REMARK    3  A    between atoms: C_3  and  C_4
REMARK    4  A    between atoms: C_4  and  C_5
REMARK    5  A    between atoms: C_5  and  C_6
REMARK    6  A    between atoms: C_6  and  N_7
REMARK    7  A    between atoms: C_8  and  C_10
REMARK    8  A    between atoms: C_11  and  C_12
REMARK    9  A    between atoms: C_12  and  C_13
REMARK   10  A    between atoms: C_12  and  C_14
REMARK   11  A    between atoms: N_16  and  C_17
REMARK                            x       y       z     vdW  Elec       q    Type
REMARK                         _______ _______ _______ _____ _____    ______ ____
ROOT
ATOM      1  N   UNL     1       3.719   4.092  16.788  0.00  0.00    +0.000 N 
ATOM      2  C   UNL     1       5.005   4.098  17.278  0.00  0.00    +0.000 C 
ATOM      3  O   UNL     1       5.310   3.620  18.365  0.00  0.00    +0.000 OA
ATOM      4  H   UNL     1       3.542   4.498  15.880  0.00  0.00    +0.000 HD
ENDROOT
BRANCH   2   5
ATOM      5  C   UNL     1       5.992   4.704  16.395  0.00  0.00    +0.000 A 
ATOM      6  C   UNL     1       6.884   5.794  16.660  0.00  0.00    +0.000 A 
ATOM      7  N   UNL     1       7.656   6.079  15.597  0.00  0.00    +0.000 NA
ATOM      8  N   UNL     1       7.237   5.230  14.643  0.00  0.00    +0.000 N 
ATOM      9  C   UNL     1       7.806   5.322  13.318  0.00  0.00    +0.000 C 
ATOM     10  C   UNL     1       6.274   4.378  15.085  0.00  0.00    +0.000 A 
ATOM     11 CL   UNL     1       5.620   3.208  14.027  0.00  0.00    +0.000 Cl
BRANCH   6  12
ATOM     12  C   UNL     1       7.076   6.562  17.948  0.00  0.00    +0.000 C 
ATOM     13  C   UNL     1       7.874   5.740  18.964  0.00  0.00    +0.000 C 
ATOM     14  C   UNL     1       7.762   7.918  17.736  0.00  0.00    +0.000 C 
ENDBRANCH   6  12
ENDBRANCH   2   5
BRANCH   1  15
ATOM     15  C   UNL     1       2.582   3.582  17.531  0.00  0.00    +0.000 C 
BRANCH  15  16
ATOM     16  C   UNL     1       1.684   4.697  18.072  0.00  0.00    +0.000 C 
BRANCH  16  17
ATOM     17  C   UNL     1       2.211   5.376  19.328  0.00  0.00    +0.000 C 
ATOM     18  C   UNL     1       2.733   4.511  20.461  0.00  0.00    +0.000 C 
ATOM     19  C   UNL     1       1.397   5.182  20.597  0.00  0.00    +0.000 C 
BRANCH  17  20
ATOM     20  C   UNL     1       2.848   6.735  19.117  0.00  0.00    +0.000 C 
BRANCH  20  22
ATOM     21  C   UNL     1       2.687   8.662  17.781  0.00  0.00    +0.000 C 
ATOM     22  O   UNL     1       2.023   7.490  18.233  0.00  0.00    +0.000 OA
ENDBRANCH  20  22
ENDBRANCH  17  20
ENDBRANCH  16  17
ENDBRANCH  15  16
ENDBRANCH   1  15
TORSDOF 7
ENDMDL
MODEL 3
REMARK VINA RESULT:      -6.3      1.184      1.295
REMARK  Name = 
REMARK  11 active torsions:
REMARK  status: ('A' for Active; 'I' for Inactive)
REMARK    1  A    between atoms: C_1  and  O_2
REMARK    2  A    between atoms: O_2  and  C_3
REMARK    3  A    between atoms: C_3  and  C_4
REMARK    4  A    between atoms: C_4  and  C_5
REMARK    5  A    between atoms: C_5  and  C_6
REMARK    6  A    between atoms: C_6  and  N_7
REMARK    7  A    between atoms: C_8  and  C_10
REMARK    8  A    between atoms: C_11  and  C_12
REMARK    9  A    between atoms: C_12  and  C_13
REMARK   10  A    between atoms: C_12  and  C_14
REMARK   11  A    between atoms: N_16  and  C_17
REMARK                            x       y       z     vdW  Elec       q    Type
REMARK                         _______ _______ _______ _____ _____    ______ ____
ROOT
ATOM      1  N   UNL     1       3.574   3.753  16.644  0.00  0.00    +0.000 N 
ATOM      2  C   UNL     1       4.164   4.990  16.776  0.00  0.00    +0.000 C 
ATOM      3  O   UNL     1       3.679   5.895  17.446  0.00  0.00    +0.000 OA
ATOM      4  H   UNL     1       4.034   3.052  16.081  0.00  0.00    +0.000 HD
ENDROOT
BRANCH   2   5
ATOM      5  C   UNL     1       5.429   5.142  16.070  0.00  0.00    +0.000 A 
ATOM      6  C   UNL     1       6.621   5.809  16.501  0.00  0.00    +0.000 A 
ATOM      7  N   UNL     1       7.594   5.745  15.575  0.00  0.00    +0.000 NA
ATOM      8  N   UNL     1       7.028   5.098  14.541  0.00  0.00    +0.000 N 
ATOM      9  C   UNL     1       7.780   4.927  13.320  0.00  0.00    +0.000 C 
ATOM     10  C   UNL     1       5.756   4.697  14.807  0.00  0.00    +0.000 A 
ATOM     11 CL   UNL     1       4.868   3.842  13.626  0.00  0.00    +0.000 Cl
BRANCH   6  12
ATOM     12  C   UNL     1       6.900   6.479  17.828  0.00  0.00    +0.000 C 
ATOM     13  C   UNL     1       7.639   5.531  18.777  0.00  0.00    +0.000 C 
ATOM     14  C   UNL     1       7.698   7.781  17.683  0.00  0.00    +0.000 C 
ENDBRANCH   6  12
ENDBRANCH   2   5
BRANCH   1  15
ATOM     15  C   UNL     1       2.289   3.413  17.226  0.00  0.00    +0.000 C 
BRANCH  15  16
ATOM     16  C   UNL     1       2.414   2.443  18.403  0.00  0.00    +0.000 C 
BRANCH  16  17
ATOM     17  C   UNL     1       2.382   3.106  19.772  0.00  0.00    +0.000 C 
ATOM     18  C   UNL     1       1.420   2.573  20.819  0.00  0.00    +0.000 C 
ATOM     19  C   UNL     1       1.118   3.871  20.127  0.00  0.00    +0.000 C 
BRANCH  17  20
ATOM     20  C   UNL     1       3.698   3.689  20.246  0.00  0.00    +0.000 C 
BRANCH  20  22
ATOM     21  C   UNL     1       5.055   1.794  20.558  0.00  0.00    +0.000 C 
ATOM     22  O   UNL     1       4.761   2.900  19.716  0.00  0.00    +0.000 OA
ENDBRANCH  20  22
ENDBRANCH  17  20
ENDBRANCH  16  17
ENDBRANCH  15  16
ENDBRANCH   1  15
TORSDOF 7
ENDMDL
MODEL 4
REMARK VINA RESULT:      -6.3      2.622      6.621
REMARK  Name = 
REMARK  11 active torsions:
REMARK  status: ('A' for Active; 'I' for Inactive)
REMARK    1  A    between atoms: C_1  and  O_2
REMARK    2  A    between atoms: O_2  and  C_3
REMARK    3  A    between atoms: C_3  and  C_4
REMARK    4  A    between atoms: C_4  and  C_5
REMARK    5  A    between atoms: C_5  and  C_6
REMARK    6  A    between atoms: C_6  and  N_7
REMARK    7  A    between atoms: C_8  and  C_10
REMARK    8  A    between atoms: C_11  and  C_12
REMARK    9  A    between atoms: C_12  and  C_13
REMARK   10  A    between atoms: C_12  and  C_14
REMARK   11  A    between atoms: N_16  and  C_17
REMARK                            x       y       z     vdW  Elec       q    Type
REMARK                         _______ _______ _______ _____ _____    ______ ____
ROOT
ATOM      1  N   UNL     1       3.979   4.367  17.967  0.00  0.00    +0.000 N 
ATOM      2  C   UNL     1       2.626   4.612  18.021  0.00  0.00    +0.000 C 
ATOM      3  O   UNL     1       1.828   4.148  17.214  0.00  0.00    +0.000 OA
ATOM      4  H   UNL     1       4.577   4.777  18.671  0.00  0.00    +0.000 HD
ENDROOT
BRANCH   2   5
ATOM      5  C   UNL     1       2.201   5.455  19.130  0.00  0.00    +0.000 A 
ATOM      6  C   UNL     1       1.645   5.064  20.392  0.00  0.00    +0.000 A 
ATOM      7  N   UNL     1       1.372   6.127  21.169  0.00  0.00    +0.000 NA
ATOM      8  N   UNL     1       1.691   7.188  20.408  0.00  0.00    +0.000 N 
ATOM      9  C   UNL     1       1.438   8.518  20.912  0.00  0.00    +0.000 C 
ATOM     10  C   UNL     1       2.215   6.831  19.205  0.00  0.00    +0.000 A 
ATOM     11 CL   UNL     1       2.701   8.036  18.097  0.00  0.00    +0.000 Cl
BRANCH   6  12
ATOM     12  C   UNL     1       1.410   3.670  20.927  0.00  0.00    +0.000 C 
ATOM     13  C   UNL     1       0.585   2.836  19.942  0.00  0.00    +0.000 C 
ATOM     14  C   UNL     1       2.713   2.930  21.256  0.00  0.00    +0.000 C 
ENDBRANCH   6  12
ENDBRANCH   2   5
BRANCH   1  15
ATOM     15  C   UNL     1       4.611   3.594  16.914  0.00  0.00    +0.000 C 
BRANCH  15  16
ATOM     16  C   UNL     1       4.993   4.448  15.704  0.00  0.00    +0.000 C 
BRANCH  16  17
ATOM     17  C   UNL     1       6.468   4.815  15.631  0.00  0.00    +0.000 C 
ATOM     18  C   UNL     1       7.344   4.564  16.845  0.00  0.00    +0.000 C 
ATOM     19  C   UNL     1       6.926   5.967  16.510  0.00  0.00    +0.000 C 
BRANCH  17  20
ATOM     20  C   UNL     1       7.103   4.699  14.260  0.00  0.00    +0.000 C 
BRANCH  20  22
ATOM     21  C   UNL     1       6.468   3.733  12.213  0.00  0.00    +0.000 C 
ATOM     22  O   UNL     1       6.581   3.539  13.615  0.00  0.00    +0.000 OA
ENDBRANCH  20  22
ENDBRANCH  17  20
ENDBRANCH  16  17
ENDBRANCH  15  16
ENDBRANCH   1  15
TORSDOF 7
ENDMDL
MODEL 5
REMARK VINA RESULT:      -6.3      4.394      6.221
REMARK  Name = 
REMARK  11 active torsions:
REMARK  status: ('A' for Active; 'I' for Inactive)
REMARK    1  A    between atoms: C_1  and  O_2
REMARK    2  A    between atoms: O_2  and  C_3
REMARK    3  A    between atoms: C_3  and  C_4
REMARK    4  A    between atoms: C_4  and  C_5
REMARK    5  A    between atoms: C_5  and  C_6
REMARK    6  A    between atoms: C_6  and  N_7
REMARK    7  A    between atoms: C_8  and  C_10
REMARK    8  A    between atoms: C_11  and  C_12
REMARK    9  A    between atoms: C_12  and  C_13
REMARK   10  A    between atoms: C_12  and  C_14
REMARK   11  A    between atoms: N_16  and  C_17
REMARK                            x       y       z     vdW  Elec       q    Type
REMARK                         _______ _______ _______ _____ _____    ______ ____
ROOT
ATOM      1  N   UNL     1       2.303   8.197  17.747  0.00  0.00    +0.000 N 
ATOM      2  C   UNL     1       2.565   7.218  18.677  0.00  0.00    +0.000 C 
ATOM      3  O   UNL     1       2.373   7.367  19.879  0.00  0.00    +0.000 OA
ATOM      4  H   UNL     1       2.478   8.001  16.771  0.00  0.00    +0.000 HD
ENDROOT
BRANCH   2   5
ATOM      5  C   UNL     1       3.073   5.970  18.124  0.00  0.00    +0.000 A 
ATOM      6  C   UNL     1       2.595   4.636  18.334  0.00  0.00    +0.000 A 
ATOM      7  N   UNL     1       3.321   3.731  17.654  0.00  0.00    +0.000 NA
ATOM      8  N   UNL     1       4.286   4.455  17.060  0.00  0.00    +0.000 N 
ATOM      9  C   UNL     1       5.312   3.775  16.304  0.00  0.00    +0.000 C 
ATOM     10  C   UNL     1       4.155   5.789  17.289  0.00  0.00    +0.000 A 
ATOM     11 CL   UNL     1       5.274   6.883  16.606  0.00  0.00    +0.000 Cl
BRANCH   6  12
ATOM     12  C   UNL     1       1.398   4.179  19.136  0.00  0.00    +0.000 C 
ATOM     13  C   UNL     1       0.912   2.805  18.664  0.00  0.00    +0.000 C 
ATOM     14  C   UNL     1       1.674   4.132  20.645  0.00  0.00    +0.000 C 
ENDBRANCH   6  12
ENDBRANCH   2   5
BRANCH   1  15
ATOM     15  C   UNL     1       1.839   9.527  18.093  0.00  0.00    +0.000 C 
BRANCH  15  16
ATOM     16  C   UNL     1       0.316   9.660  18.012  0.00  0.00    +0.000 C 
BRANCH  16  17
ATOM     17  C   UNL     1      -0.285  10.643  19.006  0.00  0.00    +0.000 C 
ATOM     18  C   UNL     1      -1.770  10.946  18.925  0.00  0.00    +0.000 C 
ATOM     19  C   UNL     1      -0.778  11.964  18.440  0.00  0.00    +0.000 C 
BRANCH  17  20
ATOM     20  C   UNL     1       0.375  10.679  20.369  0.00  0.00    +0.000 C 
BRANCH  20  22
ATOM     21  C   UNL     1      -0.211   8.803  21.659  0.00  0.00    +0.000 C 
ATOM     22  O   UNL     1      -0.536  10.146  21.329  0.00  0.00    +0.000 OA
ENDBRANCH  20  22
ENDBRANCH  17  20
ENDBRANCH  16  17
ENDBRANCH  15  16
ENDBRANCH   1  15
TORSDOF 7
ENDMDL
MODEL 6
REMARK VINA RESULT:      -6.3      1.240      1.795
REMARK  Name = 
REMARK  11 active torsions:
REMARK  status: ('A' for Active; 'I' for Inactive)
REMARK    1  A    between atoms: C_1  and  O_2
REMARK    2  A    between atoms: O_2  and  C_3
REMARK    3  A    between atoms: C_3  and  C_4
REMARK    4  A    between atoms: C_4  and  C_5
REMARK    5  A    between atoms: C_5  and  C_6
REMARK    6  A    between atoms: C_6  and  N_7
REMARK    7  A    between atoms: C_8  and  C_10
REMARK    8  A    between atoms: C_11  and  C_12
REMARK    9  A    between atoms: C_12  and  C_13
REMARK   10  A    between atoms: C_12  and  C_14
REMARK   11  A    between atoms: N_16  and  C_17
REMARK                            x       y       z     vdW  Elec       q    Type
REMARK                         _______ _______ _______ _____ _____    ______ ____
ROOT
ATOM      1  N   UNL     1       5.106   3.834  18.209  0.00  0.00    +0.000 N 
ATOM      2  C   UNL     1       4.767   4.072  16.898  0.00  0.00    +0.000 C 
ATOM      3  O   UNL     1       3.646   3.863  16.446  0.00  0.00    +0.000 OA
ATOM      4  H   UNL     1       6.048   4.037  18.514  0.00  0.00    +0.000 HD
ENDROOT
BRANCH   2   5
ATOM      5  C   UNL     1       5.841   4.615  16.078  0.00  0.00    +0.000 A 
ATOM      6  C   UNL     1       6.818   5.606  16.422  0.00  0.00    +0.000 A 
ATOM      7  N   UNL     1       7.657   5.857  15.401  0.00  0.00    +0.000 NA
ATOM      8  N   UNL     1       7.201   5.088  14.397  0.00  0.00    +0.000 N 
ATOM      9  C   UNL     1       7.830   5.177  13.100  0.00  0.00    +0.000 C 
ATOM     10  C   UNL     1       6.145   4.315  14.767  0.00  0.00    +0.000 A 
ATOM     11 CL   UNL     1       5.431   3.252  13.638  0.00  0.00    +0.000 Cl
BRANCH   6  12
ATOM     12  C   UNL     1       7.027   6.304  17.746  0.00  0.00    +0.000 C 
ATOM     13  C   UNL     1       7.914   5.467  18.673  0.00  0.00    +0.000 C 
ATOM     14  C   UNL     1       7.629   7.707  17.593  0.00  0.00    +0.000 C 
ENDBRANCH   6  12
ENDBRANCH   2   5
BRANCH   1  15
ATOM     15  C   UNL     1       4.198   3.249  19.178  0.00  0.00    +0.000 C 
BRANCH  15  16
ATOM     16  C   UNL     1       3.695   4.266  20.204  0.00  0.00    +0.000 C 
BRANCH  16  17
ATOM     17  C   UNL     1       2.382   4.940  19.832  0.00  0.00    +0.000 C 
ATOM     18  C   UNL     1       2.399   6.050  18.796  0.00  0.00    +0.000 C 
ATOM     19  C   UNL     1       2.224   6.394  20.247  0.00  0.00    +0.000 C 
BRANCH  17  20
ATOM     20  C   UNL     1       1.150   4.061  19.913  0.00  0.00    +0.000 C 
BRANCH  20  22
ATOM     21  C   UNL     1       0.742   2.094  18.692  0.00  0.00    +0.000 C 
ATOM     22  O   UNL     1       0.906   3.503  18.624  0.00  0.00    +0.000 OA
ENDBRANCH  20  22
ENDBRANCH  17  20
ENDBRANCH  16  17
ENDBRANCH  15  16
ENDBRANCH   1  15
TORSDOF 7
ENDMDL
MODEL 7
REMARK VINA RESULT:      -6.3      1.327      2.163
REMARK  Name = 
REMARK  11 active torsions:
REMARK  status: ('A' for Active; 'I' for Inactive)
REMARK    1  A    between atoms: C_1  and  O_2
REMARK    2  A    between atoms: O_2  and  C_3
REMARK    3  A    between atoms: C_3  and  C_4
REMARK    4  A    between atoms: C_4  and  C_5
REMARK    5  A    between atoms: C_5  and  C_6
REMARK    6  A    between atoms: C_6  and  N_7
REMARK    7  A    between atoms: C_8  and  C_10
REMARK    8  A    between atoms: C_11  and  C_12
REMARK    9  A    between atoms: C_12  and  C_13
REMARK   10  A    between atoms: C_12  and  C_14
REMARK   11  A    between atoms: N_16  and  C_17
REMARK                            x       y       z     vdW  Elec       q    Type
REMARK                         _______ _______ _______ _____ _____    ______ ____
ROOT
ATOM      1  N   UNL     1       3.968   3.275  16.578  0.00  0.00    +0.000 N 
ATOM      2  C   UNL     1       4.313   4.607  16.592  0.00  0.00    +0.000 C 
ATOM      3  O   UNL     1       3.658   5.462  17.176  0.00  0.00    +0.000 OA
ATOM      4  H   UNL     1       4.560   2.624  16.080  0.00  0.00    +0.000 HD
ENDROOT
BRANCH   2   5
ATOM      5  C   UNL     1       5.537   4.929  15.871  0.00  0.00    +0.000 A 
ATOM      6  C   UNL     1       6.670   5.683  16.320  0.00  0.00    +0.000 A 
ATOM      7  N   UNL     1       7.618   5.774  15.371  0.00  0.00    +0.000 NA
ATOM      8  N   UNL     1       7.090   5.141  14.309  0.00  0.00    +0.000 N 
ATOM      9  C   UNL     1       7.822   5.124  13.063  0.00  0.00    +0.000 C 
ATOM     10  C   UNL     1       5.871   4.600  14.575  0.00  0.00    +0.000 A 
ATOM     11 CL   UNL     1       5.039   3.738  13.358  0.00  0.00    +0.000 Cl
BRANCH   6  12
ATOM     12  C   UNL     1       6.918   6.291  17.681  0.00  0.00    +0.000 C 
ATOM     13  C   UNL     1       7.676   5.316  18.588  0.00  0.00    +0.000 C 
ATOM     14  C   UNL     1       7.680   7.620  17.611  0.00  0.00    +0.000 C 
ENDBRANCH   6  12
ENDBRANCH   2   5
BRANCH   1  15
ATOM     15  C   UNL     1       2.762   2.753  17.192  0.00  0.00    +0.000 C 
BRANCH  15  16
ATOM     16  C   UNL     1       3.055   1.860  18.400  0.00  0.00    +0.000 C 
BRANCH  16  17
ATOM     17  C   UNL     1       3.313   2.615  19.695  0.00  0.00    +0.000 C 
ATOM     18  C   UNL     1       4.614   3.383  19.845  0.00  0.00    +0.000 C 
ATOM     19  C   UNL     1       4.430   2.086  20.579  0.00  0.00    +0.000 C 
BRANCH  17  20
ATOM     20  C   UNL     1       2.081   3.158  20.391  0.00  0.00    +0.000 C 
BRANCH  20  22
ATOM     21  C   UNL     1       1.813   5.472  20.711  0.00  0.00    +0.000 C 
ATOM     22  O   UNL     1       1.727   4.399  19.784  0.00  0.00    +0.000 OA
ENDBRANCH  20  22
ENDBRANCH  17  20
ENDBRANCH  16  17
ENDBRANCH  15  16
ENDBRANCH   1  15
TORSDOF 7
ENDMDL
MODEL 8
REMARK VINA RESULT:      -6.3      1.376      1.977
REMARK  Name = 
REMARK  11 active torsions:
REMARK  status: ('A' for Active; 'I' for Inactive)
REMARK    1  A    between atoms: C_1  and  O_2
REMARK    2  A    between atoms: O_2  and  C_3
REMARK    3  A    between atoms: C_3  and  C_4
REMARK    4  A    between atoms: C_4  and  C_5
REMARK    5  A    between atoms: C_5  and  C_6
REMARK    6  A    between atoms: C_6  and  N_7
REMARK    7  A    between atoms: C_8  and  C_10
REMARK    8  A    between atoms: C_11  and  C_12
REMARK    9  A    between atoms: C_12  and  C_13
REMARK   10  A    between atoms: C_12  and  C_14
REMARK   11  A    between atoms: N_16  and  C_17
REMARK                            x       y       z     vdW  Elec       q    Type
REMARK                         _______ _______ _______ _____ _____    ______ ____
ROOT
ATOM      1  N   UNL     1       4.776   2.877  17.315  0.00  0.00    +0.000 N 
ATOM      2  C   UNL     1       4.738   4.236  17.100  0.00  0.00    +0.000 C 
ATOM      3  O   UNL     1       3.887   4.968  17.593  0.00  0.00    +0.000 OA
ATOM      4  H   UNL     1       5.512   2.336  16.882  0.00  0.00    +0.000 HD
ENDROOT
BRANCH   2   5
ATOM      5  C   UNL     1       5.804   4.751  16.252  0.00  0.00    +0.000 A 
ATOM      6  C   UNL     1       6.792   5.743  16.556  0.00  0.00    +0.000 A 
ATOM      7  N   UNL     1       7.617   5.963  15.517  0.00  0.00    +0.000 NA
ATOM      8  N   UNL     1       7.142   5.171  14.540  0.00  0.00    +0.000 N 
ATOM      9  C   UNL     1       7.753   5.223  13.233  0.00  0.00    +0.000 C 
ATOM     10  C   UNL     1       6.087   4.414  14.945  0.00  0.00    +0.000 A 
ATOM     11 CL   UNL     1       5.350   3.328  13.854  0.00  0.00    +0.000 Cl
BRANCH   6  12
ATOM     12  C   UNL     1       7.024   6.473  17.859  0.00  0.00    +0.000 C 
ATOM     13  C   UNL     1       7.798   5.598  18.849  0.00  0.00    +0.000 C 
ATOM     14  C   UNL     1       7.759   7.807  17.673  0.00  0.00    +0.000 C 
ENDBRANCH   6  12
ENDBRANCH   2   5
BRANCH   1  15
ATOM     15  C   UNL     1       3.779   2.160  18.088  0.00  0.00    +0.000 C 
BRANCH  15  16
ATOM     16  C   UNL     1       3.847   2.484  19.582  0.00  0.00    +0.000 C 
BRANCH  16  17
ATOM     17  C   UNL     1       2.513   2.872  20.204  0.00  0.00    +0.000 C 
ATOM     18  C   UNL     1       2.456   4.092  21.105  0.00  0.00    +0.000 C 
ATOM     19  C   UNL     1       2.397   2.720  21.711  0.00  0.00    +0.000 C 
BRANCH  17  20
ATOM     20  C   UNL     1       1.286   2.538  19.380  0.00  0.00    +0.000 C 
BRANCH  20  22
ATOM     21  C   UNL     1       1.036   4.035  17.584  0.00  0.00    +0.000 C 
ATOM     22  O   UNL     1       0.694   3.756  18.935  0.00  0.00    +0.000 OA
ENDBRANCH  20  22
ENDBRANCH  17  20
ENDBRANCH  16  17
ENDBRANCH  15  16
ENDBRANCH   1  15
TORSDOF 7
ENDMDL
MODEL 9
REMARK VINA RESULT:      -6.3      2.712      6.346
REMARK  Name = 
REMARK  11 active torsions:
REMARK  status: ('A' for Active; 'I' for Inactive)
REMARK    1  A    between atoms: C_1  and  O_2
REMARK    2  A    between atoms: O_2  and  C_3
REMARK    3  A    between atoms: C_3  and  C_4
REMARK    4  A    between atoms: C_4  and  C_5
REMARK    5  A    between atoms: C_5  and  C_6
REMARK    6  A    between atoms: C_6  and  N_7
REMARK    7  A    between atoms: C_8  and  C_10
REMARK    8  A    between atoms: C_11  and  C_12
REMARK    9  A    between atoms: C_12  and  C_13
REMARK   10  A    between atoms: C_12  and  C_14
REMARK   11  A    between atoms: N_16  and  C_17
REMARK                            x       y       z     vdW  Elec       q    Type
REMARK                         _______ _______ _______ _____ _____    ______ ____
ROOT
ATOM      1  N   UNL     1       4.332   6.114  17.532  0.00  0.00    +0.000 N 
ATOM      2  C   UNL     1       4.566   5.715  18.828  0.00  0.00    +0.000 C 
ATOM      3  O   UNL     1       5.674   5.755  19.351  0.00  0.00    +0.000 OA
ATOM      4  H   UNL     1       3.391   6.060  17.168  0.00  0.00    +0.000 HD
ENDROOT
BRANCH   2   5
ATOM      5  C   UNL     1       3.387   5.255  19.548  0.00  0.00    +0.000 A 
ATOM      6  C   UNL     1       2.333   6.031  20.131  0.00  0.00    +0.000 A 
ATOM      7  N   UNL     1       1.406   5.254  20.720  0.00  0.00    +0.000 NA
ATOM      8  N   UNL     1       1.876   4.003  20.571  0.00  0.00    +0.000 N 
ATOM      9  C   UNL     1       1.156   2.905  21.173  0.00  0.00    +0.000 C 
ATOM     10  C   UNL     1       3.032   3.959  19.856  0.00  0.00    +0.000 A 
ATOM     11 CL   UNL     1       3.781   2.458  19.542  0.00  0.00    +0.000 Cl
BRANCH   6  12
ATOM     12  C   UNL     1       2.137   7.529  20.099  0.00  0.00    +0.000 C 
ATOM     13  C   UNL     1       1.763   8.004  18.692  0.00  0.00    +0.000 C 
ATOM     14  C   UNL     1       1.080   8.014  21.100  0.00  0.00    +0.000 C 
ENDBRANCH   6  12
ENDBRANCH   2   5
BRANCH   1  15
ATOM     15  C   UNL     1       5.378   6.558  16.629  0.00  0.00    +0.000 C 
BRANCH  15  16
ATOM     16  C   UNL     1       5.252   5.942  15.234  0.00  0.00    +0.000 C 
BRANCH  16  17
ATOM     17  C   UNL     1       6.170   4.755  14.984  0.00  0.00    +0.000 C 
ATOM     18  C   UNL     1       7.185   4.841  13.858  0.00  0.00    +0.000 C 
ATOM     19  C   UNL     1       5.957   3.993  13.687  0.00  0.00    +0.000 C 
BRANCH  17  20
ATOM     20  C   UNL     1       6.535   3.942  16.210  0.00  0.00    +0.000 C 
BRANCH  20  22
ATOM     21  C   UNL     1       8.031   4.478  17.942  0.00  0.00    +0.000 C 
ATOM     22  O   UNL     1       7.891   4.220  16.552  0.00  0.00    +0.000 OA
ENDBRANCH  20  22
ENDBRANCH  17  20
ENDBRANCH  16  17
ENDBRANCH  15  16
ENDBRANCH   1  15
TORSDOF 7
ENDMDL
