MODEL 1
REMARK VINA RESULT:      -7.7      0.000      0.000
REMARK  Name = 
REMARK  8 active torsions:
REMARK  status: ('A' for Active; 'I' for Inactive)
REMARK    1  A    between atoms: C_1  and  C_2
REMARK    2  A    between atoms: C_2  and  C_3
REMARK    3  A    between atoms: C_3  and  O_4
REMARK    4  A    between atoms: O_4  and  N_5
REMARK    5  A    between atoms: C_7  and  C_8
REMARK    6  A    between atoms: C_8  and  C_9
REMARK    7  A    between atoms: N_11  and  C_12
REMARK    8  A    between atoms: C_17  and  C_18
REMARK                            x       y       z     vdW  Elec       q    Type
REMARK                         _______ _______ _______ _____ _____    ______ ____
ROOT
ATOM      1  C   UNL     1       2.339   8.904  17.853  0.00  0.00    +0.000 C 
ENDROOT
BRANCH   1   4
ATOM      2  N   UNL     1       2.759   5.807  19.797  0.00  0.00    +0.000 N 
ATOM      3  C   UNL     1       2.255   7.072  19.648  0.00  0.00    +0.000 A 
ATOM      4  C   UNL     1       2.713   7.594  18.456  0.00  0.00    +0.000 A 
ATOM      5  C   UNL     1       3.605   6.620  17.899  0.00  0.00    +0.000 A 
ATOM      6  C   UNL     1       4.384   6.588  16.722  0.00  0.00    +0.000 A 
ATOM      7  C   UNL     1       5.159   5.465  16.427  0.00  0.00    +0.000 A 
ATOM      8  C   UNL     1       5.161   4.373  17.280  0.00  0.00    +0.000 A 
ATOM      9  C   UNL     1       4.381   4.370  18.439  0.00  0.00    +0.000 A 
ATOM     10  C   UNL     1       3.608   5.504  18.747  0.00  0.00    +0.000 A 
BRANCH   2  11
ATOM     11  O   UNL     1       2.252   4.964  20.804  0.00  0.00    +0.000 OA
BRANCH  11  12
ATOM     12  C   UNL     1       1.018   4.368  20.433  0.00  0.00    +0.000 C 
BRANCH  12  14
ATOM     13  C   UNL     1       1.050   2.571  18.701  0.00  0.00    +0.000 C 
ATOM     14  C   UNL     1       1.212   2.880  20.181  0.00  0.00    +0.000 C 
ENDBRANCH  12  14
ENDBRANCH  11  12
ENDBRANCH   2  11
ENDBRANCH   1   4
BRANCH   1  15
ATOM     15  C   UNL     1       1.140   9.558  18.530  0.00  0.00    +0.000 C 
ATOM     16  O   UNL     1       0.023   9.496  18.006  0.00  0.00    +0.000 OA
ATOM     17  N   UNL     1       1.430  10.291  19.666  0.00  0.00    +0.000 N 
ATOM     18  H   UNL     1       2.394  10.608  19.751  0.00  0.00    +0.000 HD
BRANCH  17  19
ATOM     19  C   UNL     1       0.431  11.017  20.358  0.00  0.00    +0.000 A 
ATOM     20  C   UNL     1       0.016  12.258  19.852  0.00  0.00    +0.000 A 
ATOM     21  C   UNL     1      -0.898  13.047  20.550  0.00  0.00    +0.000 A 
ATOM     22  C   UNL     1      -1.406  12.600  21.764  0.00  0.00    +0.000 A 
ATOM     23  C   UNL     1      -1.032  11.349  22.254  0.00  0.00    +0.000 A 
ATOM     24  C   UNL     1      -0.125  10.530  21.549  0.00  0.00    +0.000 A 
BRANCH  24  25
ATOM     25  C   UNL     1       0.276   9.222  22.175  0.00  0.00    +0.000 C 
ATOM     26  F   UNL     1       1.627   9.027  22.258  0.00  0.00    +0.000 F 
ATOM     27  F   UNL     1      -0.191   9.088  23.448  0.00  0.00    +0.000 F 
ATOM     28  F   UNL     1      -0.201   8.146  21.491  0.00  0.00    +0.000 F 
ENDBRANCH  24  25
ENDBRANCH  17  19
ENDBRANCH   1  15
TORSDOF 7
ENDMDL
MODEL 2
REMARK VINA RESULT:      -7.4      4.196      6.656
REMARK  Name = 
REMARK  8 active torsions:
REMARK  status: ('A' for Active; 'I' for Inactive)
REMARK    1  A    between atoms: C_1  and  C_2
REMARK    2  A    between atoms: C_2  and  C_3
REMARK    3  A    between atoms: C_3  and  O_4
REMARK    4  A    between atoms: O_4  and  N_5
REMARK    5  A    between atoms: C_7  and  C_8
REMARK    6  A    between atoms: C_8  and  C_9
REMARK    7  A    between atoms: N_11  and  C_12
REMARK    8  A    between atoms: C_17  and  C_18
REMARK                            x       y       z     vdW  Elec       q    Type
REMARK                         _______ _______ _______ _____ _____    ______ ____
ROOT
ATOM      1  C   UNL     1       4.402   3.021  16.263  0.00  0.00    +0.000 C 
ENDROOT
BRANCH   1   4
ATOM      2  N   UNL     1       6.929   5.644  15.728  0.00  0.00    +0.000 N 
ATOM      3  C   UNL     1       5.979   5.031  16.502  0.00  0.00    +0.000 A 
ATOM      4  C   UNL     1       5.409   4.005  15.777  0.00  0.00    +0.000 A 
ATOM      5  C   UNL     1       5.992   4.057  14.468  0.00  0.00    +0.000 A 
ATOM      6  C   UNL     1       5.802   3.291  13.299  0.00  0.00    +0.000 A 
ATOM      7  C   UNL     1       6.547   3.570  12.151  0.00  0.00    +0.000 A 
ATOM      8  C   UNL     1       7.483   4.592  12.157  0.00  0.00    +0.000 A 
ATOM      9  C   UNL     1       7.707   5.349  13.309  0.00  0.00    +0.000 A 
ATOM     10  C   UNL     1       6.950   5.080  14.463  0.00  0.00    +0.000 A 
BRANCH   2  11
ATOM     11  O   UNL     1       7.825   6.559  16.309  0.00  0.00    +0.000 OA
BRANCH  11  12
ATOM     12  C   UNL     1       7.211   7.338  17.326  0.00  0.00    +0.000 C 
BRANCH  12  14
ATOM     13  C   UNL     1       8.414   9.375  18.123  0.00  0.00    +0.000 C 
ATOM     14  C   UNL     1       8.266   7.870  18.285  0.00  0.00    +0.000 C 
ENDBRANCH  12  14
ENDBRANCH  11  12
ENDBRANCH   2  11
ENDBRANCH   1   4
BRANCH   1  15
ATOM     15  C   UNL     1       3.342   3.641  17.167  0.00  0.00    +0.000 C 
ATOM     16  O   UNL     1       2.151   3.602  16.841  0.00  0.00    +0.000 OA
ATOM     17  N   UNL     1       3.829   4.320  18.269  0.00  0.00    +0.000 N 
ATOM     18  H   UNL     1       4.795   4.634  18.201  0.00  0.00    +0.000 HD
BRANCH  17  19
ATOM     19  C   UNL     1       2.969   5.011  19.156  0.00  0.00    +0.000 A 
ATOM     20  C   UNL     1       2.779   6.391  18.986  0.00  0.00    +0.000 A 
ATOM     21  C   UNL     1       2.013   7.126  19.890  0.00  0.00    +0.000 A 
ATOM     22  C   UNL     1       1.431   6.486  20.977  0.00  0.00    +0.000 A 
ATOM     23  C   UNL     1       1.579   5.108  21.132  0.00  0.00    +0.000 A 
ATOM     24  C   UNL     1       2.331   4.347  20.213  0.00  0.00    +0.000 A 
BRANCH  24  25
ATOM     25  C   UNL     1       2.496   2.875  20.484  0.00  0.00    +0.000 C 
ATOM     26  F   UNL     1       1.975   2.061  19.518  0.00  0.00    +0.000 F 
ATOM     27  F   UNL     1       3.803   2.510  20.604  0.00  0.00    +0.000 F 
ATOM     28  F   UNL     1       1.896   2.487  21.644  0.00  0.00    +0.000 F 
ENDBRANCH  24  25
ENDBRANCH  17  19
ENDBRANCH   1  15
TORSDOF 7
ENDMDL
MODEL 3
REMARK VINA RESULT:      -7.4      0.768      1.078
REMARK  Name = 
REMARK  8 active torsions:
REMARK  status: ('A' for Active; 'I' for Inactive)
REMARK    1  A    between atoms: C_1  and  C_2
REMARK    2  A    between atoms: C_2  and  C_3
REMARK    3  A    between atoms: C_3  and  O_4
REMARK    4  A    between atoms: O_4  and  N_5
REMARK    5  A    between atoms: C_7  and  C_8
REMARK    6  A    between atoms: C_8  and  C_9
REMARK    7  A    between atoms: N_11  and  C_12
REMARK    8  A    between atoms: C_17  and  C_18
REMARK                            x       y       z     vdW  Elec       q    Type
REMARK                         _______ _______ _______ _____ _____    ______ ____
ROOT
ATOM      1  C   UNL     1       1.671   8.839  17.735  0.00  0.00    +0.000 C 
ENDROOT
BRANCH   1   4
ATOM      2  N   UNL     1       2.711   6.009  19.846  0.00  0.00    +0.000 N 
ATOM      3  C   UNL     1       1.917   7.098  19.604  0.00  0.00    +0.000 A 
ATOM      4  C   UNL     1       2.318   7.686  18.422  0.00  0.00    +0.000 A 
ATOM      5  C   UNL     1       3.467   6.957  17.972  0.00  0.00    +0.000 A 
ATOM      6  C   UNL     1       4.315   7.092  16.853  0.00  0.00    +0.000 A 
ATOM      7  C   UNL     1       5.370   6.197  16.663  0.00  0.00    +0.000 A 
ATOM      8  C   UNL     1       5.583   5.166  17.564  0.00  0.00    +0.000 A 
ATOM      9  C   UNL     1       4.743   4.997  18.667  0.00  0.00    +0.000 A 
ATOM     10  C   UNL     1       3.687   5.903  18.870  0.00  0.00    +0.000 A 
BRANCH   2  11
ATOM     11  O   UNL     1       2.359   5.093  20.855  0.00  0.00    +0.000 OA
BRANCH  11  12
ATOM     12  C   UNL     1       1.122   4.448  20.585  0.00  0.00    +0.000 C 
BRANCH  12  14
ATOM     13  C   UNL     1       1.015   2.636  18.871  0.00  0.00    +0.000 C 
ATOM     14  C   UNL     1       1.354   2.969  20.316  0.00  0.00    +0.000 C 
ENDBRANCH  12  14
ENDBRANCH  11  12
ENDBRANCH   2  11
ENDBRANCH   1   4
BRANCH   1  15
ATOM     15  C   UNL     1       1.271   9.960  18.686  0.00  0.00    +0.000 C 
ATOM     16  O   UNL     1       2.077  10.854  18.965  0.00  0.00    +0.000 OA
ATOM     17  N   UNL     1       0.025   9.823  19.272  0.00  0.00    +0.000 N 
ATOM     18  H   UNL     1      -0.348   8.876  19.295  0.00  0.00    +0.000 HD
BRANCH  17  19
ATOM     19  C   UNL     1      -0.449  10.746  20.234  0.00  0.00    +0.000 A 
ATOM     20  C   UNL     1      -0.938  11.989  19.805  0.00  0.00    +0.000 A 
ATOM     21  C   UNL     1      -1.329  12.961  20.725  0.00  0.00    +0.000 A 
ATOM     22  C   UNL     1      -1.234  12.698  22.086  0.00  0.00    +0.000 A 
ATOM     23  C   UNL     1      -0.790  11.451  22.522  0.00  0.00    +0.000 A 
ATOM     24  C   UNL     1      -0.411  10.449  21.604  0.00  0.00    +0.000 A 
BRANCH  24  25
ATOM     25  C   UNL     1       0.118   9.151  22.155  0.00  0.00    +0.000 C 
ATOM     26  F   UNL     1      -0.482   8.035  21.643  0.00  0.00    +0.000 F 
ATOM     27  F   UNL     1       1.450   8.990  21.921  0.00  0.00    +0.000 F 
ATOM     28  F   UNL     1      -0.036   9.055  23.505  0.00  0.00    +0.000 F 
ENDBRANCH  24  25
ENDBRANCH  17  19
ENDBRANCH   1  15
TORSDOF 7
ENDMDL
MODEL 4
REMARK VINA RESULT:      -7.4      2.396      4.071
REMARK  Name = 
REMARK  8 active torsions:
REMARK  status: ('A' for Active; 'I' for Inactive)
REMARK    1  A    between atoms: C_1  and  C_2
REMARK    2  A    between atoms: C_2  and  C_3
REMARK    3  A    between atoms: C_3  and  O_4
REMARK    4  A    between atoms: O_4  and  N_5
REMARK    5  A    between atoms: C_7  and  C_8
REMARK    6  A    between atoms: C_8  and  C_9
REMARK    7  A    between atoms: N_11  and  C_12
REMARK    8  A    between atoms: C_17  and  C_18
REMARK                            x       y       z     vdW  Elec       q    Type
REMARK                         _______ _______ _______ _____ _____    ______ ____
ROOT
ATOM      1  C   UNL     1       2.488   7.300  18.095  0.00  0.00    +0.000 C 
ENDROOT
BRANCH   1   4
ATOM      2  N   UNL     1       5.003   4.637  18.460  0.00  0.00    +0.000 N 
ATOM      3  C   UNL     1       4.664   5.951  18.270  0.00  0.00    +0.000 A 
ATOM      4  C   UNL     1       3.289   6.049  18.201  0.00  0.00    +0.000 A 
ATOM      5  C   UNL     1       2.780   4.710  18.271  0.00  0.00    +0.000 A 
ATOM      6  C   UNL     1       1.475   4.173  18.233  0.00  0.00    +0.000 A 
ATOM      7  C   UNL     1       1.283   2.795  18.348  0.00  0.00    +0.000 A 
ATOM      8  C   UNL     1       2.369   1.949  18.510  0.00  0.00    +0.000 A 
ATOM      9  C   UNL     1       3.668   2.458  18.575  0.00  0.00    +0.000 A 
ATOM     10  C   UNL     1       3.867   3.844  18.447  0.00  0.00    +0.000 A 
BRANCH   2  11
ATOM     11  O   UNL     1       6.323   4.295  18.807  0.00  0.00    +0.000 OA
BRANCH  11  12
ATOM     12  C   UNL     1       7.280   5.021  18.049  0.00  0.00    +0.000 C 
BRANCH  12  14
ATOM     13  C   UNL     1       8.067   7.380  18.268  0.00  0.00    +0.000 C 
ATOM     14  C   UNL     1       8.005   6.018  18.941  0.00  0.00    +0.000 C 
ENDBRANCH  12  14
ENDBRANCH  11  12
ENDBRANCH   2  11
ENDBRANCH   1   4
BRANCH   1  15
ATOM     15  C   UNL     1       1.936   7.776  19.434  0.00  0.00    +0.000 C 
ATOM     16  O   UNL     1       1.957   7.025  20.415  0.00  0.00    +0.000 OA
ATOM     17  N   UNL     1       1.330   9.019  19.416  0.00  0.00    +0.000 N 
ATOM     18  H   UNL     1       1.008   9.338  18.504  0.00  0.00    +0.000 HD
BRANCH  17  19
ATOM     19  C   UNL     1       0.704   9.558  20.565  0.00  0.00    +0.000 A 
ATOM     20  C   UNL     1       0.992   9.004  21.822  0.00  0.00    +0.000 A 
ATOM     21  C   UNL     1       0.329   9.443  22.967  0.00  0.00    +0.000 A 
ATOM     22  C   UNL     1      -0.631  10.443  22.866  0.00  0.00    +0.000 A 
ATOM     23  C   UNL     1      -0.893  11.029  21.628  0.00  0.00    +0.000 A 
ATOM     24  C   UNL     1      -0.216  10.611  20.464  0.00  0.00    +0.000 A 
BRANCH  24  25
ATOM     25  C   UNL     1      -0.601  11.250  19.156  0.00  0.00    +0.000 C 
ATOM     26  F   UNL     1      -1.084  10.376  18.222  0.00  0.00    +0.000 F 
ATOM     27  F   UNL     1      -1.569  12.197  19.303  0.00  0.00    +0.000 F 
ATOM     28  F   UNL     1       0.445  11.879  18.553  0.00  0.00    +0.000 F 
ENDBRANCH  24  25
ENDBRANCH  17  19
ENDBRANCH   1  15
TORSDOF 7
ENDMDL
MODEL 5
REMARK VINA RESULT:      -7.4      2.251      3.936
REMARK  Name = 
REMARK  8 active torsions:
REMARK  status: ('A' for Active; 'I' for Inactive)
REMARK    1  A    between atoms: C_1  and  C_2
REMARK    2  A    between atoms: C_2  and  C_3
REMARK    3  A    between atoms: C_3  and  O_4
REMARK    4  A    between atoms: O_4  and  N_5
REMARK    5  A    between atoms: C_7  and  C_8
REMARK    6  A    between atoms: C_8  and  C_9
REMARK    7  A    between atoms: N_11  and  C_12
REMARK    8  A    between atoms: C_17  and  C_18
REMARK                            x       y       z     vdW  Elec       q    Type
REMARK                         _______ _______ _______ _____ _____    ______ ____
ROOT
ATOM      1  C   UNL     1       2.537   7.516  17.910  0.00  0.00    +0.000 C 
ENDROOT
BRANCH   1   4
ATOM      2  N   UNL     1       5.063   4.838  17.913  0.00  0.00    +0.000 N 
ATOM      3  C   UNL     1       4.711   6.157  17.795  0.00  0.00    +0.000 A 
ATOM      4  C   UNL     1       3.338   6.260  17.891  0.00  0.00    +0.000 A 
ATOM      5  C   UNL     1       2.834   4.922  17.991  0.00  0.00    +0.000 A 
ATOM      6  C   UNL     1       1.531   4.389  18.095  0.00  0.00    +0.000 A 
ATOM      7  C   UNL     1       1.347   3.008  18.199  0.00  0.00    +0.000 A 
ATOM      8  C   UNL     1       2.440   2.156  18.213  0.00  0.00    +0.000 A 
ATOM      9  C   UNL     1       3.740   2.660  18.135  0.00  0.00    +0.000 A 
ATOM     10  C   UNL     1       3.930   4.049  18.017  0.00  0.00    +0.000 A 
BRANCH   2  11
ATOM     11  O   UNL     1       6.413   4.486  18.094  0.00  0.00    +0.000 OA
BRANCH  11  12
ATOM     12  C   UNL     1       7.176   4.664  16.909  0.00  0.00    +0.000 C 
BRANCH  12  14
ATOM     13  C   UNL     1       6.446   4.850  14.529  0.00  0.00    +0.000 C 
ATOM     14  C   UNL     1       6.510   3.942  15.747  0.00  0.00    +0.000 C 
ENDBRANCH  12  14
ENDBRANCH  11  12
ENDBRANCH   2  11
ENDBRANCH   1   4
BRANCH   1  15
ATOM     15  C   UNL     1       2.023   7.881  19.297  0.00  0.00    +0.000 C 
ATOM     16  O   UNL     1       2.142   7.082  20.232  0.00  0.00    +0.000 OA
ATOM     17  N   UNL     1       1.338   9.080  19.378  0.00  0.00    +0.000 N 
ATOM     18  H   UNL     1       0.951   9.425  18.502  0.00  0.00    +0.000 HD
BRANCH  17  19
ATOM     19  C   UNL     1       0.738   9.513  20.584  0.00  0.00    +0.000 A 
ATOM     20  C   UNL     1       1.222   9.018  21.804  0.00  0.00    +0.000 A 
ATOM     21  C   UNL     1       0.601   9.347  23.009  0.00  0.00    +0.000 A 
ATOM     22  C   UNL     1      -0.514  10.177  23.003  0.00  0.00    +0.000 A 
ATOM     23  C   UNL     1      -0.977  10.708  21.800  0.00  0.00    +0.000 A 
ATOM     24  C   UNL     1      -0.347  10.402  20.576  0.00  0.00    +0.000 A 
BRANCH  24  25
ATOM     25  C   UNL     1      -0.945  10.965  19.315  0.00  0.00    +0.000 C 
ATOM     26  F   UNL     1      -2.009  11.799  19.518  0.00  0.00    +0.000 F 
ATOM     27  F   UNL     1      -0.047  11.688  18.589  0.00  0.00    +0.000 F 
ATOM     28  F   UNL     1      -1.404   9.995  18.476  0.00  0.00    +0.000 F 
ENDBRANCH  24  25
ENDBRANCH  17  19
ENDBRANCH   1  15
TORSDOF 7
ENDMDL
MODEL 6
REMARK VINA RESULT:      -7.3      2.630      4.097
REMARK  Name = 
REMARK  8 active torsions:
REMARK  status: ('A' for Active; 'I' for Inactive)
REMARK    1  A    between atoms: C_1  and  C_2
REMARK    2  A    between atoms: C_2  and  C_3
REMARK    3  A    between atoms: C_3  and  O_4
REMARK    4  A    between atoms: O_4  and  N_5
REMARK    5  A    between atoms: C_7  and  C_8
REMARK    6  A    between atoms: C_8  and  C_9
REMARK    7  A    between atoms: N_11  and  C_12
REMARK    8  A    between atoms: C_17  and  C_18
REMARK                            x       y       z     vdW  Elec       q    Type
REMARK                         _______ _______ _______ _____ _____    ______ ____
ROOT
ATOM      1  C   UNL     1       2.149   7.763  19.138  0.00  0.00    +0.000 C 
ENDROOT
BRANCH   1   4
ATOM      2  N   UNL     1       4.700   6.370  16.879  0.00  0.00    +0.000 N 
ATOM      3  C   UNL     1       4.089   7.433  17.492  0.00  0.00    +0.000 A 
ATOM      4  C   UNL     1       3.028   6.965  18.238  0.00  0.00    +0.000 A 
ATOM      5  C   UNL     1       2.947   5.554  17.996  0.00  0.00    +0.000 A 
ATOM      6  C   UNL     1       2.073   4.547  18.455  0.00  0.00    +0.000 A 
ATOM      7  C   UNL     1       2.259   3.222  18.052  0.00  0.00    +0.000 A 
ATOM      8  C   UNL     1       3.308   2.888  17.210  0.00  0.00    +0.000 A 
ATOM      9  C   UNL     1       4.202   3.864  16.762  0.00  0.00    +0.000 A 
ATOM     10  C   UNL     1       4.011   5.201  17.154  0.00  0.00    +0.000 A 
BRANCH   2  11
ATOM     11  O   UNL     1       5.951   6.541  16.258  0.00  0.00    +0.000 OA
BRANCH  11  12
ATOM     12  C   UNL     1       6.988   5.858  16.946  0.00  0.00    +0.000 C 
BRANCH  12  14
ATOM     13  C   UNL     1       7.831   8.112  17.610  0.00  0.00    +0.000 C 
ATOM     14  C   UNL     1       7.499   6.710  18.098  0.00  0.00    +0.000 C 
ENDBRANCH  12  14
ENDBRANCH  11  12
ENDBRANCH   2  11
ENDBRANCH   1   4
BRANCH   1  15
ATOM     15  C   UNL     1       1.722   9.096  18.535  0.00  0.00    +0.000 C 
ATOM     16  O   UNL     1       1.964   9.345  17.350  0.00  0.00    +0.000 OA
ATOM     17  N   UNL     1       1.175  10.001  19.427  0.00  0.00    +0.000 N 
ATOM     18  H   UNL     1       1.411   9.851  20.406  0.00  0.00    +0.000 HD
BRANCH  17  19
ATOM     19  C   UNL     1       0.803  11.307  19.027  0.00  0.00    +0.000 A 
ATOM     20  C   UNL     1       1.712  12.360  19.206  0.00  0.00    +0.000 A 
ATOM     21  C   UNL     1       1.352  13.675  18.911  0.00  0.00    +0.000 A 
ATOM     22  C   UNL     1       0.076  13.948  18.435  0.00  0.00    +0.000 A 
ATOM     23  C   UNL     1      -0.820  12.903  18.214  0.00  0.00    +0.000 A 
ATOM     24  C   UNL     1      -0.464  11.566  18.486  0.00  0.00    +0.000 A 
BRANCH  24  25
ATOM     25  C   UNL     1      -1.510  10.502  18.281  0.00  0.00    +0.000 C 
ATOM     26  F   UNL     1      -1.665   9.652  19.339  0.00  0.00    +0.000 F 
ATOM     27  F   UNL     1      -2.746  11.024  18.047  0.00  0.00    +0.000 F 
ATOM     28  F   UNL     1      -1.238   9.702  17.213  0.00  0.00    +0.000 F 
ENDBRANCH  24  25
ENDBRANCH  17  19
ENDBRANCH   1  15
TORSDOF 7
ENDMDL
MODEL 7
REMARK VINA RESULT:      -7.3      2.350      3.870
REMARK  Name = 
REMARK  8 active torsions:
REMARK  status: ('A' for Active; 'I' for Inactive)
REMARK    1  A    between atoms: C_1  and  C_2
REMARK    2  A    between atoms: C_2  and  C_3
REMARK    3  A    between atoms: C_3  and  O_4
REMARK    4  A    between atoms: O_4  and  N_5
REMARK    5  A    between atoms: C_7  and  C_8
REMARK    6  A    between atoms: C_8  and  C_9
REMARK    7  A    between atoms: N_11  and  C_12
REMARK    8  A    between atoms: C_17  and  C_18
REMARK                            x       y       z     vdW  Elec       q    Type
REMARK                         _______ _______ _______ _____ _____    ______ ____
ROOT
ATOM      1  C   UNL     1       2.317   7.896  17.768  0.00  0.00    +0.000 C 
ENDROOT
BRANCH   1   4
ATOM      2  N   UNL     1       5.151   5.549  17.680  0.00  0.00    +0.000 N 
ATOM      3  C   UNL     1       4.638   6.816  17.587  0.00  0.00    +0.000 A 
ATOM      4  C   UNL     1       3.265   6.748  17.715  0.00  0.00    +0.000 A 
ATOM      5  C   UNL     1       2.931   5.357  17.807  0.00  0.00    +0.000 A 
ATOM      6  C   UNL     1       1.707   4.667  17.933  0.00  0.00    +0.000 A 
ATOM      7  C   UNL     1       1.696   3.274  18.023  0.00  0.00    +0.000 A 
ATOM      8  C   UNL     1       2.885   2.562  18.002  0.00  0.00    +0.000 A 
ATOM      9  C   UNL     1       4.111   3.223  17.902  0.00  0.00    +0.000 A 
ATOM     10  C   UNL     1       4.127   4.625  17.798  0.00  0.00    +0.000 A 
BRANCH   2  11
ATOM     11  O   UNL     1       6.539   5.363  17.826  0.00  0.00    +0.000 OA
BRANCH  11  12
ATOM     12  C   UNL     1       7.069   4.493  16.837  0.00  0.00    +0.000 C 
BRANCH  12  14
ATOM     13  C   UNL     1       6.111   4.059  14.573  0.00  0.00    +0.000 C 
ATOM     14  C   UNL     1       6.830   5.072  15.450  0.00  0.00    +0.000 C 
ENDBRANCH  12  14
ENDBRANCH  11  12
ENDBRANCH   2  11
ENDBRANCH   1   4
BRANCH   1  15
ATOM     15  C   UNL     1       1.900   8.267  19.186  0.00  0.00    +0.000 C 
ATOM     16  O   UNL     1       2.273   7.578  20.141  0.00  0.00    +0.000 OA
ATOM     17  N   UNL     1       1.012   9.323  19.284  0.00  0.00    +0.000 N 
ATOM     18  H   UNL     1       0.471   9.522  18.445  0.00  0.00    +0.000 HD
BRANCH  17  19
ATOM     19  C   UNL     1       0.478   9.732  20.530  0.00  0.00    +0.000 A 
ATOM     20  C   UNL     1       0.084   8.755  21.456  0.00  0.00    +0.000 A 
ATOM     21  C   UNL     1      -0.531   9.112  22.656  0.00  0.00    +0.000 A 
ATOM     22  C   UNL     1      -0.759  10.453  22.940  0.00  0.00    +0.000 A 
ATOM     23  C   UNL     1      -0.332  11.433  22.044  0.00  0.00    +0.000 A 
ATOM     24  C   UNL     1       0.311  11.090  20.837  0.00  0.00    +0.000 A 
BRANCH  24  25
ATOM     25  C   UNL     1       0.684  12.203  19.895  0.00  0.00    +0.000 C 
ATOM     26  F   UNL     1       0.032  12.168  18.694  0.00  0.00    +0.000 F 
ATOM     27  F   UNL     1       0.427  13.435  20.415  0.00  0.00    +0.000 F 
ATOM     28  F   UNL     1       2.011  12.202  19.584  0.00  0.00    +0.000 F 
ENDBRANCH  24  25
ENDBRANCH  17  19
ENDBRANCH   1  15
TORSDOF 7
ENDMDL
MODEL 8
REMARK VINA RESULT:      -7.2      2.393      4.075
REMARK  Name = 
REMARK  8 active torsions:
REMARK  status: ('A' for Active; 'I' for Inactive)
REMARK    1  A    between atoms: C_1  and  C_2
REMARK    2  A    between atoms: C_2  and  C_3
REMARK    3  A    between atoms: C_3  and  O_4
REMARK    4  A    between atoms: O_4  and  N_5
REMARK    5  A    between atoms: C_7  and  C_8
REMARK    6  A    between atoms: C_8  and  C_9
REMARK    7  A    between atoms: N_11  and  C_12
REMARK    8  A    between atoms: C_17  and  C_18
REMARK                            x       y       z     vdW  Elec       q    Type
REMARK                         _______ _______ _______ _____ _____    ______ ____
ROOT
ATOM      1  C   UNL     1       2.468   7.314  18.042  0.00  0.00    +0.000 C 
ENDROOT
BRANCH   1   4
ATOM      2  N   UNL     1       4.987   4.657  18.415  0.00  0.00    +0.000 N 
ATOM      3  C   UNL     1       4.645   5.966  18.200  0.00  0.00    +0.000 A 
ATOM      4  C   UNL     1       3.270   6.064  18.160  0.00  0.00    +0.000 A 
ATOM      5  C   UNL     1       2.761   4.729  18.275  0.00  0.00    +0.000 A 
ATOM      6  C   UNL     1       1.456   4.193  18.280  0.00  0.00    +0.000 A 
ATOM      7  C   UNL     1       1.265   2.818  18.433  0.00  0.00    +0.000 A 
ATOM      8  C   UNL     1       2.353   1.975  18.591  0.00  0.00    +0.000 A 
ATOM      9  C   UNL     1       3.654   2.483  18.614  0.00  0.00    +0.000 A 
ATOM     10  C   UNL     1       3.851   3.866  18.448  0.00  0.00    +0.000 A 
BRANCH   2  11
ATOM     11  O   UNL     1       6.315   4.322  18.740  0.00  0.00    +0.000 OA
BRANCH  11  12
ATOM     12  C   UNL     1       7.256   5.052  17.965  0.00  0.00    +0.000 C 
BRANCH  12  14
ATOM     13  C   UNL     1       7.966   7.439  18.135  0.00  0.00    +0.000 C 
ATOM     14  C   UNL     1       7.954   6.088  18.833  0.00  0.00    +0.000 C 
ENDBRANCH  12  14
ENDBRANCH  11  12
ENDBRANCH   2  11
ENDBRANCH   1   4
BRANCH   1  15
ATOM     15  C   UNL     1       2.008   7.864  19.387  0.00  0.00    +0.000 C 
ATOM     16  O   UNL     1       2.257   7.245  20.427  0.00  0.00    +0.000 OA
ATOM     17  N   UNL     1       1.223   9.001  19.325  0.00  0.00    +0.000 N 
ATOM     18  H   UNL     1       0.752   9.162  18.436  0.00  0.00    +0.000 HD
BRANCH  17  19
ATOM     19  C   UNL     1       0.660   9.580  20.487  0.00  0.00    +0.000 A 
ATOM     20  C   UNL     1       0.097   8.744  21.462  0.00  0.00    +0.000 A 
ATOM     21  C   UNL     1      -0.549   9.277  22.577  0.00  0.00    +0.000 A 
ATOM     22  C   UNL     1      -0.639  10.655  22.726  0.00  0.00    +0.000 A 
ATOM     23  C   UNL     1      -0.045  11.495  21.784  0.00  0.00    +0.000 A 
ATOM     24  C   UNL     1       0.630  10.971  20.662  0.00  0.00    +0.000 A 
BRANCH  24  25
ATOM     25  C   UNL     1       1.189  11.944  19.658  0.00  0.00    +0.000 C 
ATOM     26  F   UNL     1       1.814  11.358  18.593  0.00  0.00    +0.000 F 
ATOM     27  F   UNL     1       0.229  12.748  19.121  0.00  0.00    +0.000 F 
ATOM     28  F   UNL     1       2.114  12.783  20.202  0.00  0.00    +0.000 F 
ENDBRANCH  24  25
ENDBRANCH  17  19
ENDBRANCH   1  15
TORSDOF 7
ENDMDL
MODEL 9
REMARK VINA RESULT:      -7.1      2.495      3.949
REMARK  Name = 
REMARK  8 active torsions:
REMARK  status: ('A' for Active; 'I' for Inactive)
REMARK    1  A    between atoms: C_1  and  C_2
REMARK    2  A    between atoms: C_2  and  C_3
REMARK    3  A    between atoms: C_3  and  O_4
REMARK    4  A    between atoms: O_4  and  N_5
REMARK    5  A    between atoms: C_7  and  C_8
REMARK    6  A    between atoms: C_8  and  C_9
REMARK    7  A    between atoms: N_11  and  C_12
REMARK    8  A    between atoms: C_17  and  C_18
REMARK                            x       y       z     vdW  Elec       q    Type
REMARK                         _______ _______ _______ _____ _____    ______ ____
ROOT
ATOM      1  C   UNL     1       2.180   7.898  17.790  0.00  0.00    +0.000 C 
ENDROOT
BRANCH   1   4
ATOM      2  N   UNL     1       4.924   5.450  17.630  0.00  0.00    +0.000 N 
ATOM      3  C   UNL     1       4.451   6.732  17.535  0.00  0.00    +0.000 A 
ATOM      4  C   UNL     1       3.084   6.716  17.719  0.00  0.00    +0.000 A 
ATOM      5  C   UNL     1       2.705   5.340  17.850  0.00  0.00    +0.000 A 
ATOM      6  C   UNL     1       1.463   4.697  18.038  0.00  0.00    +0.000 A 
ATOM      7  C   UNL     1       1.407   3.306  18.154  0.00  0.00    +0.000 A 
ATOM      8  C   UNL     1       2.568   2.551  18.097  0.00  0.00    +0.000 A 
ATOM      9  C   UNL     1       3.812   3.166  17.936  0.00  0.00    +0.000 A 
ATOM     10  C   UNL     1       3.873   4.565  17.806  0.00  0.00    +0.000 A 
BRANCH   2  11
ATOM     11  O   UNL     1       6.308   5.216  17.724  0.00  0.00    +0.000 OA
BRANCH  11  12
ATOM     12  C   UNL     1       6.808   5.476  19.028  0.00  0.00    +0.000 C 
BRANCH  12  14
ATOM     13  C   UNL     1       7.873   7.447  17.927  0.00  0.00    +0.000 C 
ATOM     14  C   UNL     1       8.063   6.333  18.944  0.00  0.00    +0.000 C 
ENDBRANCH  12  14
ENDBRANCH  11  12
ENDBRANCH   2  11
ENDBRANCH   1   4
BRANCH   1  15
ATOM     15  C   UNL     1       1.766   8.255  19.212  0.00  0.00    +0.000 C 
ATOM     16  O   UNL     1       2.069   7.511  20.151  0.00  0.00    +0.000 OA
ATOM     17  N   UNL     1       0.957   9.370  19.331  0.00  0.00    +0.000 N 
ATOM     18  H   UNL     1       0.447   9.635  18.490  0.00  0.00    +0.000 HD
BRANCH  17  19
ATOM     19  C   UNL     1       0.431   9.778  20.580  0.00  0.00    +0.000 A 
ATOM     20  C   UNL     1       0.069   8.802  21.520  0.00  0.00    +0.000 A 
ATOM     21  C   UNL     1      -0.537   9.156  22.725  0.00  0.00    +0.000 A 
ATOM     22  C   UNL     1      -0.787  10.495  23.001  0.00  0.00    +0.000 A 
ATOM     23  C   UNL     1      -0.392  11.476  22.092  0.00  0.00    +0.000 A 
ATOM     24  C   UNL     1       0.241  11.135  20.879  0.00  0.00    +0.000 A 
BRANCH  24  25
ATOM     25  C   UNL     1       0.579  12.248  19.923  0.00  0.00    +0.000 C 
ATOM     26  F   UNL     1       0.320  13.501  20.402  0.00  0.00    +0.000 F 
ATOM     27  F   UNL     1       1.897  12.254  19.576  0.00  0.00    +0.000 F 
ATOM     28  F   UNL     1      -0.112  12.160  18.752  0.00  0.00    +0.000 F 
ENDBRANCH  24  25
ENDBRANCH  17  19
ENDBRANCH   1  15
TORSDOF 7
ENDMDL
