MODEL 1
REMARK VINA RESULT:      -7.3      0.000      0.000
REMARK  Name = 
REMARK  2 active torsions:
REMARK  status: ('A' for Active; 'I' for Inactive)
REMARK    1  A    between atoms: O_1  and  C_2
REMARK    2  A    between atoms: C_8  and  O_9
REMARK                            x       y       z     vdW  Elec       q    Type
REMARK                         _______ _______ _______ _____ _____    ______ ____
ROOT
ATOM      1  C   UNL     1       1.700   3.844  19.956  0.00  0.00    +0.000 A 
ATOM      2  C   UNL     1       2.403   2.817  20.576  0.00  0.00    +0.000 A 
ATOM      3  C   UNL     1       3.746   2.590  20.261  0.00  0.00    +0.000 A 
ATOM      4  C   UNL     1       4.343   3.428  19.311  0.00  0.00    +0.000 A 
ATOM      5  N   UNL     1       5.626   3.432  18.818  0.00  0.00    +0.000 N 
ATOM      6  C   UNL     1       5.798   4.431  17.889  0.00  0.00    +0.000 A 
ATOM      7  C   UNL     1       6.900   4.818  17.136  0.00  0.00    +0.000 A 
ATOM      8  N   UNL     1       6.758   5.856  16.293  0.00  0.00    +0.000 NA
ATOM      9  N   UNL     1       5.558   6.527  16.169  0.00  0.00    +0.000 NA
ATOM     10  C   UNL     1       4.476   6.170  16.891  0.00  0.00    +0.000 A 
ATOM     11  C   UNL     1       4.575   5.097  17.780  0.00  0.00    +0.000 A 
ATOM     12  C   UNL     1       3.657   4.463  18.677  0.00  0.00    +0.000 A 
ATOM     13  C   UNL     1       2.303   4.674  19.009  0.00  0.00    +0.000 A 
ATOM     14  H   UNL     1       6.337   2.779  19.112  0.00  0.00    +0.000 HD
ENDROOT
BRANCH   1  15
ATOM     15  O   UNL     1       0.388   4.080  20.251  0.00  0.00    +0.000 OA
ATOM     16  H   UNL     1      -0.049   3.231  20.428  0.00  0.00    +0.000 HD
ENDBRANCH   1  15
BRANCH   7  17
ATOM     17  O   UNL     1       8.131   4.219  17.184  0.00  0.00    +0.000 OA
ATOM     18  H   UNL     1       8.673   4.588  16.477  0.00  0.00    +0.000 HD
ENDBRANCH   7  17
TORSDOF 2
ENDMDL
MODEL 2
REMARK VINA RESULT:      -7.2      1.508      1.543
REMARK  Name = 
REMARK  2 active torsions:
REMARK  status: ('A' for Active; 'I' for Inactive)
REMARK    1  A    between atoms: O_1  and  C_2
REMARK    2  A    between atoms: C_8  and  O_9
REMARK                            x       y       z     vdW  Elec       q    Type
REMARK                         _______ _______ _______ _____ _____    ______ ____
ROOT
ATOM      1  C   UNL     1       1.580   2.408  18.614  0.00  0.00    +0.000 A 
ATOM      2  C   UNL     1       2.001   2.312  19.936  0.00  0.00    +0.000 A 
ATOM      3  C   UNL     1       3.288   2.720  20.300  0.00  0.00    +0.000 A 
ATOM      4  C   UNL     1       4.120   3.221  19.292  0.00  0.00    +0.000 A 
ATOM      5  N   UNL     1       5.412   3.686  19.362  0.00  0.00    +0.000 N 
ATOM      6  C   UNL     1       5.863   4.090  18.127  0.00  0.00    +0.000 A 
ATOM      7  C   UNL     1       7.078   4.620  17.711  0.00  0.00    +0.000 A 
ATOM      8  N   UNL     1       7.225   4.923  16.409  0.00  0.00    +0.000 NA
ATOM      9  N   UNL     1       6.205   4.718  15.501  0.00  0.00    +0.000 NA
ATOM     10  C   UNL     1       5.017   4.205  15.883  0.00  0.00    +0.000 A 
ATOM     11  C   UNL     1       4.818   3.875  17.225  0.00  0.00    +0.000 A 
ATOM     12  C   UNL     1       3.719   3.327  17.960  0.00  0.00    +0.000 A 
ATOM     13  C   UNL     1       2.417   2.909  17.616  0.00  0.00    +0.000 A 
ATOM     14  H   UNL     1       5.945   3.721  20.218  0.00  0.00    +0.000 HD
ENDROOT
BRANCH   1  15
ATOM     15  O   UNL     1       0.327   2.014  18.242  0.00  0.00    +0.000 OA
ATOM     16  H   UNL     1       0.399   1.443  17.460  0.00  0.00    +0.000 HD
ENDBRANCH   1  15
BRANCH   7  17
ATOM     17  O   UNL     1       8.150   4.860  18.530  0.00  0.00    +0.000 OA
ATOM     18  H   UNL     1       8.078   5.763  18.863  0.00  0.00    +0.000 HD
ENDBRANCH   7  17
TORSDOF 2
ENDMDL
MODEL 3
REMARK VINA RESULT:      -7.1      1.894      2.111
REMARK  Name = 
REMARK  2 active torsions:
REMARK  status: ('A' for Active; 'I' for Inactive)
REMARK    1  A    between atoms: O_1  and  C_2
REMARK    2  A    between atoms: C_8  and  O_9
REMARK                            x       y       z     vdW  Elec       q    Type
REMARK                         _______ _______ _______ _____ _____    ______ ____
ROOT
ATOM      1  C   UNL     1       2.607   5.289  19.828  0.00  0.00    +0.000 A 
ATOM      2  C   UNL     1       1.932   4.206  19.275  0.00  0.00    +0.000 A 
ATOM      3  C   UNL     1       2.417   3.587  18.119  0.00  0.00    +0.000 A 
ATOM      4  C   UNL     1       3.593   4.096  17.552  0.00  0.00    +0.000 A 
ATOM      5  N   UNL     1       4.283   3.689  16.435  0.00  0.00    +0.000 N 
ATOM      6  C   UNL     1       5.396   4.469  16.228  0.00  0.00    +0.000 A 
ATOM      7  C   UNL     1       6.380   4.440  15.248  0.00  0.00    +0.000 A 
ATOM      8  N   UNL     1       7.366   5.352  15.312  0.00  0.00    +0.000 NA
ATOM      9  N   UNL     1       7.411   6.297  16.318  0.00  0.00    +0.000 NA
ATOM     10  C   UNL     1       6.468   6.344  17.280  0.00  0.00    +0.000 A 
ATOM     11  C   UNL     1       5.424   5.416  17.255  0.00  0.00    +0.000 A 
ATOM     12  C   UNL     1       4.285   5.180  18.090  0.00  0.00    +0.000 A 
ATOM     13  C   UNL     1       3.778   5.790  19.256  0.00  0.00    +0.000 A 
ATOM     14  H   UNL     1       3.995   2.916  15.853  0.00  0.00    +0.000 HD
ENDROOT
BRANCH   1  15
ATOM     15  O   UNL     1       2.147   5.906  20.956  0.00  0.00    +0.000 OA
ATOM     16  H   UNL     1       2.393   6.845  20.920  0.00  0.00    +0.000 HD
ENDBRANCH   1  15
BRANCH   7  17
ATOM     17  O   UNL     1       6.426   3.547  14.210  0.00  0.00    +0.000 OA
ATOM     18  H   UNL     1       5.545   3.172  14.095  0.00  0.00    +0.000 HD
ENDBRANCH   7  17
TORSDOF 2
ENDMDL
MODEL 4
REMARK VINA RESULT:      -7.1      2.119      2.494
REMARK  Name = 
REMARK  2 active torsions:
REMARK  status: ('A' for Active; 'I' for Inactive)
REMARK    1  A    between atoms: O_1  and  C_2
REMARK    2  A    between atoms: C_8  and  O_9
REMARK                            x       y       z     vdW  Elec       q    Type
REMARK                         _______ _______ _______ _____ _____    ______ ____
ROOT
ATOM      1  C   UNL     1       1.984   3.032  18.111  0.00  0.00    +0.000 A 
ATOM      2  C   UNL     1       1.552   4.136  18.836  0.00  0.00    +0.000 A 
ATOM      3  C   UNL     1       2.315   5.307  18.864  0.00  0.00    +0.000 A 
ATOM      4  C   UNL     1       3.514   5.319  18.141  0.00  0.00    +0.000 A 
ATOM      5  N   UNL     1       4.448   6.317  17.994  0.00  0.00    +0.000 N 
ATOM      6  C   UNL     1       5.488   5.910  17.193  0.00  0.00    +0.000 A 
ATOM      7  C   UNL     1       6.640   6.560  16.766  0.00  0.00    +0.000 A 
ATOM      8  N   UNL     1       7.489   5.888  15.969  0.00  0.00    +0.000 NA
ATOM      9  N   UNL     1       7.236   4.588  15.578  0.00  0.00    +0.000 NA
ATOM     10  C   UNL     1       6.124   3.938  15.979  0.00  0.00    +0.000 A 
ATOM     11  C   UNL     1       5.212   4.596  16.808  0.00  0.00    +0.000 A 
ATOM     12  C   UNL     1       3.967   4.223  17.407  0.00  0.00    +0.000 A 
ATOM     13  C   UNL     1       3.181   3.053  17.393  0.00  0.00    +0.000 A 
ATOM     14  H   UNL     1       4.364   7.225  18.426  0.00  0.00    +0.000 HD
ENDROOT
BRANCH   1  15
ATOM     15  O   UNL     1       1.251   1.881  18.073  0.00  0.00    +0.000 OA
ATOM     16  H   UNL     1       0.404   2.065  17.635  0.00  0.00    +0.000 HD
ENDBRANCH   1  15
BRANCH   7  17
ATOM     17  O   UNL     1       6.983   7.845  17.098  0.00  0.00    +0.000 OA
ATOM     18  H   UNL     1       6.763   8.417  16.354  0.00  0.00    +0.000 HD
ENDBRANCH   7  17
TORSDOF 2
ENDMDL
MODEL 5
REMARK VINA RESULT:      -7.0      1.733      1.808
REMARK  Name = 
REMARK  2 active torsions:
REMARK  status: ('A' for Active; 'I' for Inactive)
REMARK    1  A    between atoms: O_1  and  C_2
REMARK    2  A    between atoms: C_8  and  O_9
REMARK                            x       y       z     vdW  Elec       q    Type
REMARK                         _______ _______ _______ _____ _____    ______ ____
ROOT
ATOM      1  C   UNL     1       2.590   2.431  18.231  0.00  0.00    +0.000 A 
ATOM      2  C   UNL     1       2.918   2.332  19.578  0.00  0.00    +0.000 A 
ATOM      3  C   UNL     1       4.014   3.031  20.093  0.00  0.00    +0.000 A 
ATOM      4  C   UNL     1       4.756   3.822  19.206  0.00  0.00    +0.000 A 
ATOM      5  N   UNL     1       5.864   4.602  19.434  0.00  0.00    +0.000 N 
ATOM      6  C   UNL     1       6.283   5.218  18.278  0.00  0.00    +0.000 A 
ATOM      7  C   UNL     1       7.337   6.085  18.019  0.00  0.00    +0.000 A 
ATOM      8  N   UNL     1       7.497   6.531  16.761  0.00  0.00    +0.000 NA
ATOM      9  N   UNL     1       6.644   6.147  15.745  0.00  0.00    +0.000 NA
ATOM     10  C   UNL     1       5.613   5.307  15.973  0.00  0.00    +0.000 A 
ATOM     11  C   UNL     1       5.408   4.818  17.266  0.00  0.00    +0.000 A 
ATOM     12  C   UNL     1       4.445   3.936  17.852  0.00  0.00    +0.000 A 
ATOM     13  C   UNL     1       3.335   3.222  17.354  0.00  0.00    +0.000 A 
ATOM     14  H   UNL     1       6.300   4.699  20.338  0.00  0.00    +0.000 HD
ENDROOT
BRANCH   1  15
ATOM     15  O   UNL     1       1.523   1.756  17.712  0.00  0.00    +0.000 OA
ATOM     16  H   UNL     1       0.863   2.401  17.410  0.00  0.00    +0.000 HD
ENDBRANCH   1  15
BRANCH   7  17
ATOM     17  O   UNL     1       8.238   6.525  18.953  0.00  0.00    +0.000 OA
ATOM     18  H   UNL     1       8.993   5.926  18.949  0.00  0.00    +0.000 HD
ENDBRANCH   7  17
TORSDOF 2
ENDMDL
MODEL 6
REMARK VINA RESULT:      -6.9      1.300      1.302
REMARK  Name = 
REMARK  2 active torsions:
REMARK  status: ('A' for Active; 'I' for Inactive)
REMARK    1  A    between atoms: O_1  and  C_2
REMARK    2  A    between atoms: C_8  and  O_9
REMARK                            x       y       z     vdW  Elec       q    Type
REMARK                         _______ _______ _______ _____ _____    ______ ____
ROOT
ATOM      1  C   UNL     1       1.511   3.161  19.202  0.00  0.00    +0.000 A 
ATOM      2  C   UNL     1       2.028   1.909  18.886  0.00  0.00    +0.000 A 
ATOM      3  C   UNL     1       3.223   1.798  18.169  0.00  0.00    +0.000 A 
ATOM      4  C   UNL     1       3.866   2.983  17.789  0.00  0.00    +0.000 A 
ATOM      5  N   UNL     1       5.034   3.168  17.088  0.00  0.00    +0.000 N 
ATOM      6  C   UNL     1       5.310   4.506  16.928  0.00  0.00    +0.000 A 
ATOM      7  C   UNL     1       6.358   5.168  16.302  0.00  0.00    +0.000 A 
ATOM      8  N   UNL     1       6.353   6.513  16.310  0.00  0.00    +0.000 NA
ATOM      9  N   UNL     1       5.342   7.228  16.920  0.00  0.00    +0.000 NA
ATOM     10  C   UNL     1       4.314   6.606  17.535  0.00  0.00    +0.000 A 
ATOM     11  C   UNL     1       4.277   5.209  17.552  0.00  0.00    +0.000 A 
ATOM     12  C   UNL     1       3.365   4.248  18.094  0.00  0.00    +0.000 A 
ATOM     13  C   UNL     1       2.159   4.336  18.818  0.00  0.00    +0.000 A 
ATOM     14  H   UNL     1       5.603   2.409  16.743  0.00  0.00    +0.000 HD
ENDROOT
BRANCH   1  15
ATOM     15  O   UNL     1       0.345   3.287  19.901  0.00  0.00    +0.000 OA
ATOM     16  H   UNL     1       0.470   3.952  20.598  0.00  0.00    +0.000 HD
ENDBRANCH   1  15
BRANCH   7  17
ATOM     17  O   UNL     1       7.407   4.554  15.669  0.00  0.00    +0.000 OA
ATOM     18  H   UNL     1       7.562   3.705  16.098  0.00  0.00    +0.000 HD
ENDBRANCH   7  17
TORSDOF 2
ENDMDL
MODEL 7
REMARK VINA RESULT:      -6.9      1.748      1.836
REMARK  Name = 
REMARK  2 active torsions:
REMARK  status: ('A' for Active; 'I' for Inactive)
REMARK    1  A    between atoms: O_1  and  C_2
REMARK    2  A    between atoms: C_8  and  O_9
REMARK                            x       y       z     vdW  Elec       q    Type
REMARK                         _______ _______ _______ _____ _____    ______ ____
ROOT
ATOM      1  C   UNL     1       2.035   3.925  17.951  0.00  0.00    +0.000 A 
ATOM      2  C   UNL     1       2.331   2.981  18.929  0.00  0.00    +0.000 A 
ATOM      3  C   UNL     1       3.583   2.975  19.551  0.00  0.00    +0.000 A 
ATOM      4  C   UNL     1       4.511   3.945  19.153  0.00  0.00    +0.000 A 
ATOM      5  N   UNL     1       5.796   4.169  19.588  0.00  0.00    +0.000 N 
ATOM      6  C   UNL     1       6.365   5.234  18.929  0.00  0.00    +0.000 A 
ATOM      7  C   UNL     1       7.619   5.823  19.028  0.00  0.00    +0.000 A 
ATOM      8  N   UNL     1       7.890   6.874  18.235  0.00  0.00    +0.000 NA
ATOM      9  N   UNL     1       6.957   7.365  17.343  0.00  0.00    +0.000 NA
ATOM     10  C   UNL     1       5.733   6.810  17.231  0.00  0.00    +0.000 A 
ATOM     11  C   UNL     1       5.406   5.715  18.034  0.00  0.00    +0.000 A 
ATOM     12  C   UNL     1       4.237   4.901  18.176  0.00  0.00    +0.000 A 
ATOM     13  C   UNL     1       2.967   4.888  17.562  0.00  0.00    +0.000 A 
ATOM     14  H   UNL     1       6.248   3.614  20.299  0.00  0.00    +0.000 HD
ENDROOT
BRANCH   1  15
ATOM     15  O   UNL     1       0.818   3.945  17.334  0.00  0.00    +0.000 OA
ATOM     16  H   UNL     1       0.131   4.093  18.005  0.00  0.00    +0.000 HD
ENDBRANCH   1  15
BRANCH   7  17
ATOM     17  O   UNL     1       8.613   5.413  19.877  0.00  0.00    +0.000 OA
ATOM     18  H   UNL     1       8.754   4.469  19.742  0.00  0.00    +0.000 HD
ENDBRANCH   7  17
TORSDOF 2
ENDMDL
MODEL 8
REMARK VINA RESULT:      -6.8      2.270      5.096
REMARK  Name = 
REMARK  2 active torsions:
REMARK  status: ('A' for Active; 'I' for Inactive)
REMARK    1  A    between atoms: O_1  and  C_2
REMARK    2  A    between atoms: C_8  and  O_9
REMARK                            x       y       z     vdW  Elec       q    Type
REMARK                         _______ _______ _______ _____ _____    ______ ____
ROOT
ATOM      1  C   UNL     1       6.427   5.042  15.625  0.00  0.00    +0.000 A 
ATOM      2  C   UNL     1       7.383   5.180  16.626  0.00  0.00    +0.000 A 
ATOM      3  C   UNL     1       7.108   4.755  17.930  0.00  0.00    +0.000 A 
ATOM      4  C   UNL     1       5.849   4.194  18.179  0.00  0.00    +0.000 A 
ATOM      5  N   UNL     1       5.317   3.701  19.347  0.00  0.00    +0.000 N 
ATOM      6  C   UNL     1       4.037   3.239  19.153  0.00  0.00    +0.000 A 
ATOM      7  C   UNL     1       3.117   2.663  20.020  0.00  0.00    +0.000 A 
ATOM      8  N   UNL     1       1.918   2.305  19.527  0.00  0.00    +0.000 NA
ATOM      9  N   UNL     1       1.597   2.499  18.198  0.00  0.00    +0.000 NA
ATOM     10  C   UNL     1       2.474   3.055  17.338  0.00  0.00    +0.000 A 
ATOM     11  C   UNL     1       3.733   3.443  17.805  0.00  0.00    +0.000 A 
ATOM     12  C   UNL     1       4.876   4.046  17.191  0.00  0.00    +0.000 A 
ATOM     13  C   UNL     1       5.175   4.481  15.883  0.00  0.00    +0.000 A 
ATOM     14  H   UNL     1       5.816   3.687  20.224  0.00  0.00    +0.000 HD
ENDROOT
BRANCH   1  15
ATOM     15  O   UNL     1       6.680   5.451  14.348  0.00  0.00    +0.000 OA
ATOM     16  H   UNL     1       5.935   5.186  13.783  0.00  0.00    +0.000 HD
ENDBRANCH   1  15
BRANCH   7  17
ATOM     17  O   UNL     1       3.336   2.429  21.352  0.00  0.00    +0.000 OA
ATOM     18  H   UNL     1       4.211   2.765  21.578  0.00  0.00    +0.000 HD
ENDBRANCH   7  17
TORSDOF 2
ENDMDL
MODEL 9
REMARK VINA RESULT:      -6.8      1.666      1.809
REMARK  Name = 
REMARK  2 active torsions:
REMARK  status: ('A' for Active; 'I' for Inactive)
REMARK    1  A    between atoms: O_1  and  C_2
REMARK    2  A    between atoms: C_8  and  O_9
REMARK                            x       y       z     vdW  Elec       q    Type
REMARK                         _______ _______ _______ _____ _____    ______ ____
ROOT
ATOM      1  C   UNL     1       1.586   3.218  18.688  0.00  0.00    +0.000 A 
ATOM      2  C   UNL     1       1.664   3.895  19.900  0.00  0.00    +0.000 A 
ATOM      3  C   UNL     1       2.799   4.647  20.218  0.00  0.00    +0.000 A 
ATOM      4  C   UNL     1       3.837   4.687  19.278  0.00  0.00    +0.000 A 
ATOM      5  N   UNL     1       5.049   5.334  19.327  0.00  0.00    +0.000 N 
ATOM      6  C   UNL     1       5.778   5.109  18.184  0.00  0.00    +0.000 A 
ATOM      7  C   UNL     1       7.035   5.546  17.784  0.00  0.00    +0.000 A 
ATOM      8  N   UNL     1       7.492   5.149  16.583  0.00  0.00    +0.000 NA
ATOM      9  N   UNL     1       6.744   4.331  15.760  0.00  0.00    +0.000 NA
ATOM     10  C   UNL     1       5.521   3.896  16.127  0.00  0.00    +0.000 A 
ATOM     11  C   UNL     1       5.005   4.282  17.366  0.00  0.00    +0.000 A 
ATOM     12  C   UNL     1       3.780   4.015  18.058  0.00  0.00    +0.000 A 
ATOM     13  C   UNL     1       2.625   3.264  17.758  0.00  0.00    +0.000 A 
ATOM     14  H   UNL     1       5.347   5.899  20.108  0.00  0.00    +0.000 HD
ENDROOT
BRANCH   1  15
ATOM     15  O   UNL     1       0.484   2.480  18.362  0.00  0.00    +0.000 OA
ATOM     16  H   UNL     1       0.697   1.538  18.470  0.00  0.00    +0.000 HD
ENDBRANCH   1  15
BRANCH   7  17
ATOM     17  O   UNL     1       7.855   6.356  18.525  0.00  0.00    +0.000 OA
ATOM     18  H   UNL     1       8.602   5.829  18.833  0.00  0.00    +0.000 HD
ENDBRANCH   7  17
TORSDOF 2
ENDMDL
