MODEL 1
REMARK VINA RESULT:      -6.5      0.000      0.000
REMARK  Name = 
REMARK  7 active torsions:
REMARK  status: ('A' for Active; 'I' for Inactive)
REMARK    1  A    between atoms: C_1  and  C_2
REMARK    2  A    between atoms: C_2  and  S_3
REMARK    3  A    between atoms: S_3  and  N_6
REMARK    4  A    between atoms: N_6  and  C_7
REMARK    5  A    between atoms: C_14  and  N_15
REMARK    6  A    between atoms: C_14  and  C_22
REMARK    7  A    between atoms: N_15  and  C_16
REMARK                            x       y       z     vdW  Elec       q    Type
REMARK                         _______ _______ _______ _____ _____    ______ ____
ROOT
ATOM      1  C   UNL     1      -5.024  11.837  18.115  0.00  0.00    +0.000 A 
ATOM      2  C   UNL     1      -6.342  11.359  18.041  0.00  0.00    +0.000 A 
ATOM      3  C   UNL     1      -7.166  11.387  19.169  0.00  0.00    +0.000 A 
ATOM      4  C   UNL     1      -6.629  11.893  20.337  0.00  0.00    +0.000 A 
ATOM      5  C   UNL     1      -5.305  12.337  20.435  0.00  0.00    +0.000 A 
ATOM      6  C   UNL     1      -4.491  12.309  19.317  0.00  0.00    +0.000 A 
ATOM      7  C   UNL     1      -5.118  12.749  21.839  0.00  0.00    +0.000 C 
ATOM      8  C   UNL     1      -4.017  13.095  22.535  0.00  0.00    +0.000 C 
ATOM      9  C   UNL     1      -6.466  12.631  22.501  0.00  0.00    +0.000 C 
ATOM     10  O   UNL     1      -6.776  13.011  23.615  0.00  0.00    +0.000 OA
ATOM     11  N   UNL     1      -7.296  12.065  21.547  0.00  0.00    +0.000 N 
ATOM     12  H   UNL     1      -8.274  11.884  21.713  0.00  0.00    +0.000 HD
ENDROOT
BRANCH   8  13
ATOM     13  C   UNL     1      -2.744  13.382  21.832  0.00  0.00    +0.000 A 
ATOM     14  C   UNL     1      -2.596  14.634  21.215  0.00  0.00    +0.000 A 
ATOM     15  C   UNL     1      -1.430  14.946  20.516  0.00  0.00    +0.000 A 
ATOM     16  C   UNL     1      -0.400  14.012  20.431  0.00  0.00    +0.000 A 
ATOM     17  C   UNL     1      -0.534  12.767  21.045  0.00  0.00    +0.000 A 
ATOM     18  C   UNL     1      -1.701  12.451  21.741  0.00  0.00    +0.000 A 
ENDBRANCH   8  13
BRANCH   1  19
ATOM     19  N   UNL     1      -4.205  11.872  16.951  0.00  0.00    +0.000 N 
ATOM     20  H   UNL     1      -4.704  11.982  16.067  0.00  0.00    +0.000 HD
BRANCH  19  21
ATOM     21  S   UNL     1      -3.009  10.695  16.780  0.00  0.00    +0.000 S 
ATOM     22  O   UNL     1      -2.685  10.698  15.366  0.00  0.00    +0.000 OA
ATOM     23  O   UNL     1      -3.418   9.484  17.451  0.00  0.00    +0.000 OA
BRANCH  21  25
ATOM     24  C   UNL     1      -0.724  10.382  18.246  0.00  0.00    +0.000 C 
ATOM     25  C   UNL     1      -1.641  11.441  17.661  0.00  0.00    +0.000 C 
ENDBRANCH  21  25
ENDBRANCH  19  21
ENDBRANCH   1  19
BRANCH   8  26
ATOM     26  N   UNL     1      -3.959  13.327  23.914  0.00  0.00    +0.000 N 
ATOM     27  H   UNL     1      -3.326  12.659  24.372  0.00  0.00    +0.000 HD
BRANCH  26  28
ATOM     28  C   UNL     1      -3.627  14.615  24.438  0.00  0.00    +0.000 A 
ATOM     29  C   UNL     1      -2.439  14.882  25.134  0.00  0.00    +0.000 A 
ATOM     30  C   UNL     1      -2.125  16.175  25.560  0.00  0.00    +0.000 A 
ATOM     31  C   UNL     1      -3.014  17.218  25.323  0.00  0.00    +0.000 A 
ATOM     32  C   UNL     1      -4.228  16.961  24.689  0.00  0.00    +0.000 A 
ATOM     33  C   UNL     1      -4.536  15.665  24.258  0.00  0.00    +0.000 A 
ENDBRANCH  26  28
ENDBRANCH   8  26
TORSDOF 6
ENDMDL
MODEL 2
REMARK VINA RESULT:      -6.5      2.766      5.944
REMARK  Name = 
REMARK  7 active torsions:
REMARK  status: ('A' for Active; 'I' for Inactive)
REMARK    1  A    between atoms: C_1  and  C_2
REMARK    2  A    between atoms: C_2  and  S_3
REMARK    3  A    between atoms: S_3  and  N_6
REMARK    4  A    between atoms: N_6  and  C_7
REMARK    5  A    between atoms: C_14  and  N_15
REMARK    6  A    between atoms: C_14  and  C_22
REMARK    7  A    between atoms: N_15  and  C_16
REMARK                            x       y       z     vdW  Elec       q    Type
REMARK                         _______ _______ _______ _____ _____    ______ ____
ROOT
ATOM      1  C   UNL     1      -4.792  11.969  18.336  0.00  0.00    +0.000 A 
ATOM      2  C   UNL     1      -4.851  11.284  17.112  0.00  0.00    +0.000 A 
ATOM      3  C   UNL     1      -3.726  10.615  16.623  0.00  0.00    +0.000 A 
ATOM      4  C   UNL     1      -2.575  10.665  17.386  0.00  0.00    +0.000 A 
ATOM      5  C   UNL     1      -2.490  11.376  18.589  0.00  0.00    +0.000 A 
ATOM      6  C   UNL     1      -3.605  12.038  19.071  0.00  0.00    +0.000 A 
ATOM      7  C   UNL     1      -1.101  11.217  19.057  0.00  0.00    +0.000 C 
ATOM      8  C   UNL     1      -0.415  11.809  20.055  0.00  0.00    +0.000 C 
ATOM      9  C   UNL     1      -0.437  10.257  18.104  0.00  0.00    +0.000 C 
ATOM     10  O   UNL     1       0.663   9.748  18.217  0.00  0.00    +0.000 OA
ATOM     11  N   UNL     1      -1.372  10.020  17.110  0.00  0.00    +0.000 N 
ATOM     12  H   UNL     1      -1.202   9.393  16.340  0.00  0.00    +0.000 HD
ENDROOT
BRANCH   8  13
ATOM     13  C   UNL     1      -1.125  12.602  21.086  0.00  0.00    +0.000 A 
ATOM     14  C   UNL     1      -1.668  11.922  22.187  0.00  0.00    +0.000 A 
ATOM     15  C   UNL     1      -2.370  12.615  23.173  0.00  0.00    +0.000 A 
ATOM     16  C   UNL     1      -2.534  13.995  23.068  0.00  0.00    +0.000 A 
ATOM     17  C   UNL     1      -1.993  14.682  21.981  0.00  0.00    +0.000 A 
ATOM     18  C   UNL     1      -1.294  13.990  20.993  0.00  0.00    +0.000 A 
ENDBRANCH   8  13
BRANCH   1  19
ATOM     19  N   UNL     1      -5.954  12.594  18.869  0.00  0.00    +0.000 N 
ATOM     20  H   UNL     1      -5.903  13.609  18.962  0.00  0.00    +0.000 HD
BRANCH  19  21
ATOM     21  S   UNL     1      -6.649  11.936  20.258  0.00  0.00    +0.000 S 
ATOM     22  O   UNL     1      -7.916  12.627  20.403  0.00  0.00    +0.000 OA
ATOM     23  O   UNL     1      -5.679  11.923  21.327  0.00  0.00    +0.000 OA
BRANCH  21  25
ATOM     24  C   UNL     1      -7.789   9.508  20.781  0.00  0.00    +0.000 C 
ATOM     25  C   UNL     1      -6.990  10.260  19.732  0.00  0.00    +0.000 C 
ENDBRANCH  21  25
ENDBRANCH  19  21
ENDBRANCH   1  19
BRANCH   8  26
ATOM     26  N   UNL     1       0.956  11.669  20.302  0.00  0.00    +0.000 N 
ATOM     27  H   UNL     1       1.317  10.801  19.889  0.00  0.00    +0.000 HD
BRANCH  26  28
ATOM     28  C   UNL     1       1.883  12.698  19.946  0.00  0.00    +0.000 A 
ATOM     29  C   UNL     1       2.545  13.499  20.889  0.00  0.00    +0.000 A 
ATOM     30  C   UNL     1       3.500  14.440  20.495  0.00  0.00    +0.000 A 
ATOM     31  C   UNL     1       3.785  14.616  19.145  0.00  0.00    +0.000 A 
ATOM     32  C   UNL     1       3.092  13.874  18.191  0.00  0.00    +0.000 A 
ATOM     33  C   UNL     1       2.140  12.928  18.589  0.00  0.00    +0.000 A 
ENDBRANCH  26  28
ENDBRANCH   8  26
TORSDOF 6
ENDMDL
MODEL 3
REMARK VINA RESULT:      -6.4      8.494     13.145
REMARK  Name = 
REMARK  7 active torsions:
REMARK  status: ('A' for Active; 'I' for Inactive)
REMARK    1  A    between atoms: C_1  and  C_2
REMARK    2  A    between atoms: C_2  and  S_3
REMARK    3  A    between atoms: S_3  and  N_6
REMARK    4  A    between atoms: N_6  and  C_7
REMARK    5  A    between atoms: C_14  and  N_15
REMARK    6  A    between atoms: C_14  and  C_22
REMARK    7  A    between atoms: N_15  and  C_16
REMARK                            x       y       z     vdW  Elec       q    Type
REMARK                         _______ _______ _______ _____ _____    ______ ____
ROOT
ATOM      1  C   UNL     1       2.307   6.491  20.200  0.00  0.00    +0.000 A 
ATOM      2  C   UNL     1       1.198   5.695  20.530  0.00  0.00    +0.000 A 
ATOM      3  C   UNL     1       1.104   4.386  20.052  0.00  0.00    +0.000 A 
ATOM      4  C   UNL     1       2.132   3.924  19.252  0.00  0.00    +0.000 A 
ATOM      5  C   UNL     1       3.224   4.719  18.884  0.00  0.00    +0.000 A 
ATOM      6  C   UNL     1       3.316   6.015  19.358  0.00  0.00    +0.000 A 
ATOM      7  C   UNL     1       4.057   3.881  18.001  0.00  0.00    +0.000 C 
ATOM      8  C   UNL     1       5.124   4.170  17.232  0.00  0.00    +0.000 C 
ATOM      9  C   UNL     1       3.430   2.510  17.999  0.00  0.00    +0.000 C 
ATOM     10  O   UNL     1       3.887   1.492  17.514  0.00  0.00    +0.000 OA
ATOM     11  N   UNL     1       2.259   2.641  18.728  0.00  0.00    +0.000 N 
ATOM     12  H   UNL     1       1.638   1.867  18.906  0.00  0.00    +0.000 HD
ENDROOT
BRANCH   8  13
ATOM     13  C   UNL     1       5.833   5.463  17.386  0.00  0.00    +0.000 A 
ATOM     14  C   UNL     1       7.009   5.485  18.153  0.00  0.00    +0.000 A 
ATOM     15  C   UNL     1       7.701   6.679  18.355  0.00  0.00    +0.000 A 
ATOM     16  C   UNL     1       7.225   7.861  17.790  0.00  0.00    +0.000 A 
ATOM     17  C   UNL     1       6.061   7.850  17.022  0.00  0.00    +0.000 A 
ATOM     18  C   UNL     1       5.366   6.657  16.822  0.00  0.00    +0.000 A 
ENDBRANCH   8  13
BRANCH   1  19
ATOM     19  N   UNL     1       2.439   7.801  20.741  0.00  0.00    +0.000 N 
ATOM     20  H   UNL     1       3.090   7.890  21.523  0.00  0.00    +0.000 HD
BRANCH  19  21
ATOM     21  S   UNL     1       1.034   8.672  21.078  0.00  0.00    +0.000 S 
ATOM     22  O   UNL     1       1.424   9.625  22.099  0.00  0.00    +0.000 OA
ATOM     23  O   UNL     1      -0.065   7.760  21.287  0.00  0.00    +0.000 OA
BRANCH  21  25
ATOM     24  C   UNL     1      -0.580  10.218  19.506  0.00  0.00    +0.000 C 
ATOM     25  C   UNL     1       0.791   9.568  19.548  0.00  0.00    +0.000 C 
ENDBRANCH  21  25
ENDBRANCH  19  21
ENDBRANCH   1  19
BRANCH   8  26
ATOM     26  N   UNL     1       5.738   3.301  16.322  0.00  0.00    +0.000 N 
ATOM     27  H   UNL     1       5.179   2.449  16.194  0.00  0.00    +0.000 HD
BRANCH  26  28
ATOM     28  C   UNL     1       6.107   3.738  15.011  0.00  0.00    +0.000 A 
ATOM     29  C   UNL     1       7.194   4.590  14.760  0.00  0.00    +0.000 A 
ATOM     30  C   UNL     1       7.561   4.927  13.455  0.00  0.00    +0.000 A 
ATOM     31  C   UNL     1       6.825   4.441  12.380  0.00  0.00    +0.000 A 
ATOM     32  C   UNL     1       5.705   3.646  12.612  0.00  0.00    +0.000 A 
ATOM     33  C   UNL     1       5.343   3.305  13.921  0.00  0.00    +0.000 A 
ENDBRANCH  26  28
ENDBRANCH   8  26
TORSDOF 6
ENDMDL
MODEL 4
REMARK VINA RESULT:      -6.4      2.687      6.760
REMARK  Name = 
REMARK  7 active torsions:
REMARK  status: ('A' for Active; 'I' for Inactive)
REMARK    1  A    between atoms: C_1  and  C_2
REMARK    2  A    between atoms: C_2  and  S_3
REMARK    3  A    between atoms: S_3  and  N_6
REMARK    4  A    between atoms: N_6  and  C_7
REMARK    5  A    between atoms: C_14  and  N_15
REMARK    6  A    between atoms: C_14  and  C_22
REMARK    7  A    between atoms: N_15  and  C_16
REMARK                            x       y       z     vdW  Elec       q    Type
REMARK                         _______ _______ _______ _____ _____    ______ ____
ROOT
ATOM      1  C   UNL     1      -5.278  12.820  19.828  0.00  0.00    +0.000 A 
ATOM      2  C   UNL     1      -6.145  12.292  18.858  0.00  0.00    +0.000 A 
ATOM      3  C   UNL     1      -5.653  11.457  17.852  0.00  0.00    +0.000 A 
ATOM      4  C   UNL     1      -4.297  11.187  17.856  0.00  0.00    +0.000 A 
ATOM      5  C   UNL     1      -3.415  11.737  18.793  0.00  0.00    +0.000 A 
ATOM      6  C   UNL     1      -3.904  12.564  19.789  0.00  0.00    +0.000 A 
ATOM      7  C   UNL     1      -2.074  11.245  18.426  0.00  0.00    +0.000 C 
ATOM      8  C   UNL     1      -0.844  11.575  18.866  0.00  0.00    +0.000 C 
ATOM      9  C   UNL     1      -2.273  10.270  17.294  0.00  0.00    +0.000 C 
ATOM     10  O   UNL     1      -1.438   9.535  16.800  0.00  0.00    +0.000 OA
ATOM     11  N   UNL     1      -3.621  10.337  16.984  0.00  0.00    +0.000 N 
ATOM     12  H   UNL     1      -4.044   9.771  16.266  0.00  0.00    +0.000 HD
ENDROOT
BRANCH   8  13
ATOM     13  C   UNL     1      -0.678  12.389  20.094  0.00  0.00    +0.000 A 
ATOM     14  C   UNL     1      -0.982  11.794  21.328  0.00  0.00    +0.000 A 
ATOM     15  C   UNL     1      -0.871  12.522  22.512  0.00  0.00    +0.000 A 
ATOM     16  C   UNL     1      -0.454  13.851  22.474  0.00  0.00    +0.000 A 
ATOM     17  C   UNL     1      -0.144  14.451  21.253  0.00  0.00    +0.000 A 
ATOM     18  C   UNL     1      -0.258  13.725  20.068  0.00  0.00    +0.000 A 
ENDBRANCH   8  13
BRANCH   1  19
ATOM     19  N   UNL     1      -5.787  13.615  20.893  0.00  0.00    +0.000 N 
ATOM     20  H   UNL     1      -5.253  14.459  21.105  0.00  0.00    +0.000 HD
BRANCH  19  21
ATOM     21  S   UNL     1      -6.216  12.845  22.331  0.00  0.00    +0.000 S 
ATOM     22  O   UNL     1      -4.958  12.594  23.008  0.00  0.00    +0.000 OA
ATOM     23  O   UNL     1      -7.141  11.772  22.052  0.00  0.00    +0.000 OA
BRANCH  21  25
ATOM     24  C   UNL     1      -7.789  13.624  24.425  0.00  0.00    +0.000 C 
ATOM     25  C   UNL     1      -7.062  14.158  23.205  0.00  0.00    +0.000 C 
ENDBRANCH  21  25
ENDBRANCH  19  21
ENDBRANCH   1  19
BRANCH   8  26
ATOM     26  N   UNL     1       0.367  11.128  18.324  0.00  0.00    +0.000 N 
ATOM     27  H   UNL     1       1.101  11.840  18.431  0.00  0.00    +0.000 HD
BRANCH  26  28
ATOM     28  C   UNL     1       0.951   9.888  18.732  0.00  0.00    +0.000 A 
ATOM     29  C   UNL     1       1.720   9.081  17.879  0.00  0.00    +0.000 A 
ATOM     30  C   UNL     1       2.333   7.915  18.346  0.00  0.00    +0.000 A 
ATOM     31  C   UNL     1       2.159   7.522  19.668  0.00  0.00    +0.000 A 
ATOM     32  C   UNL     1       1.347   8.276  20.513  0.00  0.00    +0.000 A 
ATOM     33  C   UNL     1       0.739   9.447  20.044  0.00  0.00    +0.000 A 
ENDBRANCH  26  28
ENDBRANCH   8  26
TORSDOF 6
ENDMDL
MODEL 5
REMARK VINA RESULT:      -6.4      3.063      7.436
REMARK  Name = 
REMARK  7 active torsions:
REMARK  status: ('A' for Active; 'I' for Inactive)
REMARK    1  A    between atoms: C_1  and  C_2
REMARK    2  A    between atoms: C_2  and  S_3
REMARK    3  A    between atoms: S_3  and  N_6
REMARK    4  A    between atoms: N_6  and  C_7
REMARK    5  A    between atoms: C_14  and  N_15
REMARK    6  A    between atoms: C_14  and  C_22
REMARK    7  A    between atoms: N_15  and  C_16
REMARK                            x       y       z     vdW  Elec       q    Type
REMARK                         _______ _______ _______ _____ _____    ______ ____
ROOT
ATOM      1  C   UNL     1      -3.463  13.918  20.921  0.00  0.00    +0.000 A 
ATOM      2  C   UNL     1      -2.852  14.710  21.907  0.00  0.00    +0.000 A 
ATOM      3  C   UNL     1      -1.461  14.728  22.034  0.00  0.00    +0.000 A 
ATOM      4  C   UNL     1      -0.731  13.941  21.163  0.00  0.00    +0.000 A 
ATOM      5  C   UNL     1      -1.328  13.117  20.201  0.00  0.00    +0.000 A 
ATOM      6  C   UNL     1      -2.706  13.101  20.077  0.00  0.00    +0.000 A 
ATOM      7  C   UNL     1      -0.222  12.420  19.520  0.00  0.00    +0.000 C 
ATOM      8  C   UNL     1      -0.208  11.402  18.639  0.00  0.00    +0.000 C 
ATOM      9  C   UNL     1       1.053  13.003  20.073  0.00  0.00    +0.000 C 
ATOM     10  O   UNL     1       2.187  12.808  19.674  0.00  0.00    +0.000 OA
ATOM     11  N   UNL     1       0.656  13.864  21.083  0.00  0.00    +0.000 N 
ATOM     12  H   UNL     1       1.309  14.411  21.621  0.00  0.00    +0.000 HD
ENDROOT
BRANCH   8  13
ATOM     13  C   UNL     1      -1.459  10.969  17.972  0.00  0.00    +0.000 A 
ATOM     14  C   UNL     1      -1.881  11.673  16.833  0.00  0.00    +0.000 A 
ATOM     15  C   UNL     1      -3.065  11.326  16.183  0.00  0.00    +0.000 A 
ATOM     16  C   UNL     1      -3.838  10.271  16.664  0.00  0.00    +0.000 A 
ATOM     17  C   UNL     1      -3.426   9.561  17.792  0.00  0.00    +0.000 A 
ATOM     18  C   UNL     1      -2.244   9.909  18.445  0.00  0.00    +0.000 A 
ENDBRANCH   8  13
BRANCH   1  19
ATOM     19  N   UNL     1      -4.875  13.949  20.745  0.00  0.00    +0.000 N 
ATOM     20  H   UNL     1      -5.305  14.873  20.812  0.00  0.00    +0.000 HD
BRANCH  19  21
ATOM     21  S   UNL     1      -5.811  12.832  21.594  0.00  0.00    +0.000 S 
ATOM     22  O   UNL     1      -7.017  13.553  21.952  0.00  0.00    +0.000 OA
ATOM     23  O   UNL     1      -5.002  12.182  22.597  0.00  0.00    +0.000 OA
BRANCH  21  25
ATOM     24  C   UNL     1      -7.583  11.024  20.563  0.00  0.00    +0.000 C 
ATOM     25  C   UNL     1      -6.229  11.661  20.306  0.00  0.00    +0.000 C 
ENDBRANCH  21  25
ENDBRANCH  19  21
ENDBRANCH   1  19
BRANCH   8  26
ATOM     26  N   UNL     1       0.931  10.733  18.176  0.00  0.00    +0.000 N 
ATOM     27  H   UNL     1       1.746  11.359  18.166  0.00  0.00    +0.000 HD
BRANCH  26  28
ATOM     28  C   UNL     1       1.373   9.513  18.777  0.00  0.00    +0.000 A 
ATOM     29  C   UNL     1       1.113   9.175  20.114  0.00  0.00    +0.000 A 
ATOM     30  C   UNL     1       1.499   7.937  20.635  0.00  0.00    +0.000 A 
ATOM     31  C   UNL     1       2.183   7.030  19.832  0.00  0.00    +0.000 A 
ATOM     32  C   UNL     1       2.506   7.374  18.521  0.00  0.00    +0.000 A 
ATOM     33  C   UNL     1       2.112   8.613  18.001  0.00  0.00    +0.000 A 
ENDBRANCH  26  28
ENDBRANCH   8  26
TORSDOF 6
ENDMDL
MODEL 6
REMARK VINA RESULT:      -6.4      2.549      6.603
REMARK  Name = 
REMARK  7 active torsions:
REMARK  status: ('A' for Active; 'I' for Inactive)
REMARK    1  A    between atoms: C_1  and  C_2
REMARK    2  A    between atoms: C_2  and  S_3
REMARK    3  A    between atoms: S_3  and  N_6
REMARK    4  A    between atoms: N_6  and  C_7
REMARK    5  A    between atoms: C_14  and  N_15
REMARK    6  A    between atoms: C_14  and  C_22
REMARK    7  A    between atoms: N_15  and  C_16
REMARK                            x       y       z     vdW  Elec       q    Type
REMARK                         _______ _______ _______ _____ _____    ______ ____
ROOT
ATOM      1  C   UNL     1      -5.299  12.967  19.981  0.00  0.00    +0.000 A 
ATOM      2  C   UNL     1      -6.195  12.452  19.031  0.00  0.00    +0.000 A 
ATOM      3  C   UNL     1      -5.740  11.606  18.018  0.00  0.00    +0.000 A 
ATOM      4  C   UNL     1      -4.390  11.310  17.994  0.00  0.00    +0.000 A 
ATOM      5  C   UNL     1      -3.478  11.847  18.911  0.00  0.00    +0.000 A 
ATOM      6  C   UNL     1      -3.931  12.685  19.914  0.00  0.00    +0.000 A 
ATOM      7  C   UNL     1      -2.155  11.328  18.518  0.00  0.00    +0.000 C 
ATOM      8  C   UNL     1      -0.910  11.636  18.931  0.00  0.00    +0.000 C 
ATOM      9  C   UNL     1      -2.396  10.354  17.393  0.00  0.00    +0.000 C 
ATOM     10  O   UNL     1      -1.586   9.602  16.884  0.00  0.00    +0.000 OA
ATOM     11  N   UNL     1      -3.749  10.445  17.111  0.00  0.00    +0.000 N 
ATOM     12  H   UNL     1      -4.197   9.885  16.404  0.00  0.00    +0.000 HD
ENDROOT
BRANCH   8  13
ATOM     13  C   UNL     1      -0.703  12.450  20.152  0.00  0.00    +0.000 A 
ATOM     14  C   UNL     1      -0.977  11.860  21.396  0.00  0.00    +0.000 A 
ATOM     15  C   UNL     1      -0.828  12.589  22.575  0.00  0.00    +0.000 A 
ATOM     16  C   UNL     1      -0.401  13.914  22.523  0.00  0.00    +0.000 A 
ATOM     17  C   UNL     1      -0.120  14.510  21.293  0.00  0.00    +0.000 A 
ATOM     18  C   UNL     1      -0.273  13.783  20.112  0.00  0.00    +0.000 A 
ENDBRANCH   8  13
BRANCH   1  19
ATOM     19  N   UNL     1      -5.771  13.774  21.054  0.00  0.00    +0.000 N 
ATOM     20  H   UNL     1      -5.265  14.649  21.200  0.00  0.00    +0.000 HD
BRANCH  19  21
ATOM     21  S   UNL     1      -6.059  13.036  22.543  0.00  0.00    +0.000 S 
ATOM     22  O   UNL     1      -6.622  11.742  22.213  0.00  0.00    +0.000 OA
ATOM     23  O   UNL     1      -6.754  13.954  23.414  0.00  0.00    +0.000 OA
BRANCH  21  25
ATOM     24  C   UNL     1      -4.384  12.538  24.644  0.00  0.00    +0.000 C 
ATOM     25  C   UNL     1      -4.394  12.777  23.145  0.00  0.00    +0.000 C 
ENDBRANCH  21  25
ENDBRANCH  19  21
ENDBRANCH   1  19
BRANCH   8  26
ATOM     26  N   UNL     1       0.281  11.166  18.365  0.00  0.00    +0.000 N 
ATOM     27  H   UNL     1       1.006  11.894  18.377  0.00  0.00    +0.000 HD
BRANCH  26  28
ATOM     28  C   UNL     1       0.908   9.971  18.840  0.00  0.00    +0.000 A 
ATOM     29  C   UNL     1       0.753   9.488  20.148  0.00  0.00    +0.000 A 
ATOM     30  C   UNL     1       1.325   8.275  20.543  0.00  0.00    +0.000 A 
ATOM     31  C   UNL     1       2.089   7.543  19.641  0.00  0.00    +0.000 A 
ATOM     32  C   UNL     1       2.307   8.038  18.358  0.00  0.00    +0.000 A 
ATOM     33  C   UNL     1       1.728   9.251  17.963  0.00  0.00    +0.000 A 
ENDBRANCH  26  28
ENDBRANCH   8  26
TORSDOF 6
ENDMDL
MODEL 7
REMARK VINA RESULT:      -6.4      2.413      6.540
REMARK  Name = 
REMARK  7 active torsions:
REMARK  status: ('A' for Active; 'I' for Inactive)
REMARK    1  A    between atoms: C_1  and  C_2
REMARK    2  A    between atoms: C_2  and  S_3
REMARK    3  A    between atoms: S_3  and  N_6
REMARK    4  A    between atoms: N_6  and  C_7
REMARK    5  A    between atoms: C_14  and  N_15
REMARK    6  A    between atoms: C_14  and  C_22
REMARK    7  A    between atoms: N_15  and  C_16
REMARK                            x       y       z     vdW  Elec       q    Type
REMARK                         _______ _______ _______ _____ _____    ______ ____
ROOT
ATOM      1  C   UNL     1      -5.301  12.937  19.750  0.00  0.00    +0.000 A 
ATOM      2  C   UNL     1      -6.160  12.410  18.772  0.00  0.00    +0.000 A 
ATOM      3  C   UNL     1      -5.664  11.556  17.785  0.00  0.00    +0.000 A 
ATOM      4  C   UNL     1      -4.313  11.264  17.815  0.00  0.00    +0.000 A 
ATOM      5  C   UNL     1      -3.438  11.813  18.760  0.00  0.00    +0.000 A 
ATOM      6  C   UNL     1      -3.931  12.659  19.737  0.00  0.00    +0.000 A 
ATOM      7  C   UNL     1      -2.099  11.295  18.423  0.00  0.00    +0.000 C 
ATOM      8  C   UNL     1      -0.872  11.612  18.879  0.00  0.00    +0.000 C 
ATOM      9  C   UNL     1      -2.294  10.310  17.299  0.00  0.00    +0.000 C 
ATOM     10  O   UNL     1      -1.463   9.555  16.828  0.00  0.00    +0.000 OA
ATOM     11  N   UNL     1      -3.636  10.393  16.966  0.00  0.00    +0.000 N 
ATOM     12  H   UNL     1      -4.056   9.825  16.247  0.00  0.00    +0.000 HD
ENDROOT
BRANCH   8  13
ATOM     13  C   UNL     1      -0.714  12.438  20.100  0.00  0.00    +0.000 A 
ATOM     14  C   UNL     1      -0.260  13.758  19.952  0.00  0.00    +0.000 A 
ATOM     15  C   UNL     1      -0.066  14.570  21.069  0.00  0.00    +0.000 A 
ATOM     16  C   UNL     1      -0.326  14.072  22.343  0.00  0.00    +0.000 A 
ATOM     17  C   UNL     1      -0.783  12.763  22.502  0.00  0.00    +0.000 A 
ATOM     18  C   UNL     1      -0.974  11.948  21.386  0.00  0.00    +0.000 A 
ENDBRANCH   8  13
BRANCH   1  19
ATOM     19  N   UNL     1      -5.816  13.753  20.796  0.00  0.00    +0.000 N 
ATOM     20  H   UNL     1      -5.284  14.602  20.993  0.00  0.00    +0.000 HD
BRANCH  19  21
ATOM     21  S   UNL     1      -6.249  13.012  22.248  0.00  0.00    +0.000 S 
ATOM     22  O   UNL     1      -6.526  11.634  21.894  0.00  0.00    +0.000 OA
ATOM     23  O   UNL     1      -7.230  13.820  22.933  0.00  0.00    +0.000 OA
BRANCH  21  25
ATOM     24  C   UNL     1      -4.096  14.443  23.135  0.00  0.00    +0.000 C 
ATOM     25  C   UNL     1      -4.702  13.051  23.148  0.00  0.00    +0.000 C 
ENDBRANCH  21  25
ENDBRANCH  19  21
ENDBRANCH   1  19
BRANCH   8  26
ATOM     26  N   UNL     1       0.341  11.139  18.364  0.00  0.00    +0.000 N 
ATOM     27  H   UNL     1       1.065  11.868  18.403  0.00  0.00    +0.000 HD
BRANCH  26  28
ATOM     28  C   UNL     1       0.948   9.946  18.866  0.00  0.00    +0.000 A 
ATOM     29  C   UNL     1       0.778   9.491  20.183  0.00  0.00    +0.000 A 
ATOM     30  C   UNL     1       1.330   8.278  20.605  0.00  0.00    +0.000 A 
ATOM     31  C   UNL     1       2.089   7.517  19.723  0.00  0.00    +0.000 A 
ATOM     32  C   UNL     1       2.322   7.984  18.431  0.00  0.00    +0.000 A 
ATOM     33  C   UNL     1       1.762   9.196  18.009  0.00  0.00    +0.000 A 
ENDBRANCH  26  28
ENDBRANCH   8  26
TORSDOF 6
ENDMDL
MODEL 8
REMARK VINA RESULT:      -6.4      3.050      7.362
REMARK  Name = 
REMARK  7 active torsions:
REMARK  status: ('A' for Active; 'I' for Inactive)
REMARK    1  A    between atoms: C_1  and  C_2
REMARK    2  A    between atoms: C_2  and  S_3
REMARK    3  A    between atoms: S_3  and  N_6
REMARK    4  A    between atoms: N_6  and  C_7
REMARK    5  A    between atoms: C_14  and  N_15
REMARK    6  A    between atoms: C_14  and  C_22
REMARK    7  A    between atoms: N_15  and  C_16
REMARK                            x       y       z     vdW  Elec       q    Type
REMARK                         _______ _______ _______ _____ _____    ______ ____
ROOT
ATOM      1  C   UNL     1      -3.536  13.929  20.910  0.00  0.00    +0.000 A 
ATOM      2  C   UNL     1      -2.954  14.676  21.947  0.00  0.00    +0.000 A 
ATOM      3  C   UNL     1      -1.570  14.668  22.130  0.00  0.00    +0.000 A 
ATOM      4  C   UNL     1      -0.817  13.901  21.262  0.00  0.00    +0.000 A 
ATOM      5  C   UNL     1      -1.386  13.121  20.248  0.00  0.00    +0.000 A 
ATOM      6  C   UNL     1      -2.758  13.130  20.068  0.00  0.00    +0.000 A 
ATOM      7  C   UNL     1      -0.263  12.431  19.587  0.00  0.00    +0.000 C 
ATOM      8  C   UNL     1      -0.229  11.444  18.671  0.00  0.00    +0.000 C 
ATOM      9  C   UNL     1       0.997  12.973  20.211  0.00  0.00    +0.000 C 
ATOM     10  O   UNL     1       2.142  12.774  19.851  0.00  0.00    +0.000 OA
ATOM     11  N   UNL     1       0.572  13.805  21.234  0.00  0.00    +0.000 N 
ATOM     12  H   UNL     1       1.210  14.322  21.818  0.00  0.00    +0.000 HD
ENDROOT
BRANCH   8  13
ATOM     13  C   UNL     1      -1.458  11.054  17.939  0.00  0.00    +0.000 A 
ATOM     14  C   UNL     1      -2.182   9.945  18.404  0.00  0.00    +0.000 A 
ATOM     15  C   UNL     1      -3.329   9.517  17.737  0.00  0.00    +0.000 A 
ATOM     16  C   UNL     1      -3.765  10.195  16.601  0.00  0.00    +0.000 A 
ATOM     17  C   UNL     1      -3.057  11.302  16.133  0.00  0.00    +0.000 A 
ATOM     18  C   UNL     1      -1.907  11.729  16.797  0.00  0.00    +0.000 A 
ENDBRANCH   8  13
BRANCH   1  19
ATOM     19  N   UNL     1      -4.939  13.990  20.679  0.00  0.00    +0.000 N 
ATOM     20  H   UNL     1      -5.373  14.899  20.846  0.00  0.00    +0.000 HD
BRANCH  19  21
ATOM     21  S   UNL     1      -5.910  12.775  21.334  0.00  0.00    +0.000 S 
ATOM     22  O   UNL     1      -7.208  13.395  21.515  0.00  0.00    +0.000 OA
ATOM     23  O   UNL     1      -5.223  12.144  22.435  0.00  0.00    +0.000 OA
BRANCH  21  25
ATOM     24  C   UNL     1      -6.174  12.369  18.644  0.00  0.00    +0.000 C 
ATOM     25  C   UNL     1      -6.030  11.631  19.963  0.00  0.00    +0.000 C 
ENDBRANCH  21  25
ENDBRANCH  19  21
ENDBRANCH   1  19
BRANCH   8  26
ATOM     26  N   UNL     1       0.919  10.774  18.230  0.00  0.00    +0.000 N 
ATOM     27  H   UNL     1       1.734  11.399  18.238  0.00  0.00    +0.000 HD
BRANCH  26  28
ATOM     28  C   UNL     1       1.346   9.553  18.840  0.00  0.00    +0.000 A 
ATOM     29  C   UNL     1       1.053   9.210  20.168  0.00  0.00    +0.000 A 
ATOM     30  C   UNL     1       1.428   7.971  20.696  0.00  0.00    +0.000 A 
ATOM     31  C   UNL     1       2.132   7.067  19.908  0.00  0.00    +0.000 A 
ATOM     32  C   UNL     1       2.488   7.415  18.607  0.00  0.00    +0.000 A 
ATOM     33  C   UNL     1       2.106   8.655  18.079  0.00  0.00    +0.000 A 
ENDBRANCH  26  28
ENDBRANCH   8  26
TORSDOF 6
ENDMDL
MODEL 9
REMARK VINA RESULT:      -6.3      0.580      1.369
REMARK  Name = 
REMARK  7 active torsions:
REMARK  status: ('A' for Active; 'I' for Inactive)
REMARK    1  A    between atoms: C_1  and  C_2
REMARK    2  A    between atoms: C_2  and  S_3
REMARK    3  A    between atoms: S_3  and  N_6
REMARK    4  A    between atoms: N_6  and  C_7
REMARK    5  A    between atoms: C_14  and  N_15
REMARK    6  A    between atoms: C_14  and  C_22
REMARK    7  A    between atoms: N_15  and  C_16
REMARK                            x       y       z     vdW  Elec       q    Type
REMARK                         _______ _______ _______ _____ _____    ______ ____
ROOT
ATOM      1  C   UNL     1      -4.721  11.890  18.514  0.00  0.00    +0.000 A 
ATOM      2  C   UNL     1      -6.018  11.353  18.514  0.00  0.00    +0.000 A 
ATOM      3  C   UNL     1      -6.801  11.401  19.670  0.00  0.00    +0.000 A 
ATOM      4  C   UNL     1      -6.244  11.986  20.792  0.00  0.00    +0.000 A 
ATOM      5  C   UNL     1      -4.938  12.491  20.817  0.00  0.00    +0.000 A 
ATOM      6  C   UNL     1      -4.165  12.443  19.671  0.00  0.00    +0.000 A 
ATOM      7  C   UNL     1      -4.718  12.978  22.192  0.00  0.00    +0.000 C 
ATOM      8  C   UNL     1      -3.609  13.405  22.827  0.00  0.00    +0.000 C 
ATOM      9  C   UNL     1      -6.035  12.835  22.911  0.00  0.00    +0.000 C 
ATOM     10  O   UNL     1      -6.320  13.256  24.017  0.00  0.00    +0.000 OA
ATOM     11  N   UNL     1      -6.873  12.188  22.018  0.00  0.00    +0.000 N 
ATOM     12  H   UNL     1      -7.834  11.974  22.230  0.00  0.00    +0.000 HD
ENDROOT
BRANCH   8  13
ATOM     13  C   UNL     1      -2.377  13.712  22.063  0.00  0.00    +0.000 A 
ATOM     14  C   UNL     1      -1.293  12.827  22.171  0.00  0.00    +0.000 A 
ATOM     15  C   UNL     1      -0.099  13.083  21.497  0.00  0.00    +0.000 A 
ATOM     16  C   UNL     1       0.022  14.224  20.706  0.00  0.00    +0.000 A 
ATOM     17  C   UNL     1      -1.051  15.108  20.587  0.00  0.00    +0.000 A 
ATOM     18  C   UNL     1      -2.245  14.856  21.264  0.00  0.00    +0.000 A 
ENDBRANCH   8  13
BRANCH   1  19
ATOM     19  N   UNL     1      -3.948  11.904  17.319  0.00  0.00    +0.000 N 
ATOM     20  H   UNL     1      -4.466  12.109  16.463  0.00  0.00    +0.000 HD
BRANCH  19  21
ATOM     21  S   UNL     1      -2.886  10.623  17.039  0.00  0.00    +0.000 S 
ATOM     22  O   UNL     1      -2.658  10.635  15.608  0.00  0.00    +0.000 OA
ATOM     23  O   UNL     1      -3.365   9.438  17.710  0.00  0.00    +0.000 OA
BRANCH  21  25
ATOM     24  C   UNL     1      -1.103  10.414  19.100  0.00  0.00    +0.000 C 
ATOM     25  C   UNL     1      -1.397  11.209  17.841  0.00  0.00    +0.000 C 
ENDBRANCH  21  25
ENDBRANCH  19  21
ENDBRANCH   1  19
BRANCH   8  26
ATOM     26  N   UNL     1      -3.511  13.706  24.190  0.00  0.00    +0.000 N 
ATOM     27  H   UNL     1      -2.836  13.087  24.655  0.00  0.00    +0.000 HD
BRANCH  26  28
ATOM     28  C   UNL     1      -3.211  15.031  24.639  0.00  0.00    +0.000 A 
ATOM     29  C   UNL     1      -4.076  16.121  24.455  0.00  0.00    +0.000 A 
ATOM     30  C   UNL     1      -3.772  17.381  24.978  0.00  0.00    +0.000 A 
ATOM     31  C   UNL     1      -2.581  17.576  25.668  0.00  0.00    +0.000 A 
ATOM     32  C   UNL     1      -1.681  16.522  25.806  0.00  0.00    +0.000 A 
ATOM     33  C   UNL     1      -1.990  15.259  25.285  0.00  0.00    +0.000 A 
ENDBRANCH  26  28
ENDBRANCH   8  26
TORSDOF 6
ENDMDL
